@<TRIPOS>MOLECULE
*****
 34 37 0 0 0
SMALL
GASTEIGER

@<TRIPOS>ATOM
      1 C          -3.4757    3.5394   20.4392 C.3     1  UNL1        0.1329
      2 C          -3.8243    4.3917   19.2551 C.3     1  UNL1        0.0785
      3 C          -4.6865    3.8374   18.1599 C.3     1  UNL1        0.0179
      4 C          -5.0350    4.6897   16.9758 C.3     1  UNL1        0.0029
      5 C          -4.5213    6.0963   16.8869 C.3     1  UNL1        0.0171
      6 C          -3.6591    6.6505   17.9820 C.3     1  UNL1        0.0686
      7 N          -3.3106    5.7982   19.1662 N.3     1  UNL1       -0.2969
      8 H          -3.6515    6.2890   19.9928 H       1  UNL1        0.1233
      9 C          -4.5580    3.8284   25.5992 C.3     1  UNL1        0.0524
     10 C          -4.7069    3.8526   24.1068 C.ar    1  UNL1        0.0640
     11 N          -3.6188    3.5917   23.1079 N.ar    1  UNL1       -0.2456
     12 C          -4.2094    3.7197   21.7351 C.ar    1  UNL1        0.1067
     13 S          -5.6626    4.0598   21.8856 S.2     1  UNL1       -0.0714
     14 C          -5.9701    4.1419   23.3514 C.ar    1  UNL1        0.0512
     15 C          -7.3061    4.4578   23.9557 C.3     1  UNL1        0.1713
     16 O          -8.5403    3.7747   23.4458 O.3     1  UNL1       -0.3767
     17 H          -8.7071    4.0492   22.5305 H       1  UNL1        0.2109
     18 N          -2.3935    2.5068   20.3275 N.am    1  UNL1       -0.2946
     19 C          -0.9685    2.9321   20.1311 C.2     1  UNL1        0.2618
     20 O          -0.6257    4.3899   20.0463 O.2     1  UNL1       -0.2686
     21 H          -2.6184    1.5500   20.3832 H       1  UNL1        0.1501
     22 C           0.1137    1.8995   20.0194 C.ar    1  UNL1        0.1107
     23 C           0.7335    1.4060   18.7456 C.ar    1  UNL1        0.0231
     24 C           1.7691    0.3806   19.1009 C.ar    1  UNL1        0.0186
     25 C           1.7893    0.2403   20.5941 C.ar    1  UNL1        0.0567
     26 N           0.7662    1.1790   21.1618 N.ar    1  UNL1       -0.3496
     27 H           0.5594    1.3008   22.1166 H       1  UNL1        0.1661
     28 C           2.6767   -0.6776   21.3815 C.ar    1  UNL1        0.0156
     29 C           3.3878   -1.8054   20.6942 C.ar    1  UNL1        0.0023
     30 C           4.2752   -2.7232   21.4816 C.ar    1  UNL1        0.0114
     31 C           4.4515   -2.5133   22.9564 C.ar    1  UNL1        0.0577
     32 CL          5.3390   -3.4312   23.7438 Cl      1  UNL1       -0.0822
     33 C           3.7405   -1.3855   23.6437 C.ar    1  UNL1        0.0114
     34 C           2.8531   -0.4676   22.8563 C.ar    1  UNL1        0.0023
@<TRIPOS>BOND
     1     9    10    1
     2    10    11   ar
     3    11    12   ar
     4    12     1    1
     5     1    18    1
     6    18    19   am
     7    19    20    2
     8    19    22    1
     9    22    23   ar
    10    23    24   ar
    11    24    25   ar
    12    25    28    1
    13    28    29   ar
    14    29    30   ar
    15    30    31   ar
    16    31    32    1
    17    31    33   ar
    18    33    34   ar
    19    25    26   ar
    20     1     2    1
    21     2     3    1
    22     3     4    1
    23     4     5    1
    24     5     6    1
    25     6     7    1
    26    12    13   ar
    27    13    14   ar
    28    14    15    1
    29    15    16    1
    30    14    10   ar
    31    26    22   ar
    32     7     2    1
    33    34    28   ar
    34    18    21    1
    35    26    27    1
    36     7     8    1
    37    16    17    1
@<TRIPOS>MOLECULE
*****
 34 37 0 0 0
SMALL
GASTEIGER

@<TRIPOS>ATOM
      1 C           3.7115    0.7098   19.1324 C.3     1  UNL1        0.1329
      2 C           4.7267    1.2559   18.1727 C.3     1  UNL1        0.0785
      3 C           4.9002    2.7388   18.0279 C.3     1  UNL1        0.0179
      4 C           5.9155    3.2850   17.0682 C.3     1  UNL1        0.0029
      5 C           6.7572    2.3481   16.2533 C.3     1  UNL1        0.0171
      6 C           6.5837    0.8653   16.3981 C.3     1  UNL1        0.0686
      7 N           5.5684    0.3192   17.3578 N.3     1  UNL1       -0.2969
      8 H           6.0747   -0.2713   18.0176 H       1  UNL1        0.1233
      9 C           3.5953   -4.5677   19.2531 C.3     1  UNL1        0.0524
     10 C           3.7627   -3.1347   19.6636 C.ar    1  UNL1        0.0640
     11 N           3.5306   -1.9354   18.7930 N.ar    1  UNL1       -0.2456
     12 C           3.8161   -0.7089   19.6080 C.ar    1  UNL1        0.1067
     13 S           4.2245   -1.1502   20.9822 S.2     1  UNL1       -0.0714
     14 C           4.1915   -2.6495   21.0166 C.ar    1  UNL1        0.0512
     15 C           4.5283   -3.5120   22.1967 C.3     1  UNL1        0.1713
     16 O           5.8127   -4.2864   22.2175 O.3     1  UNL1       -0.3767
     17 H           5.7938   -4.9626   21.5223 H       1  UNL1        0.2109
     18 N           2.5916    1.5825   19.6164 N.am    1  UNL1       -0.2946
     19 C           1.2247    1.4525   19.0125 C.2     1  UNL1        0.2618
     20 O           0.9776    0.4498   17.9246 O.2     1  UNL1       -0.2686
     21 H           2.7537    2.2405   20.3305 H       1  UNL1        0.1501
     22 C           0.1048    2.3251   19.4966 C.ar    1  UNL1        0.1107
     23 C          -0.4206    3.5492   18.8068 C.ar    1  UNL1        0.0231
     24 C          -1.5364    4.1075   19.6394 C.ar    1  UNL1        0.0186
     25 C          -1.7008    3.2285   20.8437 C.ar    1  UNL1        0.0567
     26 N          -0.6865    2.1269   20.7554 N.ar    1  UNL1       -0.3496
     27 H          -0.5620    1.4012   21.4090 H       1  UNL1        0.1661
     28 C          -2.7035    3.4178   21.9432 C.ar    1  UNL1        0.0156
     29 C          -2.2418    3.7637   23.3278 C.ar    1  UNL1        0.0023
     30 C          -3.2444    3.9529   24.4273 C.ar    1  UNL1        0.0114
     31 C          -4.7087    3.7963   24.1421 C.ar    1  UNL1        0.0577
     32 CL         -5.7114    3.9856   25.2417 Cl      1  UNL1       -0.0822
     33 C          -5.1704    3.4504   22.7575 C.ar    1  UNL1        0.0114
     34 C          -4.1678    3.2611   21.6581 C.ar    1  UNL1        0.0023
@<TRIPOS>BOND
     1     9    10    1
     2    10    11   ar
     3    11    12   ar
     4    12     1    1
     5     1    18    1
     6    18    19   am
     7    19    20    2
     8    19    22    1
     9    22    23   ar
    10    23    24   ar
    11    24    25   ar
    12    25    28    1
    13    28    29   ar
    14    29    30   ar
    15    30    31   ar
    16    31    32    1
    17    31    33   ar
    18    33    34   ar
    19    25    26   ar
    20     1     2    1
    21     2     3    1
    22     3     4    1
    23     4     5    1
    24     5     6    1
    25     6     7    1
    26    12    13   ar
    27    13    14   ar
    28    14    15    1
    29    15    16    1
    30    14    10   ar
    31    26    22   ar
    32     7     2    1
    33    34    28   ar
    34    18    21    1
    35    26    27    1
    36     7     8    1
    37    16    17    1
@<TRIPOS>MOLECULE
*****
 34 37 0 0 0
SMALL
GASTEIGER

@<TRIPOS>ATOM
      1 C          -3.8338    3.7218   20.7688 C.3     1  UNL1        0.1329
      2 C          -4.0369    4.4006   19.4467 C.3     1  UNL1        0.0785
      3 C          -4.7988    3.7069   18.3566 C.3     1  UNL1        0.0179
      4 C          -5.0018    4.3858   17.0345 C.3     1  UNL1        0.0029
      5 C          -4.4429    5.7584   16.8025 C.3     1  UNL1        0.0171
      6 C          -3.6810    6.4520   17.8926 C.3     1  UNL1        0.0686
      7 N          -3.4780    5.7731   19.2147 N.3     1  UNL1       -0.2969
      8 H          -3.8871    6.3814   19.9239 H       1  UNL1        0.1233
      9 C          -5.6623    4.6754   25.6296 C.3     1  UNL1        0.0524
     10 C          -5.5983    4.4550   24.1473 C.ar    1  UNL1        0.0640
     11 N          -4.3602    4.1650   23.3517 N.ar    1  UNL1       -0.2456
     12 C          -4.7578    4.0166   21.9130 C.ar    1  UNL1        0.1067
     13 S          -6.2417    4.2149   21.8194 S.2     1  UNL1       -0.0714
     14 C          -6.7612    4.4858   23.2003 C.ar    1  UNL1        0.0512
     15 C          -8.1923    4.7425   23.5693 C.3     1  UNL1        0.1713
     16 O          -9.1353    3.5919   23.7609 O.3     1  UNL1       -0.3767
     17 H          -9.2652    3.1360   22.9147 H       1  UNL1        0.2109
     18 N          -2.7068    2.7480   20.9466 N.am    1  UNL1       -0.2946
     19 C          -1.2953    3.2451   21.0487 C.2     1  UNL1        0.2618
     20 O          -1.0107    4.7159   20.9730 O.2     1  UNL1       -0.2686
     21 H          -2.8936    1.7827   20.9963 H       1  UNL1        0.1501
     22 C          -0.1683    2.2713   21.2266 C.ar    1  UNL1        0.1107
     23 C           0.4227    1.8360   22.5348 C.ar    1  UNL1        0.0231
     24 C           1.5219    0.8576   22.2442 C.ar    1  UNL1        0.0186
     25 C           1.6102    0.6881   20.7565 C.ar    1  UNL1        0.0567
     26 N           0.5657    1.5618   20.1275 N.ar    1  UNL1       -0.3496
     27 H           0.3923    1.6535   19.1628 H       1  UNL1        0.1661
     28 C           2.5740   -0.1993   20.0258 C.ar    1  UNL1        0.0156
     29 C           2.8918   -1.5636   20.5622 C.ar    1  UNL1        0.0023
     30 C           3.8555   -2.4509   19.8316 C.ar    1  UNL1        0.0114
     31 C           4.5014   -1.9740   18.5645 C.ar    1  UNL1        0.0577
     32 CL          5.4651   -2.8615   17.8339 Cl      1  UNL1       -0.0822
     33 C           4.1835   -0.6098   18.0281 C.ar    1  UNL1        0.0114
     34 C           3.2198    0.2776   18.7588 C.ar    1  UNL1        0.0023
@<TRIPOS>BOND
     1     9    10    1
     2    10    11   ar
     3    11    12   ar
     4    12     1    1
     5     1    18    1
     6    18    19   am
     7    19    20    2
     8    19    22    1
     9    22    23   ar
    10    23    24   ar
    11    24    25   ar
    12    25    28    1
    13    28    29   ar
    14    29    30   ar
    15    30    31   ar
    16    31    32    1
    17    31    33   ar
    18    33    34   ar
    19    25    26   ar
    20     1     2    1
    21     2     3    1
    22     3     4    1
    23     4     5    1
    24     5     6    1
    25     6     7    1
    26    12    13   ar
    27    13    14   ar
    28    14    15    1
    29    15    16    1
    30    14    10   ar
    31    26    22   ar
    32     7     2    1
    33    34    28   ar
    34    18    21    1
    35    26    27    1
    36     7     8    1
    37    16    17    1
@<TRIPOS>MOLECULE
*****
 34 37 0 0 0
SMALL
GASTEIGER

@<TRIPOS>ATOM
      1 C          -3.3378    3.5074   20.9187 C.3     1  UNL1        0.1329
      2 C          -4.2532    3.9674   19.8230 C.3     1  UNL1        0.0785
      3 C          -5.6333    3.3912   19.7075 C.3     1  UNL1        0.0179
      4 C          -6.5488    3.8512   18.6119 C.3     1  UNL1        0.0029
      5 C          -6.0840    4.8875   17.6319 C.3     1  UNL1        0.0171
      6 C          -4.7040    5.4637   17.7475 C.3     1  UNL1        0.0686
      7 N          -3.7886    5.0036   18.8431 N.3     1  UNL1       -0.2969
      8 H          -3.5393    5.8308   19.3853 H       1  UNL1        0.1233
      9 C          -2.6749    6.3456   25.3215 C.3     1  UNL1        0.0524
     10 C          -3.2007    5.3466   24.3339 C.ar    1  UNL1        0.0640
     11 N          -2.6936    5.1360   22.9380 N.ar    1  UNL1       -0.2456
     12 C          -3.5054    4.0420   22.3101 C.ar    1  UNL1        0.1067
     13 S          -4.5142    3.5766   23.3179 S.2     1  UNL1       -0.0714
     14 C          -4.3260    4.3829   24.5687 C.ar    1  UNL1        0.0512
     15 C          -5.1229    4.2490   25.8323 C.3     1  UNL1        0.1713
     16 O          -4.4465    3.8342   27.1052 O.3     1  UNL1       -0.3767
     17 H          -4.1253    2.9230   27.0186 H       1  UNL1        0.2109
     18 N          -2.2547    2.5126   20.6229 N.am    1  UNL1       -0.2946
     19 C          -0.9552    2.9725   20.0315 C.2     1  UNL1        0.2618
     20 O          -0.7387    4.4270   19.7358 O.2     1  UNL1       -0.2686
     21 H          -2.3968    1.5580   20.8169 H       1  UNL1        0.1501
     22 C           0.1278    1.9777   19.7357 C.ar    1  UNL1        0.1107
     23 C           0.7646    1.7390   18.3986 C.ar    1  UNL1        0.0231
     24 C           1.7946    0.6608   18.5616 C.ar    1  UNL1        0.0186
     25 C           1.7945    0.2331   19.9993 C.ar    1  UNL1        0.0567
     26 N           0.7644    1.0471   20.7249 N.ar    1  UNL1       -0.3496
     27 H           0.5447    0.9819   21.6824 H       1  UNL1        0.1661
     28 C           2.6706   -0.8230   20.6051 C.ar    1  UNL1        0.0156
     29 C           3.2040   -1.9353   19.7517 C.ar    1  UNL1        0.0023
     30 C           4.0801   -2.9913   20.3576 C.ar    1  UNL1        0.0114
     31 C           4.4228   -2.9352   21.8168 C.ar    1  UNL1        0.0577
     32 CL          5.2990   -3.9913   22.4226 Cl      1  UNL1       -0.0822
     33 C           3.8895   -1.8229   22.6702 C.ar    1  UNL1        0.0114
     34 C           3.0133   -0.7668   22.0644 C.ar    1  UNL1        0.0023
@<TRIPOS>BOND
     1     9    10    1
     2    10    11   ar
     3    11    12   ar
     4    12     1    1
     5     1    18    1
     6    18    19   am
     7    19    20    2
     8    19    22    1
     9    22    23   ar
    10    23    24   ar
    11    24    25   ar
    12    25    28    1
    13    28    29   ar
    14    29    30   ar
    15    30    31   ar
    16    31    32    1
    17    31    33   ar
    18    33    34   ar
    19    25    26   ar
    20     1     2    1
    21     2     3    1
    22     3     4    1
    23     4     5    1
    24     5     6    1
    25     6     7    1
    26    12    13   ar
    27    13    14   ar
    28    14    15    1
    29    15    16    1
    30    14    10   ar
    31    26    22   ar
    32     7     2    1
    33    34    28   ar
    34    18    21    1
    35    26    27    1
    36     7     8    1
    37    16    17    1
@<TRIPOS>MOLECULE
*****
 34 37 0 0 0
SMALL
GASTEIGER

@<TRIPOS>ATOM
      1 C          -3.9497    3.6953   21.1762 C.3     1  UNL1        0.1329
      2 C          -4.0970    4.0561   22.6248 C.3     1  UNL1        0.0785
      3 C          -4.9048    3.1812   23.5370 C.3     1  UNL1        0.0179
      4 C          -5.0521    3.5419   24.9855 C.3     1  UNL1        0.0029
      5 C          -4.3917    4.7775   25.5217 C.3     1  UNL1        0.0171
      6 C          -3.5841    5.6523   24.6094 C.3     1  UNL1        0.0686
      7 N          -3.4367    5.2915   23.1609 N.3     1  UNL1       -0.2969
      8 H          -2.4374    5.1924   22.9824 H       1  UNL1        0.1233
      9 C          -6.0207    5.3600   16.6133 C.3     1  UNL1        0.0524
     10 C          -5.8537    5.0228   18.0653 C.ar    1  UNL1        0.0640
     11 N          -4.6310    4.4262   18.6970 N.ar    1  UNL1       -0.2456
     12 C          -4.9018    4.2576   20.1627 C.ar    1  UNL1        0.1067
     13 S          -6.2919    4.7501   20.4368 S.2     1  UNL1       -0.0714
     14 C          -6.8802    5.2230   19.1406 C.ar    1  UNL1        0.0512
     15 C          -8.2539    5.7955   18.9527 C.3     1  UNL1        0.1713
     16 O          -9.3777    4.9139   18.4948 O.3     1  UNL1       -0.3767
     17 H          -9.2030    4.6109   17.5901 H       1  UNL1        0.2109
     18 N          -2.8502    2.7723   20.7413 N.am    1  UNL1       -0.2946
     19 C          -1.4450    3.2835   20.6220 C.2     1  UNL1        0.2618
     20 O          -1.1393    4.7177   20.9376 O.2     1  UNL1       -0.2686
     21 H          -3.0508    1.8310   20.5341 H       1  UNL1        0.1501
     22 C          -0.3456    2.3605   20.1870 C.ar    1  UNL1        0.1107
     23 C           0.2685    2.3034   18.8196 C.ar    1  UNL1        0.0231
     24 C           1.3265    1.2401   18.8306 C.ar    1  UNL1        0.0186
     25 C           1.3663    0.6401   20.2047 C.ar    1  UNL1        0.0567
     26 N           0.3329    1.3325   21.0431 N.ar    1  UNL1       -0.3496
     27 H           0.1348    1.1451   21.9890 H       1  UNL1        0.1661
     28 C           2.2792   -0.4594   20.6606 C.ar    1  UNL1        0.0156
     29 C           2.7562   -1.4920   19.6828 C.ar    1  UNL1        0.0023
     30 C           3.6691   -2.5914   20.1387 C.ar    1  UNL1        0.0114
     31 C           4.1050   -2.6583   21.5724 C.ar    1  UNL1        0.0577
     32 CL          5.0179   -3.7578   22.0282 Cl      1  UNL1       -0.0822
     33 C           3.6280   -1.6257   22.5502 C.ar    1  UNL1        0.0114
     34 C           2.7151   -0.5263   22.0943 C.ar    1  UNL1        0.0023
@<TRIPOS>BOND
     1     9    10    1
     2    10    11   ar
     3    11    12   ar
     4    12     1    1
     5     1    18    1
     6    18    19   am
     7    19    20    2
     8    19    22    1
     9    22    23   ar
    10    23    24   ar
    11    24    25   ar
    12    25    28    1
    13    28    29   ar
    14    29    30   ar
    15    30    31   ar
    16    31    32    1
    17    31    33   ar
    18    33    34   ar
    19    25    26   ar
    20     1     2    1
    21     2     3    1
    22     3     4    1
    23     4     5    1
    24     5     6    1
    25     6     7    1
    26    12    13   ar
    27    13    14   ar
    28    14    15    1
    29    15    16    1
    30    14    10   ar
    31    26    22   ar
    32     7     2    1
    33    34    28   ar
    34    18    21    1
    35    26    27    1
    36     7     8    1
    37    16    17    1
@<TRIPOS>MOLECULE
*****
 34 37 0 0 0
SMALL
GASTEIGER

@<TRIPOS>ATOM
      1 C           4.2371    0.3873   33.0699 C.3     1  UNL1        0.1329
      2 C           4.1423    0.6996   34.5340 C.3     1  UNL1        0.0785
      3 C           4.9846   -0.0568   35.5181 C.3     1  UNL1        0.0179
      4 C           4.8898    0.2554   36.9822 C.3     1  UNL1        0.0029
      5 C           3.9528    1.3240   37.4621 C.3     1  UNL1        0.0171
      6 C           3.1106    2.0803   36.4780 C.3     1  UNL1        0.0686
      7 N           3.2054    1.7681   35.0139 N.3     1  UNL1       -0.2969
      8 H           3.4794    2.6319   34.5457 H       1  UNL1        0.1233
      9 C           0.8587    3.6108   30.6049 C.3     1  UNL1        0.0524
     10 C           1.6464    2.3935   30.9894 C.ar    1  UNL1        0.0640
     11 N           2.6608    2.3116   32.0913 N.ar    1  UNL1       -0.2456
     12 C           3.1993    0.9119   32.1224 C.ar    1  UNL1        0.1067
     13 S           2.5177    0.1289   31.0397 S.2     1  UNL1       -0.0714
     14 C           1.5579    1.0446   30.3394 C.ar    1  UNL1        0.0512
     15 C           0.6663    0.6760   29.1909 C.3     1  UNL1        0.1713
     16 O          -0.0673   -0.6322   29.2007 O.3     1  UNL1       -0.3767
     17 H           0.5707   -1.3612   29.1512 H       1  UNL1        0.2109
     18 N           5.3697   -0.4494   32.5533 N.am    1  UNL1       -0.2946
     19 C           5.2812   -1.9459   32.6055 C.2     1  UNL1        0.2618
     20 O           4.0601   -2.6056   33.1743 O.2     1  UNL1       -0.2686
     21 H           6.1712   -0.0165   32.1799 H       1  UNL1        0.1501
     22 C           6.4139   -2.7827   32.0888 C.ar    1  UNL1        0.1107
     23 C           7.8500   -2.6792   32.5096 C.ar    1  UNL1        0.0231
     24 C           8.6329   -3.7024   31.7415 C.ar    1  UNL1        0.0186
     25 C           7.6808   -4.4384   30.8461 C.ar    1  UNL1        0.0567
     26 N           6.3093   -3.8700   31.0608 N.ar    1  UNL1       -0.3496
     27 H           5.4853   -4.1596   30.6066 H       1  UNL1        0.1661
     28 C           8.0374   -5.5480   29.9018 C.ar    1  UNL1        0.0156
     29 C           9.1607   -6.4845   30.2351 C.ar    1  UNL1        0.0023
     30 C           9.5173   -7.5940   29.2908 C.ar    1  UNL1        0.0114
     31 C           8.7506   -7.7670   28.0132 C.ar    1  UNL1        0.0577
     32 CL          9.1072   -8.8766   27.0689 Cl      1  UNL1       -0.0822
     33 C           7.6273   -6.8305   27.6799 C.ar    1  UNL1        0.0114
     34 C           7.2707   -5.7210   28.6242 C.ar    1  UNL1        0.0023
@<TRIPOS>BOND
     1     9    10    1
     2    10    11   ar
     3    11    12   ar
     4    12     1    1
     5     1    18    1
     6    18    19   am
     7    19    20    2
     8    19    22    1
     9    22    23   ar
    10    23    24   ar
    11    24    25   ar
    12    25    28    1
    13    28    29   ar
    14    29    30   ar
    15    30    31   ar
    16    31    32    1
    17    31    33   ar
    18    33    34   ar
    19    25    26   ar
    20     1     2    1
    21     2     3    1
    22     3     4    1
    23     4     5    1
    24     5     6    1
    25     6     7    1
    26    12    13   ar
    27    13    14   ar
    28    14    15    1
    29    15    16    1
    30    14    10   ar
    31    26    22   ar
    32     7     2    1
    33    34    28   ar
    34    18    21    1
    35    26    27    1
    36     7     8    1
    37    16    17    1
@<TRIPOS>MOLECULE
*****
 34 37 0 0 0
SMALL
GASTEIGER

@<TRIPOS>ATOM
      1 C           2.9899   -0.8045   21.4375 C.3     1  UNL1        0.1329
      2 C           3.7794   -1.3970   20.3080 C.3     1  UNL1        0.0785
      3 C           3.6514   -2.8569   19.9884 C.3     1  UNL1        0.0179
      4 C           4.4409   -3.4494   18.8589 C.3     1  UNL1        0.0029
      5 C           5.3583   -2.5818   18.0490 C.3     1  UNL1        0.0171
      6 C           5.4863   -1.1219   18.3687 C.3     1  UNL1        0.0686
      7 N           4.6968   -0.5295   19.4982 N.3     1  UNL1       -0.2969
      8 H           4.1232    0.2133   19.0987 H       1  UNL1        0.1233
      9 C           5.7600   -2.3580   25.6558 C.3     1  UNL1        0.0524
     10 C           4.7335   -1.6889   24.7906 C.ar    1  UNL1        0.0640
     11 N           4.6258   -1.8063   23.2991 N.ar    1  UNL1       -0.2456
     12 C           3.4603   -0.9749   22.8516 C.ar    1  UNL1        0.1067
     13 S           2.8476   -0.3437   24.0667 S.2     1  UNL1       -0.0714
     14 C           3.6345   -0.7850   25.2650 C.ar    1  UNL1        0.0512
     15 C           3.3690   -0.3914   26.6879 C.3     1  UNL1        0.1713
     16 O           2.8986   -1.4184   27.6748 O.3     1  UNL1       -0.3767
     17 H           2.0137   -1.7265   27.4238 H       1  UNL1        0.2109
     18 N           1.7301   -0.0418   21.1529 N.am    1  UNL1       -0.2946
     19 C           1.8050    1.3731   20.6605 C.2     1  UNL1        0.2618
     20 O           3.1397    2.0253   20.4526 O.2     1  UNL1       -0.2686
     21 H           0.8541   -0.4698   21.2893 H       1  UNL1        0.1501
     22 C           0.5452    2.1359   20.3759 C.ar    1  UNL1        0.1107
     23 C           0.2944    3.0106   19.1834 C.ar    1  UNL1        0.0231
     24 C          -1.0909    3.5732   19.3043 C.ar    1  UNL1        0.0186
     25 C          -1.6962    3.0461   20.5715 C.ar    1  UNL1        0.0567
     26 N          -0.6851    2.1578   21.2337 N.ar    1  UNL1       -0.3496
     27 H          -0.8075    1.6741   22.0824 H       1  UNL1        0.1661
     28 C          -3.0713    3.3534   21.0861 C.ar    1  UNL1        0.0156
     29 C          -3.3069    3.4900   22.5611 C.ar    1  UNL1        0.0023
     30 C          -4.6820    3.7973   23.0757 C.ar    1  UNL1        0.0114
     31 C          -5.8214    3.9679   22.1152 C.ar    1  UNL1        0.0577
     32 CL         -7.1965    4.2752   22.6298 Cl      1  UNL1       -0.0822
     33 C          -5.5858    3.8314   20.6401 C.ar    1  UNL1        0.0114
     34 C          -4.2108    3.5241   20.1256 C.ar    1  UNL1        0.0023
@<TRIPOS>BOND
     1     9    10    1
     2    10    11   ar
     3    11    12   ar
     4    12     1    1
     5     1    18    1
     6    18    19   am
     7    19    20    2
     8    19    22    1
     9    22    23   ar
    10    23    24   ar
    11    24    25   ar
    12    25    28    1
    13    28    29   ar
    14    29    30   ar
    15    30    31   ar
    16    31    32    1
    17    31    33   ar
    18    33    34   ar
    19    25    26   ar
    20     1     2    1
    21     2     3    1
    22     3     4    1
    23     4     5    1
    24     5     6    1
    25     6     7    1
    26    12    13   ar
    27    13    14   ar
    28    14    15    1
    29    15    16    1
    30    14    10   ar
    31    26    22   ar
    32     7     2    1
    33    34    28   ar
    34    18    21    1
    35    26    27    1
    36     7     8    1
    37    16    17    1
@<TRIPOS>MOLECULE
*****
 34 37 0 0 0
SMALL
GASTEIGER

@<TRIPOS>ATOM
      1 C           2.5710    0.3701   29.4875 C.3     1  UNL1        0.1329
      2 C           1.8810    1.5393   30.1253 C.3     1  UNL1        0.0785
      3 C           1.6264    2.7852   29.3297 C.3     1  UNL1        0.0179
      4 C           0.9363    3.9544   29.9675 C.3     1  UNL1        0.0029
      5 C           0.5008    3.8777   31.4009 C.3     1  UNL1        0.0171
      6 C           0.7554    2.6318   32.1965 C.3     1  UNL1        0.0686
      7 N           1.4455    1.4626   31.5587 N.3     1  UNL1       -0.2969
      8 H           0.8083    0.6694   31.6308 H       1  UNL1        0.1233
      9 C           4.5419   -2.6089   33.3763 C.3     1  UNL1        0.0524
     10 C           4.4023   -1.8574   32.0856 C.ar    1  UNL1        0.0640
     11 N           3.2020   -1.0712   31.6485 N.ar    1  UNL1       -0.2456
     12 C           3.4964   -0.4881   30.2981 C.ar    1  UNL1        0.1067
     13 S           4.8787   -0.9140   29.9007 S.2     1  UNL1       -0.0714
     14 C           5.4386   -1.7603   31.0054 C.ar    1  UNL1        0.0512
     15 C           6.7963   -2.3976   31.0263 C.3     1  UNL1        0.1713
     16 O           7.1190   -3.5068   30.0695 O.3     1  UNL1       -0.3767
     17 H           6.5730   -4.2813   30.2764 H       1  UNL1        0.2109
     18 N           2.3358    0.0592   28.0391 N.am    1  UNL1       -0.2946
     19 C           3.2327    0.6473   26.9904 C.2     1  UNL1        0.2618
     20 O           4.3649    1.5464   27.3902 O.2     1  UNL1       -0.2686
     21 H           1.5927   -0.5309   27.7767 H       1  UNL1        0.1501
     22 C           2.9974    0.3364   25.5420 C.ar    1  UNL1        0.1107
     23 C           2.1005    1.0974   24.6112 C.ar    1  UNL1        0.0231
     24 C           2.1665    0.4412   23.2640 C.ar    1  UNL1        0.0186
     25 C           3.1041   -0.7254   23.3622 C.ar    1  UNL1        0.0567
     26 N           3.6177   -0.7902   24.7700 N.ar    1  UNL1       -0.3496
     27 H           4.2507   -1.4554   25.1251 H       1  UNL1        0.1661
     28 C           3.4650   -1.6628   22.2480 C.ar    1  UNL1        0.0156
     29 C           4.3083   -2.8713   22.5281 C.ar    1  UNL1        0.0023
     30 C           4.6691   -3.8085   21.4140 C.ar    1  UNL1        0.0114
     31 C           4.1866   -3.5373   20.0198 C.ar    1  UNL1        0.0577
     32 CL          4.5475   -4.4747   18.9056 Cl      1  UNL1       -0.0822
     33 C           3.3433   -2.3289   19.7397 C.ar    1  UNL1        0.0114
     34 C           2.9825   -1.3916   20.8539 C.ar    1  UNL1        0.0023
@<TRIPOS>BOND
     1     9    10    1
     2    10    11   ar
     3    11    12   ar
     4    12     1    1
     5     1    18    1
     6    18    19   am
     7    19    20    2
     8    19    22    1
     9    22    23   ar
    10    23    24   ar
    11    24    25   ar
    12    25    28    1
    13    28    29   ar
    14    29    30   ar
    15    30    31   ar
    16    31    32    1
    17    31    33   ar
    18    33    34   ar
    19    25    26   ar
    20     1     2    1
    21     2     3    1
    22     3     4    1
    23     4     5    1
    24     5     6    1
    25     6     7    1
    26    12    13   ar
    27    13    14   ar
    28    14    15    1
    29    15    16    1
    30    14    10   ar
    31    26    22   ar
    32     7     2    1
    33    34    28   ar
    34    18    21    1
    35    26    27    1
    36     7     8    1
    37    16    17    1
@<TRIPOS>MOLECULE
*****
 34 37 0 0 0
SMALL
GASTEIGER

@<TRIPOS>ATOM
      1 C           4.5160   -0.8394   32.7482 C.3     1  UNL1        0.1329
      2 C           5.1743   -0.4317   34.0329 C.3     1  UNL1        0.0785
      3 C           4.4346   -0.5680   35.3307 C.3     1  UNL1        0.0179
      4 C           5.0928   -0.1602   36.6154 C.3     1  UNL1        0.0029
      5 C           6.4907    0.3838   36.6022 C.3     1  UNL1        0.0171
      6 C           7.2303    0.5200   35.3044 C.3     1  UNL1        0.0686
      7 N           6.5721    0.1123   34.0197 N.3     1  UNL1       -0.2969
      8 H           7.1634   -0.6054   33.6007 H       1  UNL1        0.1233
      9 C           0.6251    0.9040   29.6333 C.3     1  UNL1        0.0524
     10 C           1.6754    0.8370   30.7021 C.ar    1  UNL1        0.0640
     11 N           2.5714   -0.3322   30.9857 N.ar    1  UNL1       -0.2456
     12 C           3.4639    0.0356   32.1338 C.ar    1  UNL1        0.1067
     13 S           3.1194    1.4320   32.5598 S.2     1  UNL1       -0.0714
     14 C           2.0141    1.9273   31.6750 C.ar    1  UNL1        0.0512
     15 C           1.3620    3.2760   31.7499 C.3     1  UNL1        0.1713
     16 O           0.2480    3.5174   32.7249 O.3     1  UNL1       -0.3767
     17 H          -0.5202    2.9792   32.4779 H       1  UNL1        0.2109
     18 N           4.9099   -2.1221   32.0777 N.am    1  UNL1       -0.2946
     19 C           6.1628   -2.1846   31.2553 C.2     1  UNL1        0.2618
     20 O           7.0218   -0.9644   31.1033 O.2     1  UNL1       -0.2686
     21 H           4.3461   -2.9230   32.1775 H       1  UNL1        0.1501
     22 C           6.5567   -3.4673   30.5849 C.ar    1  UNL1        0.1107
     23 C           6.7653   -4.7889   31.2632 C.ar    1  UNL1        0.0231
     24 C           7.1487   -5.7920   30.2160 C.ar    1  UNL1        0.0186
     25 C           7.1770   -5.0905   28.8905 C.ar    1  UNL1        0.0567
     26 N           6.8111   -3.6538   29.1185 N.ar    1  UNL1       -0.3496
     27 H           6.7489   -2.9558   28.4270 H       1  UNL1        0.1661
     28 C           7.5123   -5.7159   27.5689 C.ar    1  UNL1        0.0156
     29 C           8.1521   -7.0718   27.5216 C.ar    1  UNL1        0.0023
     30 C           8.4874   -7.6971   26.2001 C.ar    1  UNL1        0.0114
     31 C           8.1828   -6.9666   24.9258 C.ar    1  UNL1        0.0577
     32 CL          8.5182   -7.5920   23.6043 Cl      1  UNL1       -0.0822
     33 C           7.5430   -5.6108   24.9731 C.ar    1  UNL1        0.0114
     34 C           7.2077   -4.9854   26.2947 C.ar    1  UNL1        0.0023
@<TRIPOS>BOND
     1     9    10    1
     2    10    11   ar
     3    11    12   ar
     4    12     1    1
     5     1    18    1
     6    18    19   am
     7    19    20    2
     8    19    22    1
     9    22    23   ar
    10    23    24   ar
    11    24    25   ar
    12    25    28    1
    13    28    29   ar
    14    29    30   ar
    15    30    31   ar
    16    31    32    1
    17    31    33   ar
    18    33    34   ar
    19    25    26   ar
    20     1     2    1
    21     2     3    1
    22     3     4    1
    23     4     5    1
    24     5     6    1
    25     6     7    1
    26    12    13   ar
    27    13    14   ar
    28    14    15    1
    29    15    16    1
    30    14    10   ar
    31    26    22   ar
    32     7     2    1
    33    34    28   ar
    34    18    21    1
    35    26    27    1
    36     7     8    1
    37    16    17    1
