@<TRIPOS>MOLECULE
*****
 30 32 0 0 0
SMALL
GASTEIGER

@<TRIPOS>ATOM
      1 C          -5.4288  -16.2681   24.2075 C.ar    1  UNL1        0.0202
      2 C          -5.4208  -15.6758   25.5856 C.ar    1  UNL1        0.0760
      3 N          -6.8433  -15.5506   26.0445 N.ar    1  UNL1       -0.3240
      4 C          -7.2988  -15.0061   27.3659 C.3     1  UNL1        0.1305
      5 C          -7.7305  -16.0655   24.9501 C.ar    1  UNL1        0.0603
      6 C          -9.2215  -16.1879   24.8407 C.ar    1  UNL1        0.0240
      7 C          -9.8382  -16.7537   23.5959 C.ar    1  UNL1        0.0837
      8 C          -8.9639  -17.1971   22.4606 C.ar    1  UNL1        0.1446
      9 F          -9.5807  -17.7630   21.2158 F       1  UNL1       -0.2040
     10 C          -7.4730  -17.0748   22.5700 C.ar    1  UNL1        0.0313
     11 C          -6.8563  -16.5090   23.8148 C.ar    1  UNL1        0.0195
     12 C          -1.8063  -17.1650   21.6929 C.ar    1  UNL1        0.2249
     13 C          -2.3879  -18.2284   22.5764 C.ar    1  UNL1        0.0577
     14 C          -3.5954  -17.9295   23.4146 C.ar    1  UNL1        0.0064
     15 C          -4.2213  -16.5671   23.3693 C.ar    1  UNL1        0.0209
     16 C          -3.6396  -15.5035   22.4858 C.ar    1  UNL1        0.1021
     17 N          -2.4321  -15.8025   21.6476 N.ar    1  UNL1       -0.2101
     18 O          -0.5988  -17.4639   20.8547 O.3     1  UNL1       -0.4602
     19 C          -0.7608  -18.1000   19.5059 C.3     1  UNL1        0.2070
     20 C          -2.5933  -17.1245   17.9437 C.3     1  UNL1        0.0038
     21 C          -2.1209  -18.1964   18.8808 C.3     1  UNL1        0.0438
     22 C          -3.0087  -19.3645   19.1926 C.3     1  UNL1        0.0038
     23 C         -11.3292  -16.8761   23.4865 C.2     1  UNL1        0.2662
     24 O         -12.1262  -15.7815   22.8410 O.2     1  UNL1       -0.2685
     25 N         -12.0232  -18.0931   24.0225 N.am    1  UNL1       -0.1851
     26 H         -11.5001  -18.8115   24.4462 H       1  UNL1        0.1765
     27 S         -13.5141  -18.2155   23.9131 S.O2    1  UNL1        0.0581
     28 C         -15.0052  -18.3379   23.8037 C.3     1  UNL1        0.1997
     29 O         -13.6047  -18.4365   25.3939 O.2     1  UNL1       -0.1543
     30 O         -13.4236  -17.9945   22.4323 O.2     1  UNL1       -0.1543
@<TRIPOS>BOND
     1    20    21    1
     2    21    22    1
     3    21    19    1
     4    19    18    1
     5    18    12    1
     6    12    13   ar
     7    13    14   ar
     8    14    15   ar
     9    15     1    1
    10     1     2   ar
    11     2     3   ar
    12     3     4    1
    13     3     5   ar
    14     5     6   ar
    15     6     7   ar
    16     7    23    1
    17    23    24    2
    18    23    25   am
    19    25    27    1
    20    27    28    1
    21    27    29    2
    22    27    30    2
    23     7     8   ar
    24     8     9    1
    25     8    10   ar
    26    10    11   ar
    27    15    16   ar
    28    16    17   ar
    29    17    12   ar
    30    11     1   ar
    31    11     5   ar
    32    25    26    1
@<TRIPOS>MOLECULE
*****
 30 32 0 0 0
SMALL
GASTEIGER

@<TRIPOS>ATOM
      1 C           2.9963   -1.6614   20.1622 C.ar    1  UNL1        0.0202
      2 C           3.2509   -2.7174   19.1277 C.ar    1  UNL1        0.0760
      3 N           4.2394   -3.6928   19.6946 N.ar    1  UNL1       -0.3240
      4 C           4.7773   -4.9079   18.9988 C.3     1  UNL1        0.1305
      5 C           4.5958   -3.2397   21.0795 C.ar    1  UNL1        0.0603
      6 C           5.5205   -3.8081   22.1146 C.ar    1  UNL1        0.0240
      7 C           5.6770   -3.1211   23.4388 C.ar    1  UNL1        0.0837
      8 C           4.9087   -1.8657   23.7278 C.ar    1  UNL1        0.1446
      9 F           5.0652   -1.1786   25.0521 F       1  UNL1       -0.2040
     10 C           3.9839   -1.2972   22.6926 C.ar    1  UNL1        0.0313
     11 C           3.8274   -1.9843   21.3685 C.ar    1  UNL1        0.0195
     12 C           0.2253    1.8571   19.7241 C.ar    1  UNL1        0.2249
     13 C           1.5498    1.8532   19.0200 C.ar    1  UNL1        0.0577
     14 C           2.4734    0.6804   19.1660 C.ar    1  UNL1        0.0064
     15 C           2.0727   -0.4886   20.0162 C.ar    1  UNL1        0.0209
     16 C           0.7481   -0.4847   20.7203 C.ar    1  UNL1        0.1021
     17 N          -0.1755    0.6881   20.5743 N.ar    1  UNL1       -0.2101
     18 O          -0.6983    3.0300   19.5780 O.3     1  UNL1       -0.4602
     19 C          -1.7913    3.2533   20.5807 C.3     1  UNL1        0.2070
     20 C          -4.3483    3.1510   21.0296 C.3     1  UNL1        0.0038
     21 C          -3.2014    3.4704   20.1172 C.3     1  UNL1        0.0438
     22 C          -3.4643    4.0069   18.7413 C.3     1  UNL1        0.0038
     23 C           6.6018   -3.6895   24.4741 C.2     1  UNL1        0.2662
     24 O           8.0582   -3.8672   24.1622 O.2     1  UNL1       -0.2685
     25 N           6.0702   -4.0803   25.8211 N.am    1  UNL1       -0.1851
     26 H           5.1143   -3.9637   26.0258 H       1  UNL1        0.1765
     27 S           6.9949   -4.6487   26.8564 S.O2    1  UNL1        0.0581
     28 C           7.9197   -5.2171   27.8917 C.3     1  UNL1        0.1997
     29 O           7.3041   -3.2632   27.3408 O.2     1  UNL1       -0.1543
     30 O           6.6856   -6.0342   26.3719 O.2     1  UNL1       -0.1543
@<TRIPOS>BOND
     1    20    21    1
     2    21    22    1
     3    21    19    1
     4    19    18    1
     5    18    12    1
     6    12    13   ar
     7    13    14   ar
     8    14    15   ar
     9    15     1    1
    10     1     2   ar
    11     2     3   ar
    12     3     4    1
    13     3     5   ar
    14     5     6   ar
    15     6     7   ar
    16     7    23    1
    17    23    24    2
    18    23    25   am
    19    25    27    1
    20    27    28    1
    21    27    29    2
    22    27    30    2
    23     7     8   ar
    24     8     9    1
    25     8    10   ar
    26    10    11   ar
    27    15    16   ar
    28    16    17   ar
    29    17    12   ar
    30    11     1   ar
    31    11     5   ar
    32    25    26    1
@<TRIPOS>MOLECULE
*****
 30 32 0 0 0
SMALL
GASTEIGER

@<TRIPOS>ATOM
      1 C         -13.3924   -5.9589   18.8095 C.ar    1  UNL1        0.0202
      2 C         -11.9112   -6.1107   18.9914 C.ar    1  UNL1        0.0760
      3 N         -11.2904   -4.7486   18.8948 N.ar    1  UNL1       -0.3240
      4 C          -9.8287   -4.4351   19.0182 C.3     1  UNL1        0.1305
      5 C         -12.3879   -3.7550   18.6531 C.ar    1  UNL1        0.0603
      6 C         -12.3721   -2.2659   18.4743 C.ar    1  UNL1        0.0240
      7 C         -13.6554   -1.5247   18.2427 C.ar    1  UNL1        0.0837
      8 C         -14.9545   -2.2727   18.1899 C.ar    1  UNL1        0.1446
      9 F         -16.2379   -1.5314   17.9583 F       1  UNL1       -0.2040
     10 C         -14.9703   -3.7619   18.3688 C.ar    1  UNL1        0.0313
     11 C         -13.6870   -4.5030   18.6004 C.ar    1  UNL1        0.0195
     12 C         -16.4206   -9.2869   18.8786 C.ar    1  UNL1        0.2249
     13 C         -16.6852   -8.0163   19.6306 C.ar    1  UNL1        0.0577
     14 C         -15.6758   -6.9070   19.6075 C.ar    1  UNL1        0.0064
     15 C         -14.4018   -7.0682   18.8325 C.ar    1  UNL1        0.0209
     16 C         -14.1371   -8.3389   18.0804 C.ar    1  UNL1        0.1021
     17 N         -15.1466   -9.4482   18.1035 N.ar    1  UNL1       -0.2101
     18 O         -17.4300  -10.3962   18.9016 O.3     1  UNL1       -0.4602
     19 C         -18.8946  -10.0791   18.8354 C.3     1  UNL1        0.2070
     20 C         -19.4584   -9.9644   16.3019 C.3     1  UNL1        0.0038
     21 C         -19.4470   -9.3282   17.6602 C.3     1  UNL1        0.0438
     22 C         -19.9878   -7.9411   17.8434 C.3     1  UNL1        0.0038
     23 C         -13.6396   -0.0354   18.0638 C.2     1  UNL1        0.2662
     24 O         -14.3533    0.8455   19.0459 O.2     1  UNL1       -0.2685
     25 N         -12.9101    0.5728   16.9028 N.am    1  UNL1       -0.1851
     26 H         -12.4417   -0.0054   16.2583 H       1  UNL1        0.1765
     27 S         -12.8944    2.0620   16.7239 S.O2    1  UNL1        0.0581
     28 C         -12.8786    3.5513   16.5450 C.3     1  UNL1        0.1997
     29 O         -14.1962    1.9868   15.9827 O.2     1  UNL1       -0.1543
     30 O         -11.5925    2.1373   17.4652 O.2     1  UNL1       -0.1543
@<TRIPOS>BOND
     1    20    21    1
     2    21    22    1
     3    21    19    1
     4    19    18    1
     5    18    12    1
     6    12    13   ar
     7    13    14   ar
     8    14    15   ar
     9    15     1    1
    10     1     2   ar
    11     2     3   ar
    12     3     4    1
    13     3     5   ar
    14     5     6   ar
    15     6     7   ar
    16     7    23    1
    17    23    24    2
    18    23    25   am
    19    25    27    1
    20    27    28    1
    21    27    29    2
    22    27    30    2
    23     7     8   ar
    24     8     9    1
    25     8    10   ar
    26    10    11   ar
    27    15    16   ar
    28    16    17   ar
    29    17    12   ar
    30    11     1   ar
    31    11     5   ar
    32    25    26    1
@<TRIPOS>MOLECULE
*****
 30 32 0 0 0
SMALL
GASTEIGER

@<TRIPOS>ATOM
      1 C           3.0515   -1.4826   21.0523 C.ar    1  UNL1        0.0202
      2 C           3.3470   -2.2629   19.8058 C.ar    1  UNL1        0.0760
      3 N           4.4033   -3.2764   20.1330 N.ar    1  UNL1       -0.3240
      4 C           4.9980   -4.2695   19.1790 C.3     1  UNL1        0.1305
      5 C           4.7605   -3.1226   21.5817 C.ar    1  UNL1        0.0603
      6 C           5.7386   -3.8487   22.4569 C.ar    1  UNL1        0.0240
      7 C           5.8812   -3.4662   23.9002 C.ar    1  UNL1        0.0837
      8 C           5.0457   -2.3575   24.4684 C.ar    1  UNL1        0.1446
      9 F           5.1884   -1.9751   25.9118 F       1  UNL1       -0.2040
     10 C           4.0677   -1.6314   23.5932 C.ar    1  UNL1        0.0313
     11 C           3.9250   -2.0139   22.1499 C.ar    1  UNL1        0.0195
     12 C           0.0678    1.8645   21.4325 C.ar    1  UNL1        0.2249
     13 C           1.3432    1.9035   22.2210 C.ar    1  UNL1        0.0577
     14 C           2.3377    0.7878   22.0943 C.ar    1  UNL1        0.0064
     15 C           2.0569   -0.3669   21.1791 C.ar    1  UNL1        0.0209
     16 C           0.7814   -0.4059   20.3905 C.ar    1  UNL1        0.1021
     17 N          -0.2131    0.7098   20.5172 N.ar    1  UNL1       -0.2101
     18 O          -0.9268    2.9802   21.5592 O.3     1  UNL1       -0.4602
     19 C          -0.9268    3.8498   22.7815 C.3     1  UNL1        0.2070
     20 C          -0.9485    2.6777   25.1000 C.3     1  UNL1        0.0038
     21 C          -1.6688    3.4156   24.0107 C.3     1  UNL1        0.0438
     22 C          -3.1310    3.7194   24.1505 C.3     1  UNL1        0.0038
     23 C           6.8594   -4.1924   24.7755 C.2     1  UNL1        0.2662
     24 O           8.3181   -4.1980   24.4260 O.2     1  UNL1       -0.2685
     25 N           6.3788   -4.9129   26.0002 N.am    1  UNL1       -0.1851
     26 H           5.4213   -4.9091   26.2296 H       1  UNL1        0.1765
     27 S           7.3568   -5.6390   26.8754 S.O2    1  UNL1        0.0581
     28 C           8.3349   -6.3652   27.7507 C.3     1  UNL1        0.1997
     29 O           7.1400   -6.8913   26.0788 O.2     1  UNL1       -0.1543
     30 O           7.5736   -4.3867   27.6721 O.2     1  UNL1       -0.1543
@<TRIPOS>BOND
     1    20    21    1
     2    21    22    1
     3    21    19    1
     4    19    18    1
     5    18    12    1
     6    12    13   ar
     7    13    14   ar
     8    14    15   ar
     9    15     1    1
    10     1     2   ar
    11     2     3   ar
    12     3     4    1
    13     3     5   ar
    14     5     6   ar
    15     6     7   ar
    16     7    23    1
    17    23    24    2
    18    23    25   am
    19    25    27    1
    20    27    28    1
    21    27    29    2
    22    27    30    2
    23     7     8   ar
    24     8     9    1
    25     8    10   ar
    26    10    11   ar
    27    15    16   ar
    28    16    17   ar
    29    17    12   ar
    30    11     1   ar
    31    11     5   ar
    32    25    26    1
@<TRIPOS>MOLECULE
*****
 30 32 0 0 0
SMALL
GASTEIGER

@<TRIPOS>ATOM
      1 C           1.7861    0.8492   30.0195 C.ar    1  UNL1        0.0202
      2 C           2.6851   -0.3463   30.1316 C.ar    1  UNL1        0.0760
      3 N           3.2790   -0.3520   31.5090 N.ar    1  UNL1       -0.3240
      4 C           4.2368   -1.3708   32.0519 C.3     1  UNL1        0.1305
      5 C           2.7470    0.8398   32.2482 C.ar    1  UNL1        0.0603
      6 C           2.9836    1.3450   33.6406 C.ar    1  UNL1        0.0240
      7 C           2.2974    2.5926   34.1124 C.ar    1  UNL1        0.0837
      8 C           1.3747    3.3350   33.1918 C.ar    1  UNL1        0.1446
      9 F           0.6885    4.5826   33.6637 F       1  UNL1       -0.2040
     10 C           1.1381    2.8298   31.7994 C.ar    1  UNL1        0.0313
     11 C           1.8243    1.5822   31.3276 C.ar    1  UNL1        0.0195
     12 C          -0.6059    2.0293   26.3951 C.ar    1  UNL1        0.2249
     13 C          -1.3039    1.5198   27.6211 C.ar    1  UNL1        0.0577
     14 C          -0.5066    1.1264   28.8292 C.ar    1  UNL1        0.0064
     15 C           0.9887    1.2425   28.8114 C.ar    1  UNL1        0.0209
     16 C           1.6868    1.7521   27.5853 C.ar    1  UNL1        0.1021
     17 N           0.8895    2.1455   26.3772 N.ar    1  UNL1       -0.2101
     18 O          -1.4033    2.4227   25.1870 O.3     1  UNL1       -0.4602
     19 C          -2.1488    3.7242   25.1716 C.3     1  UNL1        0.2070
     20 C          -4.5343    3.3699   24.2052 C.3     1  UNL1        0.0038
     21 C          -3.6381    3.7375   25.3505 C.3     1  UNL1        0.0438
     22 C          -4.2310    4.1184   26.6746 C.3     1  UNL1        0.0038
     23 C           2.5339    3.0978   35.5048 C.2     1  UNL1        0.2662
     24 O           3.0483    4.4903   35.7202 O.2     1  UNL1       -0.2685
     25 N           2.2561    2.2105   36.6819 N.am    1  UNL1       -0.1851
     26 H           1.9186    1.2966   36.5406 H       1  UNL1        0.1765
     27 S           2.4926    2.7157   38.0743 S.O2    1  UNL1        0.0581
     28 C           2.7291    3.2209   39.4668 C.3     1  UNL1        0.1997
     29 O           1.0533    3.1268   38.1696 O.2     1  UNL1       -0.1543
     30 O           3.9320    2.3046   37.9790 O.2     1  UNL1       -0.1543
@<TRIPOS>BOND
     1    20    21    1
     2    21    22    1
     3    21    19    1
     4    19    18    1
     5    18    12    1
     6    12    13   ar
     7    13    14   ar
     8    14    15   ar
     9    15     1    1
    10     1     2   ar
    11     2     3   ar
    12     3     4    1
    13     3     5   ar
    14     5     6   ar
    15     6     7   ar
    16     7    23    1
    17    23    24    2
    18    23    25   am
    19    25    27    1
    20    27    28    1
    21    27    29    2
    22    27    30    2
    23     7     8   ar
    24     8     9    1
    25     8    10   ar
    26    10    11   ar
    27    15    16   ar
    28    16    17   ar
    29    17    12   ar
    30    11     1   ar
    31    11     5   ar
    32    25    26    1
@<TRIPOS>MOLECULE
*****
 30 32 0 0 0
SMALL
GASTEIGER

@<TRIPOS>ATOM
      1 C           7.4026   -4.3690   25.2780 C.ar    1  UNL1        0.0202
      2 C           8.5673   -5.1041   24.6837 C.ar    1  UNL1        0.0760
      3 N           8.4324   -5.0563   23.1905 N.ar    1  UNL1       -0.3240
      4 C           9.3793   -5.6660   22.1997 C.3     1  UNL1        0.1305
      5 C           7.1844   -4.2918   22.8620 C.ar    1  UNL1        0.0603
      6 C           6.5453   -3.9275   21.5548 C.ar    1  UNL1        0.0240
      7 C           5.2698   -3.1385   21.5377 C.ar    1  UNL1        0.0837
      8 C           4.6333   -2.7137   22.8279 C.ar    1  UNL1        0.1446
      9 F           3.3576   -1.9246   22.8108 F       1  UNL1       -0.2040
     10 C           5.2724   -3.0780   24.1351 C.ar    1  UNL1        0.0313
     11 C           6.5479   -3.8670   24.1521 C.ar    1  UNL1        0.0195
     12 C           6.6114   -3.7745   29.6678 C.ar    1  UNL1        0.2249
     13 C           6.9255   -2.5951   28.7959 C.ar    1  UNL1        0.0577
     14 C           7.1892   -2.7933   27.3326 C.ar    1  UNL1        0.0064
     15 C           7.1389   -4.1708   26.7412 C.ar    1  UNL1        0.0209
     16 C           6.8247   -5.3503   27.6132 C.ar    1  UNL1        0.1021
     17 N           6.5610   -5.1521   29.0765 N.ar    1  UNL1       -0.2101
     18 O           6.3476   -3.5763   31.1311 O.3     1  UNL1       -0.4602
     19 C           6.4714   -2.2098   31.7372 C.3     1  UNL1        0.2070
     20 C           6.1670   -0.7596   33.8712 C.3     1  UNL1        0.0038
     21 C           5.6949   -1.8644   32.9732 C.3     1  UNL1        0.0438
     22 C           4.4464   -2.6239   33.3112 C.3     1  UNL1        0.0038
     23 C           4.6306   -2.7741   20.2305 C.2     1  UNL1        0.2662
     24 O           3.5126   -3.6111   19.6833 O.2     1  UNL1       -0.2685
     25 N           5.1095   -1.5729   19.4705 N.am    1  UNL1       -0.1851
     26 H           5.8433   -1.0235   19.8297 H       1  UNL1        0.1765
     27 S           4.4704   -1.2085   18.1633 S.O2    1  UNL1        0.0581
     28 C           3.8313   -0.8442   16.8561 C.3     1  UNL1        0.1997
     29 O           5.4810   -2.0451   17.4361 O.2     1  UNL1       -0.1543
     30 O           3.4599   -0.3720   18.8906 O.2     1  UNL1       -0.1543
@<TRIPOS>BOND
     1    20    21    1
     2    21    22    1
     3    21    19    1
     4    19    18    1
     5    18    12    1
     6    12    13   ar
     7    13    14   ar
     8    14    15   ar
     9    15     1    1
    10     1     2   ar
    11     2     3   ar
    12     3     4    1
    13     3     5   ar
    14     5     6   ar
    15     6     7   ar
    16     7    23    1
    17    23    24    2
    18    23    25   am
    19    25    27    1
    20    27    28    1
    21    27    29    2
    22    27    30    2
    23     7     8   ar
    24     8     9    1
    25     8    10   ar
    26    10    11   ar
    27    15    16   ar
    28    16    17   ar
    29    17    12   ar
    30    11     1   ar
    31    11     5   ar
    32    25    26    1
@<TRIPOS>MOLECULE
*****
 30 32 0 0 0
SMALL
GASTEIGER

@<TRIPOS>ATOM
      1 C          -0.1033    2.7443   19.0864 C.ar    1  UNL1        0.0202
      2 C          -0.3902    3.3434   17.7415 C.ar    1  UNL1        0.0760
      3 N          -1.6162    4.1985   17.8671 N.ar    1  UNL1       -0.3240
      4 C          -2.2587    4.9860   16.7639 C.3     1  UNL1        0.1305
      5 C          -2.0869    4.1279   19.2896 C.ar    1  UNL1        0.0603
      6 C          -3.2462    4.7658   19.9960 C.ar    1  UNL1        0.0240
      7 C          -3.4704    4.5050   21.4561 C.ar    1  UNL1        0.0837
      8 C          -2.5353    3.6062   22.2096 C.ar    1  UNL1        0.1446
      9 F          -2.7595    3.3454   23.6697 F       1  UNL1       -0.2040
     10 C          -1.3761    2.9683   21.5032 C.ar    1  UNL1        0.0313
     11 C          -1.1519    3.2291   20.0432 C.ar    1  UNL1        0.0195
     12 C           3.3052   -0.0219   20.0769 C.ar    1  UNL1        0.2249
     13 C           1.9092   -0.5601   19.9701 C.ar    1  UNL1        0.0577
     14 C           0.7731    0.3620   19.6399 C.ar    1  UNL1        0.0064
     15 C           1.0329    1.8222   19.4166 C.ar    1  UNL1        0.0209
     16 C           2.4289    2.3606   19.5234 C.ar    1  UNL1        0.1021
     17 N           3.5651    1.4385   19.8536 N.ar    1  UNL1       -0.2101
     18 O           4.4413   -0.9439   20.4071 O.3     1  UNL1       -0.4602
     19 C           4.1994   -2.4195   20.5260 C.3     1  UNL1        0.2070
     20 C           5.2935   -2.9630   18.2331 C.3     1  UNL1        0.0038
     21 C           4.3098   -3.2976   19.3149 C.3     1  UNL1        0.0438
     22 C           3.4364   -4.5101   19.1855 C.3     1  UNL1        0.0038
     23 C          -4.6297    5.1430   22.1626 C.2     1  UNL1        0.2662
     24 O          -4.5956    6.6066   22.4892 O.2     1  UNL1       -0.2685
     25 N          -5.8230    4.3173   22.5424 N.am    1  UNL1       -0.1851
     26 H          -5.8453    3.3567   22.3280 H       1  UNL1        0.1765
     27 S          -6.9822    4.9552   23.2489 S.O2    1  UNL1        0.0581
     28 C          -8.1416    5.5931   23.9554 C.3     1  UNL1        0.1997
     29 O          -7.6199    5.2614   21.9262 O.2     1  UNL1       -0.1543
     30 O          -6.3446    4.6490   24.5716 O.2     1  UNL1       -0.1543
@<TRIPOS>BOND
     1    20    21    1
     2    21    22    1
     3    21    19    1
     4    19    18    1
     5    18    12    1
     6    12    13   ar
     7    13    14   ar
     8    14    15   ar
     9    15     1    1
    10     1     2   ar
    11     2     3   ar
    12     3     4    1
    13     3     5   ar
    14     5     6   ar
    15     6     7   ar
    16     7    23    1
    17    23    24    2
    18    23    25   am
    19    25    27    1
    20    27    28    1
    21    27    29    2
    22    27    30    2
    23     7     8   ar
    24     8     9    1
    25     8    10   ar
    26    10    11   ar
    27    15    16   ar
    28    16    17   ar
    29    17    12   ar
    30    11     1   ar
    31    11     5   ar
    32    25    26    1
@<TRIPOS>MOLECULE
*****
 30 32 0 0 0
SMALL
GASTEIGER

@<TRIPOS>ATOM
      1 C           2.3051    0.4817   23.2155 C.ar    1  UNL1        0.0202
      2 C           2.7587    0.1574   24.6080 C.ar    1  UNL1        0.0760
      3 N           1.8398    0.8524   25.5684 N.ar    1  UNL1       -0.3240
      4 C           1.9270    0.8024   27.0651 C.3     1  UNL1        0.1305
      5 C           0.8182    1.6063   24.7696 C.ar    1  UNL1        0.0603
      6 C          -0.3367    2.4717   25.1784 C.ar    1  UNL1        0.0240
      7 C          -1.2039    3.1080   24.1331 C.ar    1  UNL1        0.0837
      8 C          -0.9164    2.8789   22.6788 C.ar    1  UNL1        0.1446
      9 F          -1.7837    3.5153   21.6334 F       1  UNL1       -0.2040
     10 C           0.2385    2.0135   22.2700 C.ar    1  UNL1        0.0313
     11 C           1.1058    1.3771   23.3153 C.ar    1  UNL1        0.0195
     12 C           4.2081   -0.9757   19.4069 C.ar    1  UNL1        0.2249
     13 C           2.7671   -1.2812   19.6901 C.ar    1  UNL1        0.0577
     14 C           2.1328   -0.7954   20.9596 C.ar    1  UNL1        0.0064
     15 C           2.9394   -0.0041   21.9460 C.ar    1  UNL1        0.0209
     16 C           4.3805    0.3015   21.6628 C.ar    1  UNL1        0.1021
     17 N           5.0148   -0.1844   20.3933 N.ar    1  UNL1       -0.2101
     18 O           4.8424   -1.4615   18.1374 O.3     1  UNL1       -0.4602
     19 C           5.6451   -2.7286   18.1372 C.3     1  UNL1        0.2070
     20 C           6.2469   -3.8551   20.3997 C.3     1  UNL1        0.0038
     21 C           5.3854   -3.7811   19.1740 C.3     1  UNL1        0.0438
     22 C           4.2643   -4.7595   18.9851 C.3     1  UNL1        0.0038
     23 C          -2.3589    3.9735   24.5419 C.2     1  UNL1        0.2662
     24 O          -2.1085    5.3367   25.1153 O.2     1  UNL1       -0.2685
     25 N          -3.7643    3.4757   24.3772 N.am    1  UNL1       -0.1851
     26 H          -3.9287    2.5810   24.0009 H       1  UNL1        0.1765
     27 S          -4.9192    4.3411   24.7860 S.O2    1  UNL1        0.0581
     28 C          -6.0742    5.2066   25.1948 C.3     1  UNL1        0.1997
     29 O          -4.9909    4.9018   23.3967 O.2     1  UNL1       -0.1543
     30 O          -4.8476    3.7804   26.1754 O.2     1  UNL1       -0.1543
@<TRIPOS>BOND
     1    20    21    1
     2    21    22    1
     3    21    19    1
     4    19    18    1
     5    18    12    1
     6    12    13   ar
     7    13    14   ar
     8    14    15   ar
     9    15     1    1
    10     1     2   ar
    11     2     3   ar
    12     3     4    1
    13     3     5   ar
    14     5     6   ar
    15     6     7   ar
    16     7    23    1
    17    23    24    2
    18    23    25   am
    19    25    27    1
    20    27    28    1
    21    27    29    2
    22    27    30    2
    23     7     8   ar
    24     8     9    1
    25     8    10   ar
    26    10    11   ar
    27    15    16   ar
    28    16    17   ar
    29    17    12   ar
    30    11     1   ar
    31    11     5   ar
    32    25    26    1
@<TRIPOS>MOLECULE
*****
 30 32 0 0 0
SMALL
GASTEIGER

@<TRIPOS>ATOM
      1 C          -0.2819    1.9441   25.8028 C.ar    1  UNL1        0.0202
      2 C           0.3320    1.9346   24.4342 C.ar    1  UNL1        0.0760
      3 N          -0.5520    2.7348   23.5241 N.ar    1  UNL1       -0.3240
      4 C          -0.3171    2.9867   22.0642 C.3     1  UNL1        0.1305
      5 C          -1.7122    3.2388   24.3303 C.ar    1  UNL1        0.0603
      6 C          -2.8991    4.0796   23.9639 C.ar    1  UNL1        0.0240
      7 C          -3.9190    4.4318   25.0058 C.ar    1  UNL1        0.0837
      8 C          -3.7521    3.9432   26.4142 C.ar    1  UNL1        0.1446
      9 F          -4.7721    4.2954   27.4561 F       1  UNL1       -0.2040
     10 C          -2.5652    3.1024   26.7805 C.ar    1  UNL1        0.0313
     11 C          -1.5452    2.7502   25.7386 C.ar    1  UNL1        0.0195
     12 C           1.3756   -0.0886   29.4595 C.ar    1  UNL1        0.2249
     13 C           2.2870    0.6847   28.5533 C.ar    1  UNL1        0.0577
     14 C           1.7345    1.3623   27.3344 C.ar    1  UNL1        0.0064
     15 C           0.2707    1.2666   27.0217 C.ar    1  UNL1        0.0209
     16 C          -0.6408    0.4932   27.9279 C.ar    1  UNL1        0.1021
     17 N          -0.0883   -0.1844   29.1468 N.ar    1  UNL1       -0.2101
     18 O           1.9281   -0.7662   30.6783 O.3     1  UNL1       -0.4602
     19 C           3.1772   -0.2449   31.3249 C.3     1  UNL1        0.2070
     20 C           3.9622    0.3298   33.7339 C.3     1  UNL1        0.0038
     21 C           3.0846    0.6141   32.5511 C.3     1  UNL1        0.0438
     22 C           2.1145    1.7573   32.5944 C.3     1  UNL1        0.0038
     23 C          -5.1060    5.2727   24.6395 C.2     1  UNL1        0.2662
     24 O          -4.9064    6.6621   24.1108 O.2     1  UNL1       -0.2685
     25 N          -6.4926    4.7240   24.8019 N.am    1  UNL1       -0.1851
     26 H          -6.6236    3.8121   25.1489 H       1  UNL1        0.1765
     27 S          -7.6795    5.5648   24.4356 S.O2    1  UNL1        0.0581
     28 C          -8.8665    6.4056   24.0693 C.3     1  UNL1        0.1997
     29 O          -7.6603    6.1866   25.8004 O.2     1  UNL1       -0.1543
     30 O          -7.6988    4.9429   23.0707 O.2     1  UNL1       -0.1543
@<TRIPOS>BOND
     1    20    21    1
     2    21    22    1
     3    21    19    1
     4    19    18    1
     5    18    12    1
     6    12    13   ar
     7    13    14   ar
     8    14    15   ar
     9    15     1    1
    10     1     2   ar
    11     2     3   ar
    12     3     4    1
    13     3     5   ar
    14     5     6   ar
    15     6     7   ar
    16     7    23    1
    17    23    24    2
    18    23    25   am
    19    25    27    1
    20    27    28    1
    21    27    29    2
    22    27    30    2
    23     7     8   ar
    24     8     9    1
    25     8    10   ar
    26    10    11   ar
    27    15    16   ar
    28    16    17   ar
    29    17    12   ar
    30    11     1   ar
    31    11     5   ar
    32    25    26    1
