@<TRIPOS>MOLECULE
*****
 21 23 0 0 0
SMALL
GASTEIGER

@<TRIPOS>ATOM
      1 C          -5.4167  -16.0182   24.3545 C.3     1  UNL1        0.0629
      2 C          -5.1497  -15.4667   25.7236 C.3     1  UNL1        0.0247
      3 C          -6.2945  -15.0990   26.6204 C.3     1  UNL1        0.0690
      4 N          -7.7062  -15.2829   26.1481 N.3     1  UNL1       -0.2982
      5 C          -7.9732  -15.8344   24.7789 C.3     1  UNL1        0.0588
      6 C          -6.8284  -16.2021   23.8822 C.3     1  UNL1        0.0237
      7 H          -8.1519  -14.3664   26.1883 H       1  UNL1        0.1232
      8 O          -1.6046  -18.7678   21.9483 O.2     1  UNL1       -0.2645
      9 C          -2.5196  -17.6497   22.3517 C.ar    1  UNL1        0.2884
     10 C          -3.6142  -17.7314   23.3740 C.ar    1  UNL1        0.0986
     11 C          -4.2718  -16.3858   23.4576 C.ar    1  UNL1        0.1547
     12 O          -3.5836  -15.4725   22.4870 O.2     1  UNL1       -0.3802
     13 N          -2.5007  -16.2536   21.8034 N.ar    1  UNL1       -0.1839
     14 H          -1.8856  -15.9102   21.1158 H       1  UNL1        0.2107
     15 C          -9.3850  -16.0183   24.3066 C.3     1  UNL1        0.0420
     16 C          -9.8632  -17.3753   23.8826 C.ar    1  UNL1       -0.0208
     17 C         -10.2836  -17.6124   22.4622 C.ar    1  UNL1       -0.0042
     18 C         -10.7618  -18.9694   22.0382 C.ar    1  UNL1       -0.0003
     19 C         -10.8197  -20.0893   23.0344 C.ar    1  UNL1       -0.0000
     20 C         -10.3995  -19.8523   24.4546 C.ar    1  UNL1       -0.0003
     21 C          -9.9212  -18.4952   24.8787 C.ar    1  UNL1       -0.0042
@<TRIPOS>BOND
     1     8     9    2
     2     9    10   ar
     3    10    11   ar
     4     1    11    1
     5     1     2    1
     6     2     3    1
     7     3     4    1
     8     4     5    1
     9     5    15    1
    10    15    16    1
    11    16    17   ar
    12    17    18   ar
    13    18    19   ar
    14    19    20   ar
    15    20    21   ar
    16     5     6    1
    17    11    12   ar
    18    12    13   ar
    19    13     9   ar
    20     6     1    1
    21    21    16   ar
    22     4     7    1
    23    13    14    1
@<TRIPOS>MOLECULE
*****
 21 23 0 0 0
SMALL
GASTEIGER

@<TRIPOS>ATOM
      1 C          -7.0650  -18.6883   21.3600 C.3     1  UNL1        0.0629
      2 C          -8.1792  -19.4917   20.7575 C.3     1  UNL1        0.0247
      3 C          -9.6025  -19.1946   21.1262 C.3     1  UNL1        0.0690
      4 N          -9.9116  -18.0940   22.0974 N.3     1  UNL1       -0.2982
      5 C          -8.7974  -17.2906   22.6999 C.3     1  UNL1        0.0588
      6 C          -7.3741  -17.5877   22.3312 C.3     1  UNL1        0.0237
      7 H         -10.4203  -18.5195   22.8724 H       1  UNL1        0.1232
      8 O          -2.0296  -20.2543   21.6301 O.2     1  UNL1       -0.2645
      9 C          -3.3271  -19.7053   21.1155 C.ar    1  UNL1        0.2884
     10 C          -4.6040  -19.5849   21.8934 C.ar    1  UNL1        0.0986
     11 C          -5.6417  -18.9854   20.9913 C.ar    1  UNL1        0.1547
     12 O          -5.0062  -18.7353   19.6558 O.2     1  UNL1       -0.3802
     13 N          -3.5757  -19.1801   19.7325 N.ar    1  UNL1       -0.1839
     14 H          -2.9159  -19.1353   19.0033 H       1  UNL1        0.2107
     15 C          -9.1064  -16.1900   23.6710 C.3     1  UNL1        0.0420
     16 C          -8.2209  -15.9696   24.8615 C.ar    1  UNL1       -0.0208
     17 C          -6.8767  -15.3268   24.6876 C.ar    1  UNL1       -0.0042
     18 C          -5.9912  -15.1064   25.8781 C.ar    1  UNL1       -0.0003
     19 C          -6.4497  -15.5288   27.2424 C.ar    1  UNL1       -0.0000
     20 C          -7.7938  -16.1716   27.4163 C.ar    1  UNL1       -0.0003
     21 C          -8.6794  -16.3920   26.2258 C.ar    1  UNL1       -0.0042
@<TRIPOS>BOND
     1     8     9    2
     2     9    10   ar
     3    10    11   ar
     4     1    11    1
     5     1     2    1
     6     2     3    1
     7     3     4    1
     8     4     5    1
     9     5    15    1
    10    15    16    1
    11    16    17   ar
    12    17    18   ar
    13    18    19   ar
    14    19    20   ar
    15    20    21   ar
    16     5     6    1
    17    11    12   ar
    18    12    13   ar
    19    13     9   ar
    20     6     1    1
    21    21    16   ar
    22     4     7    1
    23    13    14    1
@<TRIPOS>MOLECULE
*****
 21 23 0 0 0
SMALL
GASTEIGER

@<TRIPOS>ATOM
      1 C          -8.1090  -17.6194   22.1496 C.3     1  UNL1        0.0629
      2 C          -9.3839  -17.9071   21.4136 C.3     1  UNL1        0.0247
      3 C          -9.4175  -18.9751   20.3609 C.3     1  UNL1        0.0690
      4 N          -8.1761  -19.7555   20.0443 N.3     1  UNL1       -0.2982
      5 C          -6.9012  -19.4677   20.7803 C.3     1  UNL1        0.0588
      6 C          -6.8676  -18.3997   21.8330 C.3     1  UNL1        0.0237
      7 H          -7.9828  -19.6117   19.0532 H       1  UNL1        0.1232
      8 O          -8.6008  -15.0980   26.7628 O.2     1  UNL1       -0.2645
      9 C          -8.3014  -15.3924   25.3228 C.ar    1  UNL1        0.2884
     10 C          -8.5051  -16.7076   24.6309 C.ar    1  UNL1        0.0986
     11 C          -8.0753  -16.5513   23.2023 C.ar    1  UNL1        0.1547
     12 O          -7.6060  -15.1395   23.0113 O.2     1  UNL1       -0.3802
     13 N          -7.7457  -14.4232   24.3217 N.ar    1  UNL1       -0.1839
     14 H          -7.5135  -13.4822   24.4945 H       1  UNL1        0.2107
     15 C          -5.6599  -20.2481   20.4637 C.3     1  UNL1        0.0420
     16 C          -4.3184  -19.5797   20.5228 C.ar    1  UNL1       -0.0208
     17 C          -3.4740  -19.7004   21.7567 C.ar    1  UNL1       -0.0042
     18 C          -2.1324  -19.0321   21.8157 C.ar    1  UNL1       -0.0003
     19 C          -1.6353  -18.2429   20.6410 C.ar    1  UNL1       -0.0000
     20 C          -2.4796  -18.1222   19.4071 C.ar    1  UNL1       -0.0003
     21 C          -3.8212  -18.7906   19.3480 C.ar    1  UNL1       -0.0042
@<TRIPOS>BOND
     1     8     9    2
     2     9    10   ar
     3    10    11   ar
     4     1    11    1
     5     1     2    1
     6     2     3    1
     7     3     4    1
     8     4     5    1
     9     5    15    1
    10    15    16    1
    11    16    17   ar
    12    17    18   ar
    13    18    19   ar
    14    19    20   ar
    15    20    21   ar
    16     5     6    1
    17    11    12   ar
    18    12    13   ar
    19    13     9   ar
    20     6     1    1
    21    21    16   ar
    22     4     7    1
    23    13    14    1
@<TRIPOS>MOLECULE
*****
 21 23 0 0 0
SMALL
GASTEIGER

@<TRIPOS>ATOM
      1 C          -9.1764  -17.6149   22.6588 C.3     1  UNL1        0.0629
      2 C          -8.5318  -16.4288   23.3126 C.3     1  UNL1        0.0247
      3 C          -7.0366  -16.3263   23.3731 C.3     1  UNL1        0.0690
      4 N          -6.1859  -17.4099   22.7797 N.3     1  UNL1       -0.2982
      5 C          -6.8305  -18.5961   22.1259 C.3     1  UNL1        0.0588
      6 C          -8.3257  -18.6985   22.0654 C.3     1  UNL1        0.0237
      7 H          -5.6009  -17.7709   23.5333 H       1  UNL1        0.1232
      8 O         -14.2339  -18.1608   24.0747 O.2     1  UNL1       -0.2645
      9 C         -12.9964  -17.9683   23.2492 C.ar    1  UNL1        0.2884
     10 C         -11.5890  -17.9284   23.7663 C.ar    1  UNL1        0.0986
     11 C         -10.6717  -17.7174   22.5983 C.ar    1  UNL1        0.1547
     12 O         -11.5123  -17.6270   21.3593 O.2     1  UNL1       -0.3802
     13 N         -12.9490  -17.7821   21.7615 N.ar    1  UNL1       -0.1839
     14 H         -13.7247  -17.7647   21.1555 H       1  UNL1        0.2107
     15 C          -5.9799  -19.6797   21.5325 C.3     1  UNL1        0.0420
     16 C          -4.5682  -19.3841   21.1204 C.ar    1  UNL1       -0.0208
     17 C          -4.2663  -18.9954   19.7034 C.ar    1  UNL1       -0.0042
     18 C          -2.8547  -18.6998   19.2913 C.ar    1  UNL1       -0.0003
     19 C          -1.7449  -18.7929   20.2961 C.ar    1  UNL1       -0.0000
     20 C          -2.0467  -19.1815   21.7131 C.ar    1  UNL1       -0.0003
     21 C          -3.4584  -19.4772   22.1252 C.ar    1  UNL1       -0.0042
@<TRIPOS>BOND
     1     8     9    2
     2     9    10   ar
     3    10    11   ar
     4     1    11    1
     5     1     2    1
     6     2     3    1
     7     3     4    1
     8     4     5    1
     9     5    15    1
    10    15    16    1
    11    16    17   ar
    12    17    18   ar
    13    18    19   ar
    14    19    20   ar
    15    20    21   ar
    16     5     6    1
    17    11    12   ar
    18    12    13   ar
    19    13     9   ar
    20     6     1    1
    21    21    16   ar
    22     4     7    1
    23    13    14    1
@<TRIPOS>MOLECULE
*****
 21 23 0 0 0
SMALL
GASTEIGER

@<TRIPOS>ATOM
      1 C          -5.8879  -19.0373   21.1301 C.3     1  UNL1        0.0629
      2 C          -6.6619  -19.6341   19.9923 C.3     1  UNL1        0.0247
      3 C          -8.1579  -19.5284   19.9659 C.3     1  UNL1        0.0690
      4 N          -8.8799  -18.8259   21.0774 N.3     1  UNL1       -0.2982
      5 C          -8.1058  -18.2291   22.2152 C.3     1  UNL1        0.0588
      6 C          -6.6098  -18.3348   22.2415 C.3     1  UNL1        0.0237
      7 H          -9.5253  -19.5032   21.4836 H       1  UNL1        0.1232
      8 O          -0.8123  -18.8236   19.6899 O.2     1  UNL1       -0.2645
      9 C          -2.0588  -19.0447   20.4945 C.ar    1  UNL1        0.2884
     10 C          -3.4626  -18.7831   20.0352 C.ar    1  UNL1        0.0986
     11 C          -4.3918  -19.1429   21.1565 C.ar    1  UNL1        0.1547
     12 O          -3.5623  -19.6270   22.3087 O.2     1  UNL1       -0.3802
     13 N          -2.1204  -19.5663   21.8996 N.ar    1  UNL1       -0.1839
     14 H          -1.3498  -19.8236   22.4556 H       1  UNL1        0.2107
     15 C          -8.8278  -17.5266   23.3266 C.3     1  UNL1        0.0420
     16 C         -10.3270  -17.5374   23.3718 C.ar    1  UNL1       -0.0208
     17 C         -11.1081  -16.5181   22.5966 C.ar    1  UNL1       -0.0042
     18 C         -12.6074  -16.5289   22.6418 C.ar    1  UNL1       -0.0003
     19 C         -13.3256  -17.5590   23.4621 C.ar    1  UNL1       -0.0000
     20 C         -12.5446  -18.5783   24.2373 C.ar    1  UNL1       -0.0003
     21 C         -11.0452  -18.5676   24.1921 C.ar    1  UNL1       -0.0042
@<TRIPOS>BOND
     1     8     9    2
     2     9    10   ar
     3    10    11   ar
     4     1    11    1
     5     1     2    1
     6     2     3    1
     7     3     4    1
     8     4     5    1
     9     5    15    1
    10    15    16    1
    11    16    17   ar
    12    17    18   ar
    13    18    19   ar
    14    19    20   ar
    15    20    21   ar
    16     5     6    1
    17    11    12   ar
    18    12    13   ar
    19    13     9   ar
    20     6     1    1
    21    21    16   ar
    22     4     7    1
    23    13    14    1
@<TRIPOS>MOLECULE
*****
 21 23 0 0 0
SMALL
GASTEIGER

@<TRIPOS>ATOM
      1 C          -9.2031  -19.2776   21.9265 C.3     1  UNL1        0.0629
      2 C          -9.4748  -19.2962   20.4515 C.3     1  UNL1        0.0247
      3 C          -8.3536  -19.5404   19.4855 C.3     1  UNL1        0.0690
      4 N          -6.9608  -19.7660   19.9944 N.3     1  UNL1       -0.2982
      5 C          -6.6891  -19.7475   21.4695 C.3     1  UNL1        0.0588
      6 C          -7.8103  -19.5032   22.4355 C.3     1  UNL1        0.0237
      7 H          -6.3743  -19.0429   19.5779 H       1  UNL1        0.1232
      8 O         -13.8700  -17.8599   23.9492 O.2     1  UNL1       -0.2645
      9 C         -12.4695  -18.3817   23.8224 C.ar    1  UNL1        0.2884
     10 C         -11.6626  -18.4436   22.5594 C.ar    1  UNL1        0.0986
     11 C         -10.3243  -19.0334   22.8927 C.ar    1  UNL1        0.1547
     12 O         -10.3040  -19.3361   24.3617 O.2     1  UNL1       -0.3802
     13 N         -11.6298  -18.9334   24.9363 N.ar    1  UNL1       -0.1839
     14 H         -11.9012  -19.0165   25.8790 H       1  UNL1        0.2107
     15 C          -5.2963  -19.9731   21.9785 C.3     1  UNL1        0.0420
     16 C          -4.2161  -18.9778   21.6741 C.ar    1  UNL1       -0.0208
     17 C          -3.7576  -18.0208   22.7344 C.ar    1  UNL1       -0.0042
     18 C          -2.6775  -17.0255   22.4300 C.ar    1  UNL1       -0.0003
     19 C          -2.0558  -16.9872   21.0655 C.ar    1  UNL1       -0.0000
     20 C          -2.5142  -17.9441   20.0053 C.ar    1  UNL1       -0.0003
     21 C          -3.5944  -18.9395   20.3096 C.ar    1  UNL1       -0.0042
@<TRIPOS>BOND
     1     8     9    2
     2     9    10   ar
     3    10    11   ar
     4     1    11    1
     5     1     2    1
     6     2     3    1
     7     3     4    1
     8     4     5    1
     9     5    15    1
    10    15    16    1
    11    16    17   ar
    12    17    18   ar
    13    18    19   ar
    14    19    20   ar
    15    20    21   ar
    16     5     6    1
    17    11    12   ar
    18    12    13   ar
    19    13     9   ar
    20     6     1    1
    21    21    16   ar
    22     4     7    1
    23    13    14    1
@<TRIPOS>MOLECULE
*****
 21 23 0 0 0
SMALL
GASTEIGER

@<TRIPOS>ATOM
      1 C          -7.0960  -15.9256   23.5035 C.3     1  UNL1        0.0629
      2 C          -7.0468  -15.1075   24.7598 C.3     1  UNL1        0.0247
      3 C          -5.8592  -15.2031   25.6710 C.3     1  UNL1        0.0690
      4 N          -4.7208  -16.1169   25.3259 N.3     1  UNL1       -0.2982
      5 C          -4.7700  -16.9349   24.0696 C.3     1  UNL1        0.0588
      6 C          -5.9576  -16.8393   23.1584 C.3     1  UNL1        0.0237
      7 H          -4.6244  -16.7729   26.1009 H       1  UNL1        0.1232
      8 O         -11.9104  -16.5967   21.4414 O.2     1  UNL1       -0.2645
      9 C         -10.4967  -16.1385   21.6444 C.ar    1  UNL1        0.2884
     10 C          -9.6053  -16.5109   22.7918 C.ar    1  UNL1        0.0986
     11 C          -8.2837  -15.8300   22.5922 C.ar    1  UNL1        0.1547
     12 O          -8.3584  -15.0366   21.3214 O.2     1  UNL1       -0.3802
     13 N          -9.7260  -15.2273   20.7356 N.ar    1  UNL1       -0.1839
     14 H         -10.0593  -14.8250   19.9011 H       1  UNL1        0.2107
     15 C          -3.6315  -17.8486   23.7245 C.3     1  UNL1        0.0420
     16 C          -3.1888  -17.9897   22.2983 C.ar    1  UNL1       -0.0208
     17 C          -2.2859  -16.9590   21.6878 C.ar    1  UNL1       -0.0042
     18 C          -1.8432  -17.1000   20.2616 C.ar    1  UNL1       -0.0003
     19 C          -2.3034  -18.2717   19.4459 C.ar    1  UNL1       -0.0000
     20 C          -3.2062  -19.3023   20.0563 C.ar    1  UNL1       -0.0003
     21 C          -3.6489  -19.1613   21.4825 C.ar    1  UNL1       -0.0042
@<TRIPOS>BOND
     1     8     9    2
     2     9    10   ar
     3    10    11   ar
     4     1    11    1
     5     1     2    1
     6     2     3    1
     7     3     4    1
     8     4     5    1
     9     5    15    1
    10    15    16    1
    11    16    17   ar
    12    17    18   ar
    13    18    19   ar
    14    19    20   ar
    15    20    21   ar
    16     5     6    1
    17    11    12   ar
    18    12    13   ar
    19    13     9   ar
    20     6     1    1
    21    21    16   ar
    22     4     7    1
    23    13    14    1
@<TRIPOS>MOLECULE
*****
 21 23 0 0 0
SMALL
GASTEIGER

@<TRIPOS>ATOM
      1 C          -8.3721  -18.4968   21.4800 C.3     1  UNL1        0.0629
      2 C          -8.4787  -19.3719   20.2664 C.3     1  UNL1        0.0247
      3 C          -7.2810  -20.1363   19.7855 C.3     1  UNL1        0.0690
      4 N          -5.9768  -20.0254   20.5181 N.3     1  UNL1       -0.2982
      5 C          -5.8702  -19.1503   21.7317 C.3     1  UNL1        0.0588
      6 C          -7.0679  -18.3859   22.2126 C.3     1  UNL1        0.0237
      7 H          -5.2900  -19.6824   19.8465 H       1  UNL1        0.1232
      8 O         -13.1855  -17.3397   23.3169 O.2     1  UNL1       -0.2645
      9 C         -11.7823  -17.2006   22.8053 C.ar    1  UNL1        0.2884
     10 C         -10.8715  -18.3257   22.4123 C.ar    1  UNL1        0.0986
     11 C          -9.5698  -17.7324   21.9609 C.ar    1  UNL1        0.1547
     12 O          -9.6762  -16.2405   22.0751 O.2     1  UNL1       -0.3802
     13 N         -11.0435  -15.9118   22.5969 N.ar    1  UNL1       -0.1839
     14 H         -11.3944  -15.0088   22.7719 H       1  UNL1        0.2107
     15 C          -4.5660  -19.0395   22.4643 C.3     1  UNL1        0.0420
     16 C          -3.3927  -18.3721   21.8102 C.ar    1  UNL1       -0.0208
     17 C          -2.6450  -19.0739   20.7154 C.ar    1  UNL1       -0.0042
     18 C          -1.4717  -18.4065   20.0613 C.ar    1  UNL1       -0.0003
     19 C          -1.0461  -17.0372   20.5019 C.ar    1  UNL1       -0.0000
     20 C          -1.7937  -16.3354   21.5966 C.ar    1  UNL1       -0.0003
     21 C          -2.9671  -17.0028   22.2508 C.ar    1  UNL1       -0.0042
@<TRIPOS>BOND
     1     8     9    2
     2     9    10   ar
     3    10    11   ar
     4     1    11    1
     5     1     2    1
     6     2     3    1
     7     3     4    1
     8     4     5    1
     9     5    15    1
    10    15    16    1
    11    16    17   ar
    12    17    18   ar
    13    18    19   ar
    14    19    20   ar
    15    20    21   ar
    16     5     6    1
    17    11    12   ar
    18    12    13   ar
    19    13     9   ar
    20     6     1    1
    21    21    16   ar
    22     4     7    1
    23    13    14    1
@<TRIPOS>MOLECULE
*****
 21 23 0 0 0
SMALL
GASTEIGER

@<TRIPOS>ATOM
      1 C          -4.3242  -19.0833   21.0314 C.3     1  UNL1        0.0629
      2 C          -4.3848  -20.3192   20.1836 C.3     1  UNL1        0.0247
      3 C          -5.6246  -21.1635   20.1762 C.3     1  UNL1        0.0690
      4 N          -6.8037  -20.7718   21.0165 N.3     1  UNL1       -0.2982
      5 C          -6.7431  -19.5359   21.8643 C.3     1  UNL1        0.0588
      6 C          -5.5033  -18.6916   21.8717 C.3     1  UNL1        0.0237
      7 H          -6.9885  -21.5523   21.6466 H       1  UNL1        0.1232
      8 O           0.5456  -17.3035   20.0318 O.2     1  UNL1       -0.2645
      9 C          -0.8459  -17.4209   20.5794 C.ar    1  UNL1        0.2884
     10 C          -1.8208  -18.5212   20.2812 C.ar    1  UNL1        0.0986
     11 C          -3.0843  -18.2390   21.0389 C.ar    1  UNL1        0.1547
     12 O          -2.8903  -16.9642   21.8053 O.2     1  UNL1       -0.3802
     13 N          -1.5069  -16.4586   21.5213 N.ar    1  UNL1       -0.1839
     14 H          -1.1036  -15.6391   21.8886 H       1  UNL1        0.2107
     15 C          -7.9223  -19.1442   22.7046 C.3     1  UNL1        0.0420
     16 C          -9.1546  -18.5882   22.0550 C.ar    1  UNL1       -0.0208
     17 C         -10.2067  -19.5165   21.5245 C.ar    1  UNL1       -0.0042
     18 C         -11.4391  -18.9605   20.8748 C.ar    1  UNL1       -0.0003
     19 C         -11.6194  -17.4761   20.7557 C.ar    1  UNL1       -0.0000
     20 C         -10.5674  -16.5478   21.2862 C.ar    1  UNL1       -0.0003
     21 C          -9.3350  -17.1038   21.9359 C.ar    1  UNL1       -0.0042
@<TRIPOS>BOND
     1     8     9    2
     2     9    10   ar
     3    10    11   ar
     4     1    11    1
     5     1     2    1
     6     2     3    1
     7     3     4    1
     8     4     5    1
     9     5    15    1
    10    15    16    1
    11    16    17   ar
    12    17    18   ar
    13    18    19   ar
    14    19    20   ar
    15    20    21   ar
    16     5     6    1
    17    11    12   ar
    18    12    13   ar
    19    13     9   ar
    20     6     1    1
    21    21    16   ar
    22     4     7    1
    23    13    14    1
