@<TRIPOS>MOLECULE
*****
 32 35 0 0 0
SMALL
GASTEIGER

@<TRIPOS>ATOM
      1 C          -8.9465  -18.7026   20.6976 C.ar    1  UNL1        0.0678
      2 C          -9.6561  -19.2787   19.5083 C.ar    1  UNL1        0.0055
      3 C          -8.9714  -20.2989   18.6479 C.ar    1  UNL1        0.0016
      4 C          -7.5770  -20.7431   18.9769 C.ar    1  UNL1        0.0181
      5 C          -6.8673  -20.1670   20.1662 C.ar    1  UNL1        0.0922
      6 C          -7.5520  -19.1467   21.0266 C.ar    1  UNL1        0.1576
      7 F          -6.8422  -18.5707   22.2159 F       1  UNL1       -0.2027
      8 C          -9.6312  -17.6823   21.5579 C.2     1  UNL1        0.2014
      9 O         -10.0015  -16.3459   20.9861 O.2     1  UNL1       -0.2864
     10 C          -7.5026  -16.2140   25.6846 C.2     1  UNL1        0.0974
     11 C          -8.1534  -16.7838   26.9100 C.2     1  UNL1        0.2421
     12 N          -9.3322  -17.7015   26.7753 N.2     1  UNL1       -0.0304
     13 C          -9.8603  -18.0494   25.4152 C.2     1  UNL1        0.3721
     14 N         -10.9986  -18.9204   24.9730 N.2     1  UNL1       -0.0307
     15 C         -11.0514  -18.8889   23.4742 C.2     1  UNL1        0.2390
     16 C          -9.9456  -17.9984   22.9901 C.2     1  UNL1        0.0895
     17 C          -9.2095  -17.4796   24.1897 C.2     1  UNL1        0.0782
     18 C          -8.0306  -16.5619   24.3245 C.3     1  UNL1        0.0751
     19 N          -5.1448  -14.3787   25.9541 N.1     1  UNL1       -0.1910
     20 C          -6.3237  -15.2964   25.8193 C.1     1  UNL1        0.1003
     21 N          -5.4728  -20.6112   20.4952 N.pl3   1  UNL1       -0.2127
     22 H          -5.2909  -21.5592   20.6886 H       1  UNL1        0.1738
     23 S          -4.3555  -19.6110   20.5294 S.O2    1  UNL1        0.0758
     24 O          -5.0493  -18.7998   19.4757 O.2     1  UNL1       -0.1499
     25 O          -3.6616  -20.4222   21.5831 O.2     1  UNL1       -0.1499
     26 C          -3.2381  -18.6108   20.5637 C.ar    1  UNL1        0.1524
     27 C          -2.2568  -18.5436   19.4312 C.ar    1  UNL1        0.0225
     28 C          -1.1394  -17.5435   19.4654 C.ar    1  UNL1        0.0015
     29 C          -1.0033  -16.6105   20.6321 C.ar    1  UNL1        0.0024
     30 C          -1.9847  -16.6777   21.7645 C.ar    1  UNL1        0.0310
     31 C          -3.1020  -17.6779   21.7303 C.ar    1  UNL1        0.1589
     32 F          -4.0834  -17.7451   22.8627 F       1  UNL1       -0.2027
@<TRIPOS>BOND
     1    19    20    3
     2    20    10    1
     3    10    11    2
     4    11    12    1
     5    12    13    2
     6    13    14    1
     7    14    15    2
     8    15    16    1
     9    16     8    1
    10     8     9    2
    11     8     1    1
    12     1     2   ar
    13     2     3   ar
    14     3     4   ar
    15     4     5   ar
    16     5    21    1
    17    21    23    1
    18    23    24    2
    19    23    25    2
    20    23    26    1
    21    26    27   ar
    22    27    28   ar
    23    28    29   ar
    24    29    30   ar
    25    30    31   ar
    26    31    32    1
    27     5     6   ar
    28     6     7    1
    29    16    17    2
    30    17    18    1
    31    18    10    1
    32    17    13    1
    33     6     1   ar
    34    31    26   ar
    35    21    22    1
@<TRIPOS>MOLECULE
*****
 32 35 0 0 0
SMALL
GASTEIGER

@<TRIPOS>ATOM
      1 C          -4.8466  -19.5232   20.5177 C.ar    1  UNL1        0.0678
      2 C          -3.9000  -19.4018   19.3605 C.ar    1  UNL1        0.0055
      3 C          -2.7117  -18.4914   19.4557 C.ar    1  UNL1        0.0016
      4 C          -2.4699  -17.7023   20.7082 C.ar    1  UNL1        0.0181
      5 C          -3.4165  -17.8236   21.8655 C.ar    1  UNL1        0.0922
      6 C          -4.6048  -18.7340   21.7703 C.ar    1  UNL1        0.1576
      7 F          -5.5513  -18.8553   22.9276 F       1  UNL1       -0.2027
      8 C          -6.0349  -20.4336   20.4225 C.2     1  UNL1        0.2014
      9 O          -5.8793  -21.9007   20.6934 O.2     1  UNL1       -0.2864
     10 C          -9.6429  -18.7279   23.2134 C.2     1  UNL1        0.0974
     11 C         -10.8260  -18.2644   22.4164 C.2     1  UNL1        0.2421
     12 N         -10.8048  -18.3572   20.9195 N.2     1  UNL1       -0.0304
     13 C          -9.6005  -18.9136   20.2195 C.2     1  UNL1        0.3721
     14 N          -9.2932  -19.1268   18.7669 N.2     1  UNL1       -0.0307
     15 C          -7.9200  -19.7222   18.6661 C.2     1  UNL1        0.2390
     16 C          -7.3787  -19.8769   20.0565 C.2     1  UNL1        0.0895
     17 C          -8.4174  -19.3771   21.0165 C.2     1  UNL1        0.0782
     18 C          -8.4386  -19.2843   22.5135 C.3     1  UNL1        0.0751
     19 N          -9.6853  -18.5423   26.2074 N.1     1  UNL1       -0.1910
     20 C          -9.6641  -18.6351   24.7104 C.1     1  UNL1        0.1003
     21 N          -3.1748  -17.0345   23.1180 N.pl3   1  UNL1       -0.2127
     22 H          -2.2549  -16.8138   23.3909 H       1  UNL1        0.1738
     23 S          -4.3344  -16.5816   23.9547 S.O2    1  UNL1        0.0758
     24 O          -4.5744  -15.4443   23.0067 O.2     1  UNL1       -0.1499
     25 O          -4.0944  -17.7189   24.9029 O.2     1  UNL1       -0.1499
     26 C          -5.4941  -16.1287   24.7916 C.ar    1  UNL1        0.1524
     27 C          -5.2873  -15.7869   26.2374 C.ar    1  UNL1        0.0225
     28 C          -6.4469  -15.3341   27.0742 C.ar    1  UNL1        0.0015
     29 C          -7.8132  -15.2231   26.4652 C.ar    1  UNL1        0.0024
     30 C          -8.0200  -15.5649   25.0194 C.ar    1  UNL1        0.0310
     31 C          -6.8604  -16.0177   24.1826 C.ar    1  UNL1        0.1589
     32 F          -7.0670  -16.3596   22.7368 F       1  UNL1       -0.2027
@<TRIPOS>BOND
     1    19    20    3
     2    20    10    1
     3    10    11    2
     4    11    12    1
     5    12    13    2
     6    13    14    1
     7    14    15    2
     8    15    16    1
     9    16     8    1
    10     8     9    2
    11     8     1    1
    12     1     2   ar
    13     2     3   ar
    14     3     4   ar
    15     4     5   ar
    16     5    21    1
    17    21    23    1
    18    23    24    2
    19    23    25    2
    20    23    26    1
    21    26    27   ar
    22    27    28   ar
    23    28    29   ar
    24    29    30   ar
    25    30    31   ar
    26    31    32    1
    27     5     6   ar
    28     6     7    1
    29    16    17    2
    30    17    18    1
    31    18    10    1
    32    17    13    1
    33     6     1   ar
    34    31    26   ar
    35    21    22    1
@<TRIPOS>MOLECULE
*****
 32 35 0 0 0
SMALL
GASTEIGER

@<TRIPOS>ATOM
      1 C          -8.4413  -16.8529   25.4598 C.ar    1  UNL1        0.0678
      2 C          -8.6488  -16.2949   26.8366 C.ar    1  UNL1        0.0055
      3 C          -7.6317  -15.3661   27.4306 C.ar    1  UNL1        0.0016
      4 C          -6.4070  -14.9953   26.6478 C.ar    1  UNL1        0.0181
      5 C          -6.1996  -15.5534   25.2710 C.ar    1  UNL1        0.0922
      6 C          -7.2167  -16.4822   24.6770 C.ar    1  UNL1        0.1576
      7 F          -7.0091  -17.0401   23.3002 F       1  UNL1       -0.2027
      8 C          -9.4584  -17.7817   24.8658 C.2     1  UNL1        0.2014
      9 O          -9.9519  -18.9577   25.6555 O.2     1  UNL1       -0.2864
     10 C          -8.0571  -19.5792   20.5622 C.2     1  UNL1        0.0974
     11 C          -8.8713  -19.0519   19.4180 C.2     1  UNL1        0.2421
     12 N          -9.9809  -18.0757   19.6743 N.2     1  UNL1       -0.0304
     13 C         -10.2764  -17.6268   21.0747 C.2     1  UNL1        0.3721
     14 N         -11.2995  -16.6813   21.6308 N.2     1  UNL1       -0.0307
     15 C         -11.1176  -16.6242   23.1187 C.2     1  UNL1        0.2390
     16 C          -9.9821  -17.5344   23.4821 C.2     1  UNL1        0.0895
     17 C          -9.4622  -18.1541   22.2188 C.2     1  UNL1        0.0782
     18 C          -8.3525  -19.1303   21.9625 C.3     1  UNL1        0.0751
     19 N          -5.8378  -21.5317   20.0496 N.1     1  UNL1       -0.1910
     20 C          -6.9474  -20.5555   20.3059 C.1     1  UNL1        0.1003
     21 N          -4.9749  -15.1826   24.4882 N.pl3   1  UNL1       -0.2127
     22 H          -4.6249  -14.2633   24.5280 H       1  UNL1        0.1738
     23 S          -4.2835  -16.2125   23.6448 S.O2    1  UNL1        0.0758
     24 O          -4.2004  -17.1276   24.8303 O.2     1  UNL1       -0.1499
     25 O          -4.3666  -15.2973   22.4592 O.2     1  UNL1       -0.1499
     26 C          -3.5921  -17.2423   22.8014 C.ar    1  UNL1        0.1524
     27 C          -4.1142  -18.6478   22.7558 C.ar    1  UNL1        0.0225
     28 C          -3.4228  -19.6777   21.9123 C.ar    1  UNL1        0.0015
     29 C          -2.2094  -19.3021   21.1145 C.ar    1  UNL1        0.0024
     30 C          -1.6873  -17.8967   21.1601 C.ar    1  UNL1        0.0310
     31 C          -2.3786  -16.8668   22.0036 C.ar    1  UNL1        0.1589
     32 F          -1.8566  -15.4613   22.0492 F       1  UNL1       -0.2027
@<TRIPOS>BOND
     1    19    20    3
     2    20    10    1
     3    10    11    2
     4    11    12    1
     5    12    13    2
     6    13    14    1
     7    14    15    2
     8    15    16    1
     9    16     8    1
    10     8     9    2
    11     8     1    1
    12     1     2   ar
    13     2     3   ar
    14     3     4   ar
    15     4     5   ar
    16     5    21    1
    17    21    23    1
    18    23    24    2
    19    23    25    2
    20    23    26    1
    21    26    27   ar
    22    27    28   ar
    23    28    29   ar
    24    29    30   ar
    25    30    31   ar
    26    31    32    1
    27     5     6   ar
    28     6     7    1
    29    16    17    2
    30    17    18    1
    31    18    10    1
    32    17    13    1
    33     6     1   ar
    34    31    26   ar
    35    21    22    1
@<TRIPOS>MOLECULE
*****
 32 35 0 0 0
SMALL
GASTEIGER

@<TRIPOS>ATOM
      1 C          -7.4932  -17.5752   23.1097 C.ar    1  UNL1        0.0678
      2 C          -8.0630  -16.2792   23.6052 C.ar    1  UNL1        0.0055
      3 C          -7.1497  -15.2065   24.1202 C.ar    1  UNL1        0.0016
      4 C          -5.6666  -15.4297   24.1397 C.ar    1  UNL1        0.0181
      5 C          -5.0967  -16.7258   23.6441 C.ar    1  UNL1        0.0922
      6 C          -6.0100  -17.7986   23.1291 C.ar    1  UNL1        0.1576
      7 F          -5.4401  -19.0946   22.6336 F       1  UNL1       -0.2027
      8 C          -8.4064  -18.6479   22.5947 C.2     1  UNL1        0.2014
      9 O          -8.1487  -20.0838   22.9439 O.2     1  UNL1       -0.2864
     10 C         -13.1402  -18.2274   23.6582 C.2     1  UNL1        0.0974
     11 C         -13.9711  -17.8380   22.4717 C.2     1  UNL1        0.2421
     12 N         -13.3195  -17.6230   21.1378 N.2     1  UNL1       -0.0304
     13 C         -11.8370  -17.7974   20.9905 C.2     1  UNL1        0.3721
     14 N         -10.9219  -17.6547   19.8106 N.2     1  UNL1       -0.0307
     15 C          -9.5254  -17.9560   20.2679 C.2     1  UNL1        0.2390
     16 C          -9.5774  -18.2848   21.7304 C.2     1  UNL1        0.0895
     17 C         -11.0061  -18.1868   22.1770 C.2     1  UNL1        0.0782
     18 C         -11.6577  -18.4018   23.5109 C.3     1  UNL1        0.0751
     19 N         -14.4434  -18.6575   26.3259 N.1     1  UNL1       -0.1910
     20 C         -13.7918  -18.4425   24.9921 C.1     1  UNL1        0.1003
     21 N          -3.6136  -16.9491   23.6636 N.pl3   1  UNL1       -0.2127
     22 H          -3.1254  -16.9387   24.5185 H       1  UNL1        0.1738
     23 S          -2.8742  -17.1882   22.3806 S.O2    1  UNL1        0.0758
     24 O          -3.0988  -15.7591   21.9847 O.2     1  UNL1       -0.1499
     25 O          -2.6495  -18.6175   22.7765 O.2     1  UNL1       -0.1499
     26 C          -2.1348  -17.4274   21.0975 C.ar    1  UNL1        0.1524
     27 C          -0.7142  -16.9678   20.9538 C.ar    1  UNL1        0.0225
     28 C           0.0253  -17.2070   19.6708 C.ar    1  UNL1        0.0015
     29 C          -0.6559  -17.9057   18.5316 C.ar    1  UNL1        0.0024
     30 C          -2.0764  -18.3653   18.6754 C.ar    1  UNL1        0.0310
     31 C          -2.8159  -18.1262   19.9583 C.ar    1  UNL1        0.1589
     32 F          -4.2364  -18.5858   20.1022 F       1  UNL1       -0.2027
@<TRIPOS>BOND
     1    19    20    3
     2    20    10    1
     3    10    11    2
     4    11    12    1
     5    12    13    2
     6    13    14    1
     7    14    15    2
     8    15    16    1
     9    16     8    1
    10     8     9    2
    11     8     1    1
    12     1     2   ar
    13     2     3   ar
    14     3     4   ar
    15     4     5   ar
    16     5    21    1
    17    21    23    1
    18    23    24    2
    19    23    25    2
    20    23    26    1
    21    26    27   ar
    22    27    28   ar
    23    28    29   ar
    24    29    30   ar
    25    30    31   ar
    26    31    32    1
    27     5     6   ar
    28     6     7    1
    29    16    17    2
    30    17    18    1
    31    18    10    1
    32    17    13    1
    33     6     1   ar
    34    31    26   ar
    35    21    22    1
@<TRIPOS>MOLECULE
*****
 32 35 0 0 0
SMALL
GASTEIGER

@<TRIPOS>ATOM
      1 C          -5.1615  -15.9166   24.1954 C.ar    1  UNL1        0.0678
      2 C          -4.7084  -15.9961   25.6230 C.ar    1  UNL1        0.0055
      3 C          -5.7129  -15.9178   26.7343 C.ar    1  UNL1        0.0016
      4 C          -7.1706  -15.7600   26.4178 C.ar    1  UNL1        0.0181
      5 C          -7.6238  -15.6805   24.9901 C.ar    1  UNL1        0.0922
      6 C          -6.6193  -15.7588   23.8788 C.ar    1  UNL1        0.1576
      7 F          -7.0725  -15.6793   22.4512 F       1  UNL1       -0.2027
      8 C          -4.1570  -15.9949   23.0841 C.2     1  UNL1        0.2014
      9 O          -3.7039  -14.7430   22.3932 O.2     1  UNL1       -0.2864
     10 C          -6.1035  -19.5325   20.3614 C.2     1  UNL1        0.0974
     11 C          -5.1870  -20.7078   20.1920 C.2     1  UNL1        0.2421
     12 N          -3.8312  -20.7002   20.8336 N.2     1  UNL1       -0.0304
     13 C          -3.3918  -19.5173   21.6445 C.2     1  UNL1        0.3721
     14 N          -2.1228  -19.2268   22.3898 N.2     1  UNL1       -0.0307
     15 C          -2.2550  -17.8720   23.0198 C.2     1  UNL1        0.2390
     16 C          -3.6057  -17.3251   22.6639 C.2     1  UNL1        0.0895
     17 C          -4.3082  -18.3420   21.8139 C.2     1  UNL1        0.0782
     18 C          -5.6641  -18.3496   21.1724 C.3     1  UNL1        0.0751
     19 N          -8.8152  -19.5476   19.0783 N.1     1  UNL1       -0.1910
     20 C          -7.4593  -19.5401   19.7199 C.1     1  UNL1        0.1003
     21 N          -9.0815  -15.5227   24.6737 N.pl3   1  UNL1       -0.2127
     22 H          -9.5776  -14.7436   25.0144 H       1  UNL1        0.1738
     23 S          -9.7833  -16.5519   23.8381 S.O2    1  UNL1        0.0758
     24 O          -9.7237  -17.5209   24.9815 O.2     1  UNL1       -0.1499
     25 O          -9.8429  -15.5830   22.6946 O.2     1  UNL1       -0.1499
     26 C         -10.4851  -17.5812   23.0025 C.ar    1  UNL1        0.1524
     27 C          -9.8457  -18.9170   22.7646 C.ar    1  UNL1        0.0225
     28 C         -10.5475  -19.9463   21.9290 C.ar    1  UNL1        0.0015
     29 C         -11.8886  -19.6396   21.3313 C.ar    1  UNL1        0.0024
     30 C         -12.5280  -18.3038   21.5691 C.ar    1  UNL1        0.0310
     31 C         -11.8263  -17.2745   22.4047 C.ar    1  UNL1        0.1589
     32 F         -12.4656  -15.9387   22.6426 F       1  UNL1       -0.2027
@<TRIPOS>BOND
     1    19    20    3
     2    20    10    1
     3    10    11    2
     4    11    12    1
     5    12    13    2
     6    13    14    1
     7    14    15    2
     8    15    16    1
     9    16     8    1
    10     8     9    2
    11     8     1    1
    12     1     2   ar
    13     2     3   ar
    14     3     4   ar
    15     4     5   ar
    16     5    21    1
    17    21    23    1
    18    23    24    2
    19    23    25    2
    20    23    26    1
    21    26    27   ar
    22    27    28   ar
    23    28    29   ar
    24    29    30   ar
    25    30    31   ar
    26    31    32    1
    27     5     6   ar
    28     6     7    1
    29    16    17    2
    30    17    18    1
    31    18    10    1
    32    17    13    1
    33     6     1   ar
    34    31    26   ar
    35    21    22    1
@<TRIPOS>MOLECULE
*****
 32 35 0 0 0
SMALL
GASTEIGER

@<TRIPOS>ATOM
      1 C         -11.3798   -5.7353   17.9020 C.ar    1  UNL1        0.0678
      2 C         -11.0277   -6.2254   16.5288 C.ar    1  UNL1        0.0055
      3 C         -11.6819   -7.4596   15.9822 C.ar    1  UNL1        0.0016
      4 C         -12.6884   -8.2037   16.8089 C.ar    1  UNL1        0.0181
      5 C         -13.0405   -7.7135   18.1822 C.ar    1  UNL1        0.0922
      6 C         -12.3863   -6.4794   18.7288 C.ar    1  UNL1        0.1576
      7 F         -12.7385   -5.9893   20.1020 F       1  UNL1       -0.2027
      8 C         -10.7255   -4.5011   18.4486 C.2     1  UNL1        0.2014
      9 O          -9.6043   -4.6220   19.4377 O.2     1  UNL1       -0.2864
     10 C         -15.0704   -2.3398   18.8578 C.2     1  UNL1        0.0974
     11 C         -15.0927   -0.9611   18.2673 C.2     1  UNL1        0.2421
     12 N         -13.8544   -0.3945   17.6383 N.2     1  UNL1       -0.0304
     13 C         -12.5939   -1.2065   17.5998 C.2     1  UNL1        0.3721
     14 N         -11.2287   -0.9153   17.0508 N.2     1  UNL1       -0.0307
     15 C         -10.3626   -2.1140   17.3020 C.2     1  UNL1        0.2390
     16 C         -11.1925   -3.1461   18.0062 C.2     1  UNL1        0.0895
     17 C         -12.5716   -2.5852   18.1902 C.2     1  UNL1        0.0782
     18 C         -13.8098   -3.1519   18.8192 C.3     1  UNL1        0.0751
     19 N         -17.5469   -3.4731   20.1157 N.1     1  UNL1       -0.1910
     20 C         -16.3087   -2.9065   19.4867 C.1     1  UNL1        0.1003
     21 N         -14.0470   -8.4577   19.0088 N.pl3   1  UNL1       -0.2127
     22 H         -13.8088   -8.7687   19.9120 H       1  UNL1        0.1738
     23 S         -15.4163   -8.7279   18.4593 S.O2    1  UNL1        0.0758
     24 O         -15.8393   -7.3373   18.8293 O.2     1  UNL1       -0.1499
     25 O         -14.9933  -10.1187   18.0893 O.2     1  UNL1       -0.1499
     26 C         -16.7856   -8.9983   17.9098 C.ar    1  UNL1        0.1524
     27 C         -17.2745   -8.2431   16.7095 C.ar    1  UNL1        0.0225
     28 C         -18.6438   -8.5134   16.1600 C.ar    1  UNL1        0.0015
     29 C         -19.5242   -9.5388   16.8107 C.ar    1  UNL1        0.0024
     30 C         -19.0353  -10.2940   18.0110 C.ar    1  UNL1        0.0310
     31 C         -17.6660  -10.0237   18.5606 C.ar    1  UNL1        0.1589
     32 F         -17.1770  -10.7788   19.7608 F       1  UNL1       -0.2027
@<TRIPOS>BOND
     1    19    20    3
     2    20    10    1
     3    10    11    2
     4    11    12    1
     5    12    13    2
     6    13    14    1
     7    14    15    2
     8    15    16    1
     9    16     8    1
    10     8     9    2
    11     8     1    1
    12     1     2   ar
    13     2     3   ar
    14     3     4   ar
    15     4     5   ar
    16     5    21    1
    17    21    23    1
    18    23    24    2
    19    23    25    2
    20    23    26    1
    21    26    27   ar
    22    27    28   ar
    23    28    29   ar
    24    29    30   ar
    25    30    31   ar
    26    31    32    1
    27     5     6   ar
    28     6     7    1
    29    16    17    2
    30    17    18    1
    31    18    10    1
    32    17    13    1
    33     6     1   ar
    34    31    26   ar
    35    21    22    1
@<TRIPOS>MOLECULE
*****
 32 35 0 0 0
SMALL
GASTEIGER

@<TRIPOS>ATOM
      1 C          -7.0496  -15.8435   23.4141 C.ar    1  UNL1        0.0678
      2 C          -6.9652  -14.9550   24.6197 C.ar    1  UNL1        0.0055
      3 C          -5.7982  -15.0687   25.5551 C.ar    1  UNL1        0.0016
      4 C          -4.7154  -16.0710   25.2850 C.ar    1  UNL1        0.0181
      5 C          -4.7997  -16.9596   24.0793 C.ar    1  UNL1        0.0922
      6 C          -5.9668  -16.8458   23.1439 C.ar    1  UNL1        0.1576
      7 F          -6.0511  -17.7344   21.9384 F       1  UNL1       -0.2027
      8 C          -8.2166  -15.7297   22.4787 C.2     1  UNL1        0.2014
      9 O          -8.1538  -14.7891   21.3120 O.2     1  UNL1       -0.2864
     10 C          -9.9404  -19.6098   20.0933 C.2     1  UNL1        0.0974
     11 C         -11.2217  -20.1289   20.6751 C.2     1  UNL1        0.2421
     12 N         -11.8309  -19.4548   21.8687 N.2     1  UNL1       -0.0304
     13 C         -11.1586  -18.2616   22.4804 C.2     1  UNL1        0.3721
     14 N         -11.5199  -17.3967   23.6515 N.2     1  UNL1       -0.0307
     15 C         -10.4618  -16.3429   23.7934 C.2     1  UNL1        0.2390
     16 C          -9.4466  -16.5566   22.7100 C.2     1  UNL1        0.0895
     17 C          -9.8773  -17.7424   21.8986 C.2     1  UNL1        0.0782
     18 C          -9.2682  -18.4165   20.7050 C.3     1  UNL1        0.0751
     19 N          -8.7222  -20.9579   17.7061 N.1     1  UNL1       -0.1910
     20 C          -9.3313  -20.2839   18.8997 C.1     1  UNL1        0.1003
     21 N          -3.7169  -17.9619   23.8092 N.pl3   1  UNL1       -0.2127
     22 H          -3.4564  -18.6053   24.5073 H       1  UNL1        0.1738
     23 S          -3.0311  -17.9838   22.4754 S.O2    1  UNL1        0.0758
     24 O          -3.1587  -19.4778   22.4343 O.2     1  UNL1       -0.1499
     25 O          -2.9034  -16.4899   22.5164 O.2     1  UNL1       -0.1499
     26 C          -2.3451  -18.0058   21.1415 C.ar    1  UNL1        0.1524
     27 C          -0.8941  -17.6402   21.0383 C.ar    1  UNL1        0.0225
     28 C          -0.2081  -17.6621   19.7046 C.ar    1  UNL1        0.0015
     29 C          -0.9733  -18.0496   18.4740 C.ar    1  UNL1        0.0024
     30 C          -2.4244  -18.4152   18.5771 C.ar    1  UNL1        0.0310
     31 C          -3.1103  -18.3933   19.9109 C.ar    1  UNL1        0.1589
     32 F          -4.5614  -18.7588   20.0142 F       1  UNL1       -0.2027
@<TRIPOS>BOND
     1    19    20    3
     2    20    10    1
     3    10    11    2
     4    11    12    1
     5    12    13    2
     6    13    14    1
     7    14    15    2
     8    15    16    1
     9    16     8    1
    10     8     9    2
    11     8     1    1
    12     1     2   ar
    13     2     3   ar
    14     3     4   ar
    15     4     5   ar
    16     5    21    1
    17    21    23    1
    18    23    24    2
    19    23    25    2
    20    23    26    1
    21    26    27   ar
    22    27    28   ar
    23    28    29   ar
    24    29    30   ar
    25    30    31   ar
    26    31    32    1
    27     5     6   ar
    28     6     7    1
    29    16    17    2
    30    17    18    1
    31    18    10    1
    32    17    13    1
    33     6     1   ar
    34    31    26   ar
    35    21    22    1
@<TRIPOS>MOLECULE
*****
 32 35 0 0 0
SMALL
GASTEIGER

@<TRIPOS>ATOM
      1 C          -6.4005  -16.4554   23.7459 C.ar    1  UNL1        0.0678
      2 C          -5.1577  -15.6404   23.9483 C.ar    1  UNL1        0.0055
      3 C          -3.8351  -16.1567   23.4645 C.ar    1  UNL1        0.0016
      4 C          -3.7553  -17.4881   22.7782 C.ar    1  UNL1        0.0181
      5 C          -4.9982  -18.3031   22.5758 C.ar    1  UNL1        0.0922
      6 C          -6.3208  -17.7868   23.0596 C.ar    1  UNL1        0.1576
      7 F          -7.5637  -18.6019   22.8571 F       1  UNL1       -0.2027
      8 C          -7.7231  -15.9390   24.2297 C.2     1  UNL1        0.2014
      9 O          -7.8939  -14.4795   24.5305 O.2     1  UNL1       -0.2864
     10 C         -11.6352  -16.7653   21.4495 C.2     1  UNL1        0.0974
     11 C         -12.5461  -17.8104   22.0221 C.2     1  UNL1        0.2421
     12 N         -12.2016  -18.4749   23.3220 N.2     1  UNL1       -0.0304
     13 C         -10.9461  -18.0944   24.0493 C.2     1  UNL1        0.3721
     14 N         -10.3490  -18.5732   25.3393 N.2     1  UNL1       -0.0307
     15 C          -9.0690  -17.8241   25.5639 C.2     1  UNL1        0.2390
     16 C          -8.8750  -16.8823   24.4127 C.2     1  UNL1        0.0895
     17 C         -10.0352  -17.0493   23.4766 C.2     1  UNL1        0.0782
     18 C         -10.3797  -16.3848   22.1767 C.3     1  UNL1        0.0751
     19 N         -12.3242  -15.4363   18.8497 N.1     1  UNL1       -0.1910
     20 C         -11.9797  -16.1008   20.1496 C.1     1  UNL1        0.1003
     21 N          -4.9184  -19.6345   21.8895 N.pl3   1  UNL1       -0.2127
     22 H          -4.1749  -20.2479   22.0899 H       1  UNL1        0.1738
     23 S          -5.9715  -20.0314   20.8978 S.O2    1  UNL1        0.0758
     24 O          -5.4985  -18.9563   19.9650 O.2     1  UNL1       -0.1499
     25 O          -6.4446  -21.1067   21.8305 O.2     1  UNL1       -0.1499
     26 C          -7.0247  -20.4284   19.9061 C.ar    1  UNL1        0.1524
     27 C          -6.8622  -21.6841   19.1019 C.ar    1  UNL1        0.0225
     28 C          -7.9153  -22.0811   18.1102 C.ar    1  UNL1        0.0015
     29 C          -9.1309  -21.2224   17.9228 C.ar    1  UNL1        0.0024
     30 C          -9.2933  -19.9668   18.7270 C.ar    1  UNL1        0.0310
     31 C          -8.2403  -19.5697   19.7187 C.ar    1  UNL1        0.1589
     32 F          -8.4026  -18.3141   20.5230 F       1  UNL1       -0.2027
@<TRIPOS>BOND
     1    19    20    3
     2    20    10    1
     3    10    11    2
     4    11    12    1
     5    12    13    2
     6    13    14    1
     7    14    15    2
     8    15    16    1
     9    16     8    1
    10     8     9    2
    11     8     1    1
    12     1     2   ar
    13     2     3   ar
    14     3     4   ar
    15     4     5   ar
    16     5    21    1
    17    21    23    1
    18    23    24    2
    19    23    25    2
    20    23    26    1
    21    26    27   ar
    22    27    28   ar
    23    28    29   ar
    24    29    30   ar
    25    30    31   ar
    26    31    32    1
    27     5     6   ar
    28     6     7    1
    29    16    17    2
    30    17    18    1
    31    18    10    1
    32    17    13    1
    33     6     1   ar
    34    31    26   ar
    35    21    22    1
@<TRIPOS>MOLECULE
*****
 32 35 0 0 0
SMALL
GASTEIGER

@<TRIPOS>ATOM
      1 C          -7.0218  -17.7541   23.2190 C.ar    1  UNL1        0.0678
      2 C          -7.6374  -16.4745   23.7024 C.ar    1  UNL1        0.0055
      3 C          -6.7609  -15.3276   24.1102 C.ar    1  UNL1        0.0016
      4 C          -5.2687  -15.4603   24.0348 C.ar    1  UNL1        0.0181
      5 C          -4.6531  -16.7400   23.5514 C.ar    1  UNL1        0.0922
      6 C          -5.5296  -17.8868   23.1436 C.ar    1  UNL1        0.1576
      7 F          -4.9139  -19.1664   22.6602 F       1  UNL1       -0.2027
      8 C          -7.8984  -18.9009   22.8111 C.2     1  UNL1        0.2014
      9 O          -7.3692  -19.9578   21.8875 O.2     1  UNL1       -0.2864
     10 C         -12.0331  -16.9397   21.1456 C.2     1  UNL1        0.0974
     11 C         -13.2252  -17.2960   21.9833 C.2     1  UNL1        0.2421
     12 N         -13.0594  -18.1718   23.1898 N.2     1  UNL1       -0.0304
     13 C         -11.7014  -18.6912   23.5585 C.2     1  UNL1        0.3721
     14 N         -11.2330  -19.5674   24.6823 N.2     1  UNL1       -0.0307
     15 C          -9.7514  -19.7526   24.5391 C.2     1  UNL1        0.2390
     16 C          -9.3040  -18.9909   23.3268 C.2     1  UNL1        0.0895
     17 C         -10.5093  -18.3349   22.7208 C.2     1  UNL1        0.0782
     18 C         -10.6751  -17.4592   21.5143 C.3     1  UNL1        0.0751
     19 N         -12.3648  -15.1882   18.7327 N.1     1  UNL1       -0.1910
     20 C         -12.1990  -16.0640   19.9391 C.1     1  UNL1        0.1003
     21 N          -3.1609  -16.8727   23.4760 N.pl3   1  UNL1       -0.2127
     22 H          -2.6173  -16.7891   24.2926 H       1  UNL1        0.1738
     23 S          -2.4968  -17.1327   22.1564 S.O2    1  UNL1        0.0758
     24 O          -2.9138  -15.7734   21.6786 O.2     1  UNL1       -0.1499
     25 O          -2.0797  -18.4920   22.6342 O.2     1  UNL1       -0.1499
     26 C          -1.8326  -17.3928   20.8368 C.ar    1  UNL1        0.1524
     27 C          -0.3799  -17.0686   20.6516 C.ar    1  UNL1        0.0225
     28 C           0.2843  -17.3287   19.3320 C.ar    1  UNL1        0.0015
     29 C          -0.5043  -17.9129   18.1977 C.ar    1  UNL1        0.0024
     30 C          -1.9571  -18.2371   18.3829 C.ar    1  UNL1        0.0310
     31 C          -2.6212  -17.9771   19.7024 C.ar    1  UNL1        0.1589
     32 F          -4.0740  -18.3012   19.8877 F       1  UNL1       -0.2027
@<TRIPOS>BOND
     1    19    20    3
     2    20    10    1
     3    10    11    2
     4    11    12    1
     5    12    13    2
     6    13    14    1
     7    14    15    2
     8    15    16    1
     9    16     8    1
    10     8     9    2
    11     8     1    1
    12     1     2   ar
    13     2     3   ar
    14     3     4   ar
    15     4     5   ar
    16     5    21    1
    17    21    23    1
    18    23    24    2
    19    23    25    2
    20    23    26    1
    21    26    27   ar
    22    27    28   ar
    23    28    29   ar
    24    29    30   ar
    25    30    31   ar
    26    31    32    1
    27     5     6   ar
    28     6     7    1
    29    16    17    2
    30    17    18    1
    31    18    10    1
    32    17    13    1
    33     6     1   ar
    34    31    26   ar
    35    21    22    1
