@<TRIPOS>MOLECULE
*****
 24 26 0 0 0
SMALL
GASTEIGER

@<TRIPOS>ATOM
      1 S         -10.4487  -19.6003   21.4396 S.3     1  UNL1       -0.0834
      2 C          -8.9641  -19.4836   21.2596 C.ar    1  UNL1        0.1288
      3 C          -8.0429  -19.8045   22.3991 C.ar    1  UNL1        0.0289
      4 C          -6.5584  -19.6878   22.2190 C.ar    1  UNL1        0.0230
      5 C          -5.9950  -19.2502   20.8995 C.ar    1  UNL1        0.1029
      6 N          -6.9162  -18.9294   19.7600 N.ar    1  UNL1       -0.1475
      7 N          -8.4007  -19.0461   19.9401 N.ar    1  UNL1       -0.1417
      8 C          -4.5104  -19.1335   20.7195 C.ar    1  UNL1        0.0194
      9 C          -3.9473  -18.6861   19.4031 C.ar    1  UNL1        0.0016
     10 C          -2.4627  -18.5694   19.2231 C.ar    1  UNL1        0.0000
     11 C          -1.5412  -18.9001   20.3595 C.ar    1  UNL1        0.0000
     12 C          -2.1042  -19.3476   21.6759 C.ar    1  UNL1        0.0000
     13 C          -3.5888  -19.4642   21.8559 C.ar    1  UNL1        0.0016
     14 C         -11.2540  -18.3960   21.8284 C.3     1  UNL1        0.1490
     15 N         -10.2801  -16.0853   21.1485 N.am    1  UNL1       -0.2362
     16 C         -10.3007  -14.8778   20.2589 C.3     1  UNL1        0.1220
     17 C         -11.2746  -17.1884   20.9387 C.2     1  UNL1        0.2422
     18 O         -12.2897  -17.0840   19.8393 O.2     1  UNL1       -0.2735
     19 C          -5.6805  -16.3091   23.7320 C.3     1  UNL1        0.0527
     20 C          -7.1507  -16.2926   23.4355 C.ar    1  UNL1        0.0678
     21 C          -8.2550  -16.4082   24.4441 C.ar    1  UNL1        0.0528
     22 S          -9.5616  -16.3446   23.7101 S.2     1  UNL1       -0.0510
     23 C          -9.2650  -16.1897   22.2479 C.ar    1  UNL1        0.1686
     24 N          -7.7750  -16.1576   22.0782 N.ar    1  UNL1       -0.2281
@<TRIPOS>BOND
     1    19    20    1
     2    20    21   ar
     3    21    22   ar
     4    22    23   ar
     5    23    15    1
     6    15    16    1
     7    15    17   am
     8    17    18    2
     9    17    14    1
    10    14     1    1
    11     1     2    1
    12     2     3   ar
    13     3     4   ar
    14     4     5   ar
    15     5     8    1
    16     8     9   ar
    17     9    10   ar
    18    10    11   ar
    19    11    12   ar
    20    12    13   ar
    21     5     6   ar
    22     6     7   ar
    23    23    24   ar
    24    24    20   ar
    25     7     2   ar
    26    13     8   ar
@<TRIPOS>MOLECULE
*****
 24 26 0 0 0
SMALL
GASTEIGER

@<TRIPOS>ATOM
      1 S          -4.2897  -16.5035   23.4637 S.3     1  UNL1       -0.0834
      2 C          -5.7796  -16.6781   23.4516 C.ar    1  UNL1        0.1288
      3 C          -6.6553  -15.6984   24.1750 C.ar    1  UNL1        0.0289
      4 C          -8.1450  -15.8730   24.1630 C.ar    1  UNL1        0.0230
      5 C          -8.7590  -17.0272   23.4275 C.ar    1  UNL1        0.1029
      6 N          -7.8832  -18.0069   22.7042 N.ar    1  UNL1       -0.1475
      7 N          -6.3935  -17.8323   22.7162 N.ar    1  UNL1       -0.1417
      8 C         -10.2488  -17.2018   23.4155 C.ar    1  UNL1        0.0194
      9 C         -11.1061  -16.2742   22.6064 C.ar    1  UNL1        0.0016
     10 C         -12.5959  -16.4488   22.5944 C.ar    1  UNL1        0.0000
     11 C         -13.2284  -17.5509   23.3915 C.ar    1  UNL1        0.0000
     12 C         -12.3710  -18.4784   24.2006 C.ar    1  UNL1        0.0000
     13 C         -10.8813  -18.3039   24.2126 C.ar    1  UNL1        0.0016
     14 C          -3.4068  -17.5526   22.8557 C.3     1  UNL1        0.1490
     15 N          -2.9027  -17.8886   20.3292 N.am    1  UNL1       -0.2362
     16 C          -2.0841  -17.5676   19.1140 C.3     1  UNL1        0.1220
     17 C          -2.5881  -17.2316   21.6404 C.2     1  UNL1        0.2422
     18 O          -1.4548  -16.2537   21.7364 O.2     1  UNL1       -0.2735
     19 C          -7.7204  -19.9419   19.6545 C.3     1  UNL1        0.0527
     20 C          -6.2505  -19.8104   19.9230 C.ar    1  UNL1        0.0678
     21 C          -5.3096  -20.9326   20.2477 C.ar    1  UNL1        0.0528
     22 S          -3.9410  -20.3493   20.4393 S.2     1  UNL1       -0.0510
     23 C          -4.0360  -18.8666   20.2331 C.ar    1  UNL1        0.1686
     24 N          -5.4634  -18.5335   19.9140 N.ar    1  UNL1       -0.2281
@<TRIPOS>BOND
     1    19    20    1
     2    20    21   ar
     3    21    22   ar
     4    22    23   ar
     5    23    15    1
     6    15    16    1
     7    15    17   am
     8    17    18    2
     9    17    14    1
    10    14     1    1
    11     1     2    1
    12     2     3   ar
    13     3     4   ar
    14     4     5   ar
    15     5     8    1
    16     8     9   ar
    17     9    10   ar
    18    10    11   ar
    19    11    12   ar
    20    12    13   ar
    21     5     6   ar
    22     6     7   ar
    23    23    24   ar
    24    24    20   ar
    25     7     2   ar
    26    13     8   ar
@<TRIPOS>MOLECULE
*****
 24 26 0 0 0
SMALL
GASTEIGER

@<TRIPOS>ATOM
      1 S         -10.1459  -19.8287   22.0001 S.3     1  UNL1       -0.0834
      2 C          -8.6888  -19.6276   21.7059 C.ar    1  UNL1        0.1288
      3 C          -7.6526  -20.3224   22.5387 C.ar    1  UNL1        0.0289
      4 C          -6.1956  -20.1213   22.2445 C.ar    1  UNL1        0.0230
      5 C          -5.7747  -19.2254   21.1175 C.ar    1  UNL1        0.1029
      6 N          -6.8108  -18.5306   20.2847 N.ar    1  UNL1       -0.1475
      7 N          -8.2679  -18.7317   20.5789 N.ar    1  UNL1       -0.1417
      8 C          -4.3176  -19.0244   20.8233 C.ar    1  UNL1        0.0194
      9 C          -3.3129  -19.0823   21.9356 C.ar    1  UNL1        0.0016
     10 C          -1.8558  -18.8812   21.6414 C.ar    1  UNL1        0.0000
     11 C          -1.4035  -18.6222   20.2349 C.ar    1  UNL1        0.0000
     12 C          -2.4082  -18.5643   19.1225 C.ar    1  UNL1        0.0000
     13 C          -3.8652  -18.7654   19.4168 C.ar    1  UNL1        0.0016
     14 C         -10.6951  -19.4699   23.3490 C.3     1  UNL1        0.1490
     15 N         -10.0380  -16.9950   23.7887 N.am    1  UNL1       -0.2362
     16 C          -9.3454  -15.9649   24.6307 C.3     1  UNL1        0.1220
     17 C         -10.0026  -18.4396   24.1910 C.2     1  UNL1        0.2422
     18 O          -9.2746  -18.8540   25.4353 O.2     1  UNL1       -0.2735
     19 C         -11.0493  -15.3085   18.8883 C.3     1  UNL1        0.0527
     20 C         -11.2309  -15.8054   20.2919 C.ar    1  UNL1        0.0678
     21 C         -12.5417  -16.0805   20.9672 C.ar    1  UNL1        0.0528
     22 S         -12.2544  -16.5596   22.3593 S.2     1  UNL1       -0.0510
     23 C         -10.7660  -16.5807   22.5444 C.ar    1  UNL1        0.1686
     24 N         -10.1334  -16.1145   21.2667 N.ar    1  UNL1       -0.2281
@<TRIPOS>BOND
     1    19    20    1
     2    20    21   ar
     3    21    22   ar
     4    22    23   ar
     5    23    15    1
     6    15    16    1
     7    15    17   am
     8    17    18    2
     9    17    14    1
    10    14     1    1
    11     1     2    1
    12     2     3   ar
    13     3     4   ar
    14     4     5   ar
    15     5     8    1
    16     8     9   ar
    17     9    10   ar
    18    10    11   ar
    19    11    12   ar
    20    12    13   ar
    21     5     6   ar
    22     6     7   ar
    23    23    24   ar
    24    24    20   ar
    25     7     2   ar
    26    13     8   ar
@<TRIPOS>MOLECULE
*****
 24 26 0 0 0
SMALL
GASTEIGER

@<TRIPOS>ATOM
      1 S         -10.9380  -18.5712   20.1018 S.3     1  UNL1       -0.0834
      2 C          -9.4486  -18.6979   20.2278 C.ar    1  UNL1        0.1288
      3 C          -8.7247  -19.7913   19.4996 C.ar    1  UNL1        0.0289
      4 C          -7.2354  -19.9180   19.6257 C.ar    1  UNL1        0.0230
      5 C          -6.4701  -18.9514   20.4800 C.ar    1  UNL1        0.1029
      6 N          -7.1941  -17.8580   21.2083 N.ar    1  UNL1       -0.1475
      7 N          -8.6833  -17.7313   21.0822 N.ar    1  UNL1       -0.1417
      8 C          -4.9807  -19.0781   20.6061 C.ar    1  UNL1        0.0194
      9 C          -4.3693  -19.4622   21.9208 C.ar    1  UNL1        0.0016
     10 C          -2.8800  -19.5890   22.0469 C.ar    1  UNL1        0.0000
     11 C          -2.0021  -19.3316   20.8582 C.ar    1  UNL1        0.0000
     12 C          -2.6136  -18.9475   19.5434 C.ar    1  UNL1        0.0000
     13 C          -4.1028  -18.8207   19.4174 C.ar    1  UNL1        0.0016
     14 C         -11.6538  -17.4372   20.7738 C.3     1  UNL1        0.1490
     15 N         -12.5408  -17.7523   23.1954 N.am    1  UNL1       -0.2362
     16 C         -13.6735  -18.0336   24.1376 C.3     1  UNL1        0.1220
     17 C         -12.7865  -17.7185   21.7161 C.2     1  UNL1        0.2422
     18 O         -14.1650  -17.9661   21.1789 O.2     1  UNL1       -0.2735
     19 C          -8.0172  -15.3674   24.5111 C.3     1  UNL1        0.0527
     20 C          -9.0831  -16.4085   24.3373 C.ar    1  UNL1        0.0678
     21 C          -8.9991  -17.8389   24.7810 C.ar    1  UNL1        0.0528
     22 S         -10.2841  -18.5163   24.4073 S.2     1  UNL1       -0.0510
     23 C         -11.1623  -17.5047   23.7326 C.ar    1  UNL1        0.1686
     24 N         -10.4200  -16.2020   23.6893 N.ar    1  UNL1       -0.2281
@<TRIPOS>BOND
     1    19    20    1
     2    20    21   ar
     3    21    22   ar
     4    22    23   ar
     5    23    15    1
     6    15    16    1
     7    15    17   am
     8    17    18    2
     9    17    14    1
    10    14     1    1
    11     1     2    1
    12     2     3   ar
    13     3     4   ar
    14     4     5   ar
    15     5     8    1
    16     8     9   ar
    17     9    10   ar
    18    10    11   ar
    19    11    12   ar
    20    12    13   ar
    21     5     6   ar
    22     6     7   ar
    23    23    24   ar
    24    24    20   ar
    25     7     2   ar
    26    13     8   ar
@<TRIPOS>MOLECULE
*****
 24 26 0 0 0
SMALL
GASTEIGER

@<TRIPOS>ATOM
      1 S          -8.5493  -20.1577   22.7088 S.3     1  UNL1       -0.0834
      2 C          -7.2099  -19.7590   22.1638 C.ar    1  UNL1        0.1288
      3 C          -6.5255  -20.6249   21.1480 C.ar    1  UNL1        0.0289
      4 C          -5.1862  -20.2261   20.6030 C.ar    1  UNL1        0.0230
      5 C          -4.5311  -18.9615   21.0738 C.ar    1  UNL1        0.1029
      6 N          -5.2155  -18.0956   22.0896 N.ar    1  UNL1       -0.1475
      7 N          -6.5549  -18.4944   22.6346 N.ar    1  UNL1       -0.1417
      8 C          -3.1917  -18.5627   20.5288 C.ar    1  UNL1        0.0194
      9 C          -3.0281  -18.2960   19.0618 C.ar    1  UNL1        0.0016
     10 C          -1.6887  -17.8973   18.5168 C.ar    1  UNL1        0.0000
     11 C          -0.5129  -17.7653   19.4388 C.ar    1  UNL1        0.0000
     12 C          -0.6765  -18.0321   20.9059 C.ar    1  UNL1        0.0000
     13 C          -2.0159  -18.4308   21.4508 C.ar    1  UNL1        0.0016
     14 C          -9.2845  -19.2386   23.6386 C.3     1  UNL1        0.1490
     15 N         -10.3044  -16.8729   23.3018 N.am    1  UNL1       -0.2362
     16 C         -11.3999  -15.9934   22.7761 C.3     1  UNL1        0.1220
     17 C         -10.3800  -18.3590   23.1129 C.2     1  UNL1        0.2422
     18 O         -11.5510  -18.9656   22.3982 O.2     1  UNL1       -0.2735
     19 C          -6.9600  -15.4030   27.1143 C.3     1  UNL1        0.0527
     20 C          -7.5962  -15.5906   25.7689 C.ar    1  UNL1        0.0678
     21 C          -7.0667  -15.0749   24.4637 C.ar    1  UNL1        0.0528
     22 S          -8.0168  -15.4925   23.3806 S.2     1  UNL1       -0.0510
     23 C          -9.1334  -16.2663   24.0165 C.ar    1  UNL1        0.1686
     24 N          -8.8735  -16.3269   25.4925 N.ar    1  UNL1       -0.2281
@<TRIPOS>BOND
     1    19    20    1
     2    20    21   ar
     3    21    22   ar
     4    22    23   ar
     5    23    15    1
     6    15    16    1
     7    15    17   am
     8    17    18    2
     9    17    14    1
    10    14     1    1
    11     1     2    1
    12     2     3   ar
    13     3     4   ar
    14     4     5   ar
    15     5     8    1
    16     8     9   ar
    17     9    10   ar
    18    10    11   ar
    19    11    12   ar
    20    12    13   ar
    21     5     6   ar
    22     6     7   ar
    23    23    24   ar
    24    24    20   ar
    25     7     2   ar
    26    13     8   ar
@<TRIPOS>MOLECULE
*****
 24 26 0 0 0
SMALL
GASTEIGER

@<TRIPOS>ATOM
      1 S          -7.8717  -15.7481   24.8294 S.3     1  UNL1       -0.0834
      2 C          -6.6669  -16.2018   24.0595 C.ar    1  UNL1        0.1288
      3 C          -5.3424  -15.5321   24.2761 C.ar    1  UNL1        0.0289
      4 C          -4.1377  -15.9859   23.5062 C.ar    1  UNL1        0.0230
      5 C          -4.2576  -17.1094   22.5197 C.ar    1  UNL1        0.1029
      6 N          -5.5822  -17.7792   22.3030 N.ar    1  UNL1       -0.1475
      7 N          -6.7868  -17.3254   23.0729 N.ar    1  UNL1       -0.1417
      8 C          -3.0529  -17.5632   21.7497 C.ar    1  UNL1        0.0194
      9 C          -2.0394  -16.5606   21.2835 C.ar    1  UNL1        0.0016
     10 C          -0.8346  -17.0144   20.5135 C.ar    1  UNL1        0.0000
     11 C          -0.6434  -18.4709   20.2099 C.ar    1  UNL1        0.0000
     12 C          -1.6570  -19.4735   20.6762 C.ar    1  UNL1        0.0000
     13 C          -2.8617  -19.0197   21.4461 C.ar    1  UNL1        0.0016
     14 C          -9.2232  -16.3148   24.5099 C.3     1  UNL1        0.1490
     15 N         -10.1518  -18.6783   23.9607 N.am    1  UNL1       -0.2362
     16 C         -10.5041  -20.0694   24.3975 C.3     1  UNL1        0.1220
     17 C          -9.5755  -17.7059   24.9467 C.2     1  UNL1        0.2422
     18 O          -9.3516  -18.1246   26.3696 O.2     1  UNL1       -0.2735
     19 C         -11.8082  -16.0206   19.7093 C.3     1  UNL1        0.0527
     20 C         -11.1371  -17.0381   20.5836 C.ar    1  UNL1        0.0678
     21 C         -10.3037  -18.1929   20.1127 C.ar    1  UNL1        0.0528
     22 S          -9.8331  -18.9479   21.3204 S.2     1  UNL1       -0.0510
     23 C         -10.3757  -18.2597   22.5378 C.ar    1  UNL1        0.1686
     24 N         -11.1816  -17.0794   22.0824 N.ar    1  UNL1       -0.2281
@<TRIPOS>BOND
     1    19    20    1
     2    20    21   ar
     3    21    22   ar
     4    22    23   ar
     5    23    15    1
     6    15    16    1
     7    15    17   am
     8    17    18    2
     9    17    14    1
    10    14     1    1
    11     1     2    1
    12     2     3   ar
    13     3     4   ar
    14     4     5   ar
    15     5     8    1
    16     8     9   ar
    17     9    10   ar
    18    10    11   ar
    19    11    12   ar
    20    12    13   ar
    21     5     6   ar
    22     6     7   ar
    23    23    24   ar
    24    24    20   ar
    25     7     2   ar
    26    13     8   ar
@<TRIPOS>MOLECULE
*****
 24 26 0 0 0
SMALL
GASTEIGER

@<TRIPOS>ATOM
      1 S         -10.2453   -6.2961   17.2790 S.3     1  UNL1       -0.0834
      2 C         -11.6112   -6.7770   17.6705 C.ar    1  UNL1        0.1288
      3 C         -12.3747   -7.6906   16.7582 C.ar    1  UNL1        0.0289
      4 C         -13.7405   -8.1714   17.1498 C.ar    1  UNL1        0.0230
      5 C         -14.3428   -7.7386   18.4536 C.ar    1  UNL1        0.1029
      6 N         -13.5792   -6.8250   19.3659 N.ar    1  UNL1       -0.1475
      7 N         -12.2134   -6.3442   18.9743 N.ar    1  UNL1       -0.1417
      8 C         -15.7086   -8.2195   18.8452 C.ar    1  UNL1        0.0194
      9 C         -16.6572   -7.2934   19.5470 C.ar    1  UNL1        0.0016
     10 C         -18.0231   -7.7743   19.9385 C.ar    1  UNL1        0.0000
     11 C         -18.4403   -9.1813   19.6282 C.ar    1  UNL1        0.0000
     12 C         -17.4917  -10.1074   18.9264 C.ar    1  UNL1        0.0000
     13 C         -16.1259   -9.6265   18.5349 C.ar    1  UNL1        0.0016
     14 C          -9.7126   -5.0116   17.8413 C.3     1  UNL1        0.1490
     15 N         -10.6445   -2.7763   16.9005 N.am    1  UNL1       -0.2362
     16 C         -10.4918   -1.5758   16.0142 C.3     1  UNL1        0.1220
     17 C          -9.5600   -3.8111   16.9550 C.2     1  UNL1        0.2422
     18 O          -8.3228   -3.6454   16.1232 O.2     1  UNL1       -0.2735
     19 C         -13.9114   -3.0734   21.0381 C.3     1  UNL1        0.0527
     20 C         -13.3834   -3.0785   19.6342 C.ar    1  UNL1        0.0678
     21 C         -14.1878   -3.3153   18.3904 C.ar    1  UNL1        0.0528
     22 S         -13.2597   -3.2308   17.2151 S.2     1  UNL1       -0.0510
     23 C         -11.8817   -2.9420   17.7323 C.ar    1  UNL1        0.1686
     24 N         -11.9581   -2.8478   19.2274 N.ar    1  UNL1       -0.2281
@<TRIPOS>BOND
     1    19    20    1
     2    20    21   ar
     3    21    22   ar
     4    22    23   ar
     5    23    15    1
     6    15    16    1
     7    15    17   am
     8    17    18    2
     9    17    14    1
    10    14     1    1
    11     1     2    1
    12     2     3   ar
    13     3     4   ar
    14     4     5   ar
    15     5     8    1
    16     8     9   ar
    17     9    10   ar
    18    10    11   ar
    19    11    12   ar
    20    12    13   ar
    21     5     6   ar
    22     6     7   ar
    23    23    24   ar
    24    24    20   ar
    25     7     2   ar
    26    13     8   ar
@<TRIPOS>MOLECULE
*****
 24 26 0 0 0
SMALL
GASTEIGER

@<TRIPOS>ATOM
      1 S          -8.4414  -19.4816   21.4793 S.3     1  UNL1       -0.0834
      2 C          -7.0044  -19.1159   21.2527 C.ar    1  UNL1        0.1288
      3 C          -6.0606  -19.0277   22.4152 C.ar    1  UNL1        0.0289
      4 C          -4.6237  -18.6620   22.1886 C.ar    1  UNL1        0.0230
      5 C          -4.1305  -18.3846   20.7994 C.ar    1  UNL1        0.1029
      6 N          -5.0742  -18.4728   19.6369 N.ar    1  UNL1       -0.1475
      7 N          -6.5112  -18.8385   19.8636 N.ar    1  UNL1       -0.1417
      8 C          -2.6934  -18.0189   20.5728 C.ar    1  UNL1        0.0194
      9 C          -2.1263  -16.7812   21.2023 C.ar    1  UNL1        0.0016
     10 C          -0.6892  -16.4155   20.9756 C.ar    1  UNL1        0.0000
     11 C           0.1806  -17.2877   20.1196 C.ar    1  UNL1        0.0000
     12 C          -0.3867  -18.5255   19.4901 C.ar    1  UNL1        0.0000
     13 C          -1.8237  -18.8911   19.7168 C.ar    1  UNL1        0.0016
     14 C          -9.5274  -18.5090   21.1265 C.3     1  UNL1        0.1490
     15 N         -11.2209  -18.1536   23.0645 N.am    1  UNL1       -0.2362
     16 C         -12.5973  -18.3268   23.6350 C.3     1  UNL1        0.1220
     17 C         -10.9039  -18.6822   21.6970 C.2     1  UNL1        0.2422
     18 O         -11.9633  -19.3840   20.9000 O.2     1  UNL1       -0.2735
     19 C          -7.4494  -14.7512   24.5067 C.3     1  UNL1        0.0527
     20 C          -8.4279  -15.8879   24.5244 C.ar    1  UNL1        0.0678
     21 C          -8.6347  -16.8558   25.6515 C.ar    1  UNL1        0.0528
     22 S          -9.7061  -17.8223   25.2418 S.2     1  UNL1       -0.0510
     23 C         -10.1615  -17.4518   23.8615 C.ar    1  UNL1        0.1686
     24 N          -9.3716  -16.2563   23.4181 N.ar    1  UNL1       -0.2281
@<TRIPOS>BOND
     1    19    20    1
     2    20    21   ar
     3    21    22   ar
     4    22    23   ar
     5    23    15    1
     6    15    16    1
     7    15    17   am
     8    17    18    2
     9    17    14    1
    10    14     1    1
    11     1     2    1
    12     2     3   ar
    13     3     4   ar
    14     4     5   ar
    15     5     8    1
    16     8     9   ar
    17     9    10   ar
    18    10    11   ar
    19    11    12   ar
    20    12    13   ar
    21     5     6   ar
    22     6     7   ar
    23    23    24   ar
    24    24    20   ar
    25     7     2   ar
    26    13     8   ar
@<TRIPOS>MOLECULE
*****
 24 26 0 0 0
SMALL
GASTEIGER

@<TRIPOS>ATOM
      1 S         -13.5439   -7.8828   18.3431 S.3     1  UNL1       -0.0834
      2 C         -13.6489   -6.3877   18.4050 C.ar    1  UNL1        0.1288
      3 C         -13.3214   -5.6650   19.6779 C.ar    1  UNL1        0.0289
      4 C         -13.4265   -4.1700   19.7399 C.ar    1  UNL1        0.0230
      5 C         -13.8590   -3.3977   18.5289 C.ar    1  UNL1        0.1029
      6 N         -14.1866   -4.1204   17.2560 N.ar    1  UNL1       -0.1475
      7 N         -14.0815   -5.6154   17.1941 N.ar    1  UNL1       -0.1417
      8 C         -13.9641   -1.9026   18.5909 C.ar    1  UNL1        0.0194
      9 C         -15.2290   -1.2591   19.0765 C.ar    1  UNL1        0.0016
     10 C         -15.3340    0.2360   19.1385 C.ar    1  UNL1        0.0000
     11 C         -14.1741    1.0875   18.7148 C.ar    1  UNL1        0.0000
     12 C         -12.9091    0.4439   18.2292 C.ar    1  UNL1        0.0000
     13 C         -12.8042   -1.0511   18.1672 C.ar    1  UNL1        0.0016
     14 C         -14.4502   -8.6613   17.4362 C.3     1  UNL1        0.1490
     15 N         -16.7698   -9.1152   18.5147 N.am    1  UNL1       -0.2362
     16 C         -17.7679  -10.0734   19.0941 C.3     1  UNL1        0.1220
     17 C         -15.4483   -9.6195   18.0157 C.2     1  UNL1        0.2422
     18 O         -15.1247  -11.0820   18.0961 O.2     1  UNL1       -0.2735
     19 C         -17.3744   -4.0280   19.7937 C.3     1  UNL1        0.0527
     20 C         -17.3713   -5.3144   19.0222 C.ar    1  UNL1        0.0678
     21 C         -17.8113   -5.4900   17.5989 C.ar    1  UNL1        0.0528
     22 S         -17.6395   -6.9352   17.2356 S.2     1  UNL1       -0.0510
     23 C         -17.0934   -7.6528   18.4343 C.ar    1  UNL1        0.1686
     24 N         -16.9276   -6.6511   19.5384 N.ar    1  UNL1       -0.2281
@<TRIPOS>BOND
     1    19    20    1
     2    20    21   ar
     3    21    22   ar
     4    22    23   ar
     5    23    15    1
     6    15    16    1
     7    15    17   am
     8    17    18    2
     9    17    14    1
    10    14     1    1
    11     1     2    1
    12     2     3   ar
    13     3     4   ar
    14     4     5   ar
    15     5     8    1
    16     8     9   ar
    17     9    10   ar
    18    10    11   ar
    19    11    12   ar
    20    12    13   ar
    21     5     6   ar
    22     6     7   ar
    23    23    24   ar
    24    24    20   ar
    25     7     2   ar
    26    13     8   ar
