@<TRIPOS>MOLECULE
*****
 27 30 0 0 0
SMALL
GASTEIGER

@<TRIPOS>ATOM
      1 C          -6.7633  -15.4559   24.2810 C.3     1  UNL1        0.0282
      2 C          -6.4858  -16.7130   23.5112 C.3     1  UNL1        0.1255
      3 C          -5.1870  -16.8722   22.7778 C.3     1  UNL1        0.1229
      4 N          -4.9095  -18.1292   22.0081 N.am    1  UNL1       -0.2486
      5 C          -5.9308  -19.2273   21.9716 C.2     1  UNL1        0.2703
      6 O          -5.6532  -20.4845   21.2017 O.2     1  UNL1       -0.2679
      7 C          -7.2296  -19.0682   22.7049 C.ar    1  UNL1        0.1329
      8 C          -8.4177  -19.9722   22.8497 C.ar    1  UNL1        0.0435
      9 C          -9.4296  -19.2738   23.7090 C.ar    1  UNL1        0.1239
     10 N          -8.8668  -17.9381   24.0953 N.ar    1  UNL1       -0.1698
     11 N          -7.5071  -17.8110   23.4747 N.ar    1  UNL1       -0.2469
     12 C          -3.6107  -18.2883   21.2746 C.ar    1  UNL1        0.1005
     13 C          -3.6082  -18.4839   19.7874 C.ar    1  UNL1        0.0204
     14 C          -2.3094  -18.6430   19.0541 C.ar    1  UNL1        0.0221
     15 C          -1.0131  -18.6065   19.8079 C.ar    1  UNL1        0.1014
     16 N          -1.0156  -18.4110   21.2951 N.ar    1  UNL1       -0.2154
     17 C          -2.3144  -18.2519   22.0285 C.ar    1  UNL1        0.2360
     18 F          -2.3169  -18.0563   23.5157 F       1  UNL1       -0.1818
     19 C         -10.7691  -19.8159   24.1114 C.3     1  UNL1        0.2543
     20 O         -12.0195  -19.2524   23.5039 O.3     1  UNL1       -0.4535
     21 C         -11.9281  -18.2891   22.3577 C.ar    1  UNL1        0.2253
     22 C         -12.3652  -16.8655   22.5379 C.ar    1  UNL1        0.0586
     23 C         -12.2739  -15.9021   21.3918 C.ar    1  UNL1        0.0178
     24 C         -11.7456  -16.3622   20.0655 C.ar    1  UNL1        0.0770
     25 CL        -11.6543  -15.3988   18.9194 Cl      1  UNL1       -0.0806
     26 C         -11.3085  -17.7858   19.8853 C.ar    1  UNL1        0.1134
     27 N         -11.3998  -18.7492   21.0314 N.ar    1  UNL1       -0.2092
@<TRIPOS>BOND
     1     2     1    1
     2     2     3    1
     3     3     4    1
     4     4    12    1
     5    12    13   ar
     6    13    14   ar
     7    14    15   ar
     8    15    16   ar
     9    16    17   ar
    10    17    18    1
    11     4     5   am
    12     5     6    2
    13     5     7    1
    14     7     8   ar
    15     8     9   ar
    16     9    19    1
    17    19    20    1
    18    20    21    1
    19    21    22   ar
    20    22    23   ar
    21    23    24   ar
    22    24    25    1
    23    24    26   ar
    24    26    27   ar
    25     9    10   ar
    26    10    11   ar
    27    11     2    1
    28    17    12   ar
    29    11     7   ar
    30    27    21   ar
@<TRIPOS>MOLECULE
*****
 27 30 0 0 0
SMALL
GASTEIGER

@<TRIPOS>ATOM
      1 C          -6.4820  -20.9840   20.2047 C.3     1  UNL1        0.0282
      2 C          -6.9891  -19.8688   21.0703 C.3     1  UNL1        0.1255
      3 C          -8.4614  -19.5944   21.1541 C.3     1  UNL1        0.1229
      4 N          -8.9684  -18.4793   22.0196 N.am    1  UNL1       -0.2486
      5 C          -8.0032  -17.6384   22.8015 C.2     1  UNL1        0.2703
      6 O          -8.5103  -16.5231   23.6671 O.2     1  UNL1       -0.2679
      7 C          -6.5309  -17.9127   22.7177 C.ar    1  UNL1        0.1329
      8 C          -5.3491  -17.2570   23.3685 C.ar    1  UNL1        0.0435
      9 C          -4.1117  -17.9670   22.9051 C.ar    1  UNL1        0.1239
     10 N          -4.5287  -19.0615   21.9679 N.ar    1  UNL1       -0.1698
     11 N          -6.0238  -19.0279   21.8521 N.ar    1  UNL1       -0.2469
     12 C         -10.4408  -18.2049   22.1034 C.ar    1  UNL1        0.1005
     13 C         -11.1638  -18.3819   23.4057 C.ar    1  UNL1        0.0204
     14 C         -12.6361  -18.1075   23.4895 C.ar    1  UNL1        0.0221
     15 C         -13.3854  -17.6563   22.2710 C.ar    1  UNL1        0.1014
     16 N         -12.6625  -17.4793   20.9687 N.ar    1  UNL1       -0.2154
     17 C         -11.1902  -17.7537   20.8849 C.ar    1  UNL1        0.2360
     18 F         -10.4671  -17.5768   19.5826 F       1  UNL1       -0.1818
     19 C          -2.7044  -17.6399   23.3081 C.3     1  UNL1        0.2543
     20 O          -1.8607  -16.7572   22.4369 O.3     1  UNL1       -0.4535
     21 C          -1.7324  -17.0515   20.9717 C.ar    1  UNL1        0.2253
     22 C          -0.4586  -17.6312   20.4319 C.ar    1  UNL1        0.0586
     23 C          -0.3302  -17.9256   18.9667 C.ar    1  UNL1        0.0178
     24 C          -1.4756  -17.6402   18.0412 C.ar    1  UNL1        0.0770
     25 CL         -1.3473  -17.9346   16.5760 Cl      1  UNL1       -0.0806
     26 C          -2.7494  -17.0605   18.5810 C.ar    1  UNL1        0.1134
     27 N          -2.8778  -16.7661   20.0462 N.ar    1  UNL1       -0.2092
@<TRIPOS>BOND
     1     2     1    1
     2     2     3    1
     3     3     4    1
     4     4    12    1
     5    12    13   ar
     6    13    14   ar
     7    14    15   ar
     8    15    16   ar
     9    16    17   ar
    10    17    18    1
    11     4     5   am
    12     5     6    2
    13     5     7    1
    14     7     8   ar
    15     8     9   ar
    16     9    19    1
    17    19    20    1
    18    20    21    1
    19    21    22   ar
    20    22    23   ar
    21    23    24   ar
    22    24    25    1
    23    24    26   ar
    24    26    27   ar
    25     9    10   ar
    26    10    11   ar
    27    11     2    1
    28    17    12   ar
    29    11     7   ar
    30    27    21   ar
@<TRIPOS>MOLECULE
*****
 27 30 0 0 0
SMALL
GASTEIGER

@<TRIPOS>ATOM
      1 C           3.8769   -5.3172   19.3354 C.3     1  UNL1        0.0282
      2 C           4.1936   -3.8981   19.7040 C.3     1  UNL1        0.1255
      3 C           3.1479   -2.8331   19.5547 C.3     1  UNL1        0.1229
      4 N           3.4646   -1.4141   19.9233 N.am    1  UNL1       -0.2486
      5 C           4.8271   -1.0599   20.4413 C.2     1  UNL1        0.2703
      6 O           5.1437    0.3593   20.8099 O.2     1  UNL1       -0.2679
      7 C           5.8728   -2.1248   20.5906 C.ar    1  UNL1        0.1329
      8 C           7.2930   -2.0766   21.0709 C.ar    1  UNL1        0.0435
      9 C           7.8540   -3.4659   20.9992 C.ar    1  UNL1        0.1239
     10 N           6.7805   -4.3727   20.4745 N.ar    1  UNL1       -0.1698
     11 N           5.5561   -3.5439   20.2220 N.ar    1  UNL1       -0.2469
     12 C           2.4188   -0.3491   19.7739 C.ar    1  UNL1        0.1005
     13 C           1.4638   -0.0729   20.8972 C.ar    1  UNL1        0.0204
     14 C           0.4181    0.9920   20.7479 C.ar    1  UNL1        0.0221
     15 C           0.3273    1.7808   19.4753 C.ar    1  UNL1        0.1014
     16 N           1.2823    1.5046   18.3520 N.ar    1  UNL1       -0.2154
     17 C           2.3280    0.4397   18.5013 C.ar    1  UNL1        0.2360
     18 F           3.2830    0.1634   17.3780 F       1  UNL1       -0.1818
     19 C           9.2444   -3.8762   21.3844 C.3     1  UNL1        0.2543
     20 O           9.5159   -5.2842   21.8249 O.3     1  UNL1       -0.4535
     21 C           9.0525   -5.7507   23.1732 C.ar    1  UNL1        0.2253
     22 C           8.8002   -7.2092   23.4161 C.ar    1  UNL1        0.0586
     23 C           8.3368   -7.6758   24.7643 C.ar    1  UNL1        0.0178
     24 C           8.1257   -6.6839   25.8695 C.ar    1  UNL1        0.0770
     25 CL          7.6623   -7.1505   27.2177 Cl      1  UNL1       -0.0806
     26 C           8.3780   -5.2254   25.6265 C.ar    1  UNL1        0.1134
     27 N           8.8414   -4.7588   24.2784 N.ar    1  UNL1       -0.2092
@<TRIPOS>BOND
     1     2     1    1
     2     2     3    1
     3     3     4    1
     4     4    12    1
     5    12    13   ar
     6    13    14   ar
     7    14    15   ar
     8    15    16   ar
     9    16    17   ar
    10    17    18    1
    11     4     5   am
    12     5     6    2
    13     5     7    1
    14     7     8   ar
    15     8     9   ar
    16     9    19    1
    17    19    20    1
    18    20    21    1
    19    21    22   ar
    20    22    23   ar
    21    23    24   ar
    22    24    25    1
    23    24    26   ar
    24    26    27   ar
    25     9    10   ar
    26    10    11   ar
    27    11     2    1
    28    17    12   ar
    29    11     7   ar
    30    27    21   ar
@<TRIPOS>MOLECULE
*****
 27 30 0 0 0
SMALL
GASTEIGER

@<TRIPOS>ATOM
      1 C           3.0128    4.4700   17.8794 C.3     1  UNL1        0.0282
      2 C           2.6431    3.1368   18.4591 C.3     1  UNL1        0.1255
      3 C           3.6196    1.9994   18.4067 C.3     1  UNL1        0.1229
      4 N           3.2500    0.6664   18.9864 N.am    1  UNL1       -0.2486
      5 C           1.9038    0.4705   19.6185 C.2     1  UNL1        0.2703
      6 O           1.5342   -0.8627   20.1982 O.2     1  UNL1       -0.2679
      7 C           0.9273    1.6080   19.6709 C.ar    1  UNL1        0.1329
      8 C          -0.4623    1.7130   20.2258 C.ar    1  UNL1        0.0435
      9 C          -0.9514    3.1111   19.9891 C.ar    1  UNL1        0.1239
     10 N           0.1358    3.8701   19.2878 N.ar    1  UNL1       -0.1698
     11 N           1.2970    2.9411   19.0912 N.ar    1  UNL1       -0.2469
     12 C           4.2265   -0.4711   18.9340 C.ar    1  UNL1        0.1005
     13 C           5.0140   -0.8404   20.1561 C.ar    1  UNL1        0.0204
     14 C           5.9905   -1.9778   20.1038 C.ar    1  UNL1        0.0221
     15 C           6.1795   -2.7459   18.8293 C.ar    1  UNL1        0.1014
     16 N           5.3920   -2.3766   17.6072 N.ar    1  UNL1       -0.2154
     17 C           4.4155   -1.2392   17.6596 C.ar    1  UNL1        0.2360
     18 F           3.6280   -0.8699   16.4375 F       1  UNL1       -0.1818
     19 C          -2.2924    3.6548   20.3843 C.3     1  UNL1        0.2543
     20 O          -3.3375    2.7375   20.9469 O.3     1  UNL1       -0.4535
     21 C          -4.5221    3.3051   21.6713 C.ar    1  UNL1        0.2253
     22 C          -4.6010    3.2141   23.1664 C.ar    1  UNL1        0.0586
     23 C          -5.7855    3.7816   23.8909 C.ar    1  UNL1        0.0178
     24 C          -6.8911    4.4401   23.1202 C.ar    1  UNL1        0.0770
     25 CL         -8.0757    5.0076   23.8447 Cl      1  UNL1       -0.0806
     26 C          -6.8122    4.5311   21.6251 C.ar    1  UNL1        0.1134
     27 N          -5.6277    3.9636   20.9006 N.ar    1  UNL1       -0.2092
@<TRIPOS>BOND
     1     2     1    1
     2     2     3    1
     3     3     4    1
     4     4    12    1
     5    12    13   ar
     6    13    14   ar
     7    14    15   ar
     8    15    16   ar
     9    16    17   ar
    10    17    18    1
    11     4     5   am
    12     5     6    2
    13     5     7    1
    14     7     8   ar
    15     8     9   ar
    16     9    19    1
    17    19    20    1
    18    20    21    1
    19    21    22   ar
    20    22    23   ar
    21    23    24   ar
    22    24    25    1
    23    24    26   ar
    24    26    27   ar
    25     9    10   ar
    26    10    11   ar
    27    11     2    1
    28    17    12   ar
    29    11     7   ar
    30    27    21   ar
@<TRIPOS>MOLECULE
*****
 27 30 0 0 0
SMALL
GASTEIGER

@<TRIPOS>ATOM
      1 C          -7.3639  -19.8337   20.1032 C.3     1  UNL1        0.0282
      2 C          -7.7777  -19.0286   21.2993 C.3     1  UNL1        0.1255
      3 C          -9.2241  -18.9545   21.6896 C.3     1  UNL1        0.1229
      4 N          -9.6379  -18.1495   22.8856 N.am    1  UNL1       -0.2486
      5 C          -8.6053  -17.4185   23.6915 C.2     1  UNL1        0.2703
      6 O          -9.0192  -16.6135   24.8876 O.2     1  UNL1       -0.2679
      7 C          -7.1589  -17.4927   23.3013 C.ar    1  UNL1        0.1329
      8 C          -5.9255  -16.8832   23.8992 C.ar    1  UNL1        0.0435
      9 C          -4.7495  -17.3116   23.0726 C.ar    1  UNL1        0.1239
     10 N          -5.2559  -18.1858   21.9638 N.ar    1  UNL1       -0.1698
     11 N          -6.7451  -18.2977   22.1052 N.ar    1  UNL1       -0.2469
     12 C         -11.0845  -18.0754   23.2758 C.ar    1  UNL1        0.1005
     13 C         -12.0341  -17.2316   22.4783 C.ar    1  UNL1        0.0204
     14 C         -13.4806  -17.1574   22.8685 C.ar    1  UNL1        0.0221
     15 C         -13.9774  -17.9271   24.0562 C.ar    1  UNL1        0.1014
     16 N         -13.0277  -18.7709   24.8538 N.ar    1  UNL1       -0.2154
     17 C         -11.5812  -18.8451   24.4636 C.ar    1  UNL1        0.2360
     18 F         -10.6315  -19.6889   25.2611 F       1  UNL1       -0.1818
     19 C          -3.3182  -16.9324   23.3125 C.3     1  UNL1        0.2543
     20 O          -2.2139  -17.7829   22.7582 O.3     1  UNL1       -0.4535
     21 C          -1.9628  -17.8158   21.2797 C.ar    1  UNL1        0.2253
     22 C          -2.8957  -18.5675   20.3771 C.ar    1  UNL1        0.0586
     23 C          -2.6446  -18.6004   18.8986 C.ar    1  UNL1        0.0178
     24 C          -1.4607  -17.8817   18.3227 C.ar    1  UNL1        0.0770
     25 CL         -1.2097  -17.9146   16.8442 Cl      1  UNL1       -0.0806
     26 C          -0.5278  -17.1300   19.2253 C.ar    1  UNL1        0.1134
     27 N          -0.7788  -17.0970   20.7037 N.ar    1  UNL1       -0.2092
@<TRIPOS>BOND
     1     2     1    1
     2     2     3    1
     3     3     4    1
     4     4    12    1
     5    12    13   ar
     6    13    14   ar
     7    14    15   ar
     8    15    16   ar
     9    16    17   ar
    10    17    18    1
    11     4     5   am
    12     5     6    2
    13     5     7    1
    14     7     8   ar
    15     8     9   ar
    16     9    19    1
    17    19    20    1
    18    20    21    1
    19    21    22   ar
    20    22    23   ar
    21    23    24   ar
    22    24    25    1
    23    24    26   ar
    24    26    27   ar
    25     9    10   ar
    26    10    11   ar
    27    11     2    1
    28    17    12   ar
    29    11     7   ar
    30    27    21   ar
@<TRIPOS>MOLECULE
*****
 27 30 0 0 0
SMALL
GASTEIGER

@<TRIPOS>ATOM
      1 C           4.7514    4.7752   19.9734 C.3     1  UNL1        0.0282
      2 C           3.7634    3.7512   19.4989 C.3     1  UNL1        0.1255
      3 C           2.2970    3.9559   19.7395 C.3     1  UNL1        0.1229
      4 N           1.3090    2.9320   19.2651 N.am    1  UNL1       -0.2486
      5 C           1.7873    1.7031   18.5499 C.2     1  UNL1        0.2703
      6 O           0.7991    0.6791   18.0755 O.2     1  UNL1       -0.2679
      7 C           3.2536    1.4984   18.3094 C.ar    1  UNL1        0.1329
      8 C           4.0161    0.3948   17.6380 C.ar    1  UNL1        0.0435
      9 C           5.4753    0.7368   17.6976 C.ar    1  UNL1        0.1239
     10 N           5.6148    2.0517   18.4057 N.ar    1  UNL1       -0.1698
     11 N           4.2417    2.5224   18.7839 N.ar    1  UNL1       -0.2469
     12 C          -0.1574    3.1367   19.5056 C.ar    1  UNL1        0.1005
     13 C          -0.9722    3.9377   18.5338 C.ar    1  UNL1        0.0204
     14 C          -2.4386    4.1425   18.7744 C.ar    1  UNL1        0.0221
     15 C          -3.0901    3.5462   19.9868 C.ar    1  UNL1        0.1014
     16 N          -2.2753    2.7452   20.9586 N.ar    1  UNL1       -0.2154
     17 C          -0.8090    2.5405   20.7181 C.ar    1  UNL1        0.2360
     18 F           0.0059    1.7395   21.6899 F       1  UNL1       -0.1818
     19 C           6.5981   -0.0909   17.1458 C.3     1  UNL1        0.2543
     20 O           6.5922   -1.5797   17.3282 O.3     1  UNL1       -0.4535
     21 C           6.0801   -2.1768   18.6054 C.ar    1  UNL1        0.2253
     22 C           4.9587   -3.1724   18.5711 C.ar    1  UNL1        0.0586
     23 C           4.4465   -3.7695   19.8483 C.ar    1  UNL1        0.0178
     24 C           5.0558   -3.3711   21.1597 C.ar    1  UNL1        0.0770
     25 CL          4.5437   -3.9683   22.4369 Cl      1  UNL1       -0.0806
     26 C           6.1773   -2.3756   21.1940 C.ar    1  UNL1        0.1134
     27 N           6.6894   -1.7784   19.9169 N.ar    1  UNL1       -0.2092
@<TRIPOS>BOND
     1     2     1    1
     2     2     3    1
     3     3     4    1
     4     4    12    1
     5    12    13   ar
     6    13    14   ar
     7    14    15   ar
     8    15    16   ar
     9    16    17   ar
    10    17    18    1
    11     4     5   am
    12     5     6    2
    13     5     7    1
    14     7     8   ar
    15     8     9   ar
    16     9    19    1
    17    19    20    1
    18    20    21    1
    19    21    22   ar
    20    22    23   ar
    21    23    24   ar
    22    24    25    1
    23    24    26   ar
    24    26    27   ar
    25     9    10   ar
    26    10    11   ar
    27    11     2    1
    28    17    12   ar
    29    11     7   ar
    30    27    21   ar
@<TRIPOS>MOLECULE
*****
 27 30 0 0 0
SMALL
GASTEIGER

@<TRIPOS>ATOM
      1 C           9.5150   -0.0941   33.2016 C.3     1  UNL1        0.0282
      2 C           8.1157   -0.6029   33.3835 C.3     1  UNL1        0.1255
      3 C           7.1438    0.1625   34.2318 C.3     1  UNL1        0.1229
      4 N           5.7446   -0.3462   34.4138 N.am    1  UNL1       -0.2486
      5 C           5.3171   -1.6204   33.7475 C.2     1  UNL1        0.2703
      6 O           3.9177   -2.1290   33.9295 O.2     1  UNL1       -0.2679
      7 C           6.2890   -2.3857   32.8992 C.ar    1  UNL1        0.1329
      8 C           6.1555   -3.6628   32.1239 C.ar    1  UNL1        0.0435
      9 C           7.4724   -3.9434   31.4627 C.ar    1  UNL1        0.1239
     10 N           8.4197   -2.8397   31.8294 N.ar    1  UNL1       -0.1698
     11 N           7.6883   -1.8770   32.7173 N.ar    1  UNL1       -0.2469
     12 C           4.7726    0.4193   35.2621 C.ar    1  UNL1        0.1005
     13 C           4.7142    0.1758   36.7410 C.ar    1  UNL1        0.0204
     14 C           3.7423    0.9411   37.5893 C.ar    1  UNL1        0.0221
     15 C           2.8288    1.9500   36.9586 C.ar    1  UNL1        0.1014
     16 N           2.8873    2.1935   35.4797 N.ar    1  UNL1       -0.2154
     17 C           3.8592    1.4281   34.6314 C.ar    1  UNL1        0.2360
     18 F           3.9177    1.6716   33.1524 F       1  UNL1       -0.1818
     19 C           7.7867   -5.1209   30.5882 C.3     1  UNL1        0.2543
     20 O           6.7670   -5.6210   29.6085 O.3     1  UNL1       -0.4535
     21 C           7.2007   -6.1096   28.2582 C.ar    1  UNL1        0.2253
     22 C           6.7863   -5.3663   27.0230 C.ar    1  UNL1        0.0586
     23 C           7.2200   -5.8548   25.6727 C.ar    1  UNL1        0.0178
     24 C           8.0682   -7.0866   25.5576 C.ar    1  UNL1        0.0770
     25 CL          8.5019   -7.5751   24.2073 Cl      1  UNL1       -0.0806
     26 C           8.4826   -7.8299   26.7928 C.ar    1  UNL1        0.1134
     27 N           8.0489   -7.3414   28.1431 N.ar    1  UNL1       -0.2092
@<TRIPOS>BOND
     1     2     1    1
     2     2     3    1
     3     3     4    1
     4     4    12    1
     5    12    13   ar
     6    13    14   ar
     7    14    15   ar
     8    15    16   ar
     9    16    17   ar
    10    17    18    1
    11     4     5   am
    12     5     6    2
    13     5     7    1
    14     7     8   ar
    15     8     9   ar
    16     9    19    1
    17    19    20    1
    18    20    21    1
    19    21    22   ar
    20    22    23   ar
    21    23    24   ar
    22    24    25    1
    23    24    26   ar
    24    26    27   ar
    25     9    10   ar
    26    10    11   ar
    27    11     2    1
    28    17    12   ar
    29    11     7   ar
    30    27    21   ar
@<TRIPOS>MOLECULE
*****
 27 30 0 0 0
SMALL
GASTEIGER

@<TRIPOS>ATOM
      1 C           2.1676    0.7583   23.9623 C.3     1  UNL1        0.0282
      2 C           2.2136    0.7024   22.4640 C.3     1  UNL1        0.1255
      3 C           3.3197   -0.0402   21.7748 C.3     1  UNL1        0.1229
      4 N           3.3657   -0.0961   20.2766 N.am    1  UNL1       -0.2486
      5 C           2.3056    0.5907   19.4675 C.2     1  UNL1        0.2703
      6 O           2.3516    0.5348   17.9692 O.2     1  UNL1       -0.2679
      7 C           1.1995    1.3334   20.1568 C.ar    1  UNL1        0.1329
      8 C           0.0243    2.1010   19.6280 C.ar    1  UNL1        0.0435
      9 C          -0.7480    2.6312   20.7994 C.ar    1  UNL1        0.1239
     10 N          -0.0502    2.1913   22.0522 N.ar    1  UNL1       -0.1698
     11 N           1.1535    1.3892   21.6550 N.ar    1  UNL1       -0.2469
     12 C           4.4718   -0.8387   19.5873 C.ar    1  UNL1        0.1005
     13 C           5.7728   -0.1495   19.3003 C.ar    1  UNL1        0.0204
     14 C           6.8789   -0.8921   18.6110 C.ar    1  UNL1        0.0221
     15 C           6.6840   -2.3240   18.2089 C.ar    1  UNL1        0.1014
     16 N           5.3830   -3.0132   18.4960 N.ar    1  UNL1       -0.2154
     17 C           4.2770   -2.2706   19.1852 C.ar    1  UNL1        0.2360
     18 F           2.9759   -2.9598   19.4723 F       1  UNL1       -0.1818
     19 C          -1.9987    3.4565   20.7303 C.3     1  UNL1        0.2543
     20 O          -3.3370    2.7844   20.6457 O.3     1  UNL1       -0.4535
     21 C          -4.5062    3.3438   21.4008 C.ar    1  UNL1        0.2253
     22 C          -4.5616    3.2224   22.8948 C.ar    1  UNL1        0.0586
     23 C          -5.7307    3.7818   23.6500 C.ar    1  UNL1        0.0178
     24 C          -6.8445    4.4625   22.9111 C.ar    1  UNL1        0.0770
     25 CL         -8.0136    5.0219   23.6662 Cl      1  UNL1       -0.0806
     26 C          -6.7892    4.5840   21.4170 C.ar    1  UNL1        0.1134
     27 N          -5.6200    4.0246   20.6619 N.ar    1  UNL1       -0.2092
@<TRIPOS>BOND
     1     2     1    1
     2     2     3    1
     3     3     4    1
     4     4    12    1
     5    12    13   ar
     6    13    14   ar
     7    14    15   ar
     8    15    16   ar
     9    16    17   ar
    10    17    18    1
    11     4     5   am
    12     5     6    2
    13     5     7    1
    14     7     8   ar
    15     8     9   ar
    16     9    19    1
    17    19    20    1
    18    20    21    1
    19    21    22   ar
    20    22    23   ar
    21    23    24   ar
    22    24    25    1
    23    24    26   ar
    24    26    27   ar
    25     9    10   ar
    26    10    11   ar
    27    11     2    1
    28    17    12   ar
    29    11     7   ar
    30    27    21   ar
@<TRIPOS>MOLECULE
*****
 27 30 0 0 0
SMALL
GASTEIGER

@<TRIPOS>ATOM
      1 C          -2.1608    3.4744   25.5490 C.3     1  UNL1        0.0282
      2 C          -0.8735    2.7047   25.5697 C.3     1  UNL1        0.1255
      3 C          -0.2731    2.2824   26.8778 C.3     1  UNL1        0.1229
      4 N           1.0141    1.5127   26.8986 N.am    1  UNL1       -0.2486
      5 C           1.7012    1.1653   25.6111 C.2     1  UNL1        0.2703
      6 O           2.9885    0.3956   25.6319 O.2     1  UNL1       -0.2679
      7 C           1.1008    1.5876   24.3030 C.ar    1  UNL1        0.1329
      8 C           1.5462    1.3909   22.8842 C.ar    1  UNL1        0.0435
      9 C           0.5341    2.0390   21.9867 C.ar    1  UNL1        0.1239
     10 N          -0.5368    2.6363   22.8507 N.ar    1  UNL1       -0.1698
     11 N          -0.1865    2.3573   24.2823 N.ar    1  UNL1       -0.2469
     12 C           1.6145    1.0904   28.2068 C.ar    1  UNL1        0.1005
     13 C           2.8517    1.7675   28.7175 C.ar    1  UNL1        0.0204
     14 C           3.4521    1.3452   30.0257 C.ar    1  UNL1        0.0221
     15 C           2.8153    0.2458   30.8230 C.ar    1  UNL1        0.1014
     16 N           1.5780   -0.4313   30.3123 N.ar    1  UNL1       -0.2154
     17 C           0.9777   -0.0090   29.0041 C.ar    1  UNL1        0.2360
     18 F          -0.2596   -0.6860   28.4933 F       1  UNL1       -0.1818
     19 C           0.5841    2.0823   20.4881 C.3     1  UNL1        0.2543
     20 O           0.3886    0.8245   19.6946 O.3     1  UNL1       -0.4535
     21 C           1.5739   -0.0081   19.3049 C.ar    1  UNL1        0.2253
     22 C           2.3938    0.3687   18.1066 C.ar    1  UNL1        0.0586
     23 C           3.5791   -0.4639   17.7169 C.ar    1  UNL1        0.0178
     24 C           3.9445   -1.6733   18.5254 C.ar    1  UNL1        0.0770
     25 CL          5.1298   -2.5059   18.1356 Cl      1  UNL1       -0.0806
     26 C           3.1247   -2.0502   19.7236 C.ar    1  UNL1        0.1134
     27 N           1.9394   -1.2176   20.1134 N.ar    1  UNL1       -0.2092
@<TRIPOS>BOND
     1     2     1    1
     2     2     3    1
     3     3     4    1
     4     4    12    1
     5    12    13   ar
     6    13    14   ar
     7    14    15   ar
     8    15    16   ar
     9    16    17   ar
    10    17    18    1
    11     4     5   am
    12     5     6    2
    13     5     7    1
    14     7     8   ar
    15     8     9   ar
    16     9    19    1
    17    19    20    1
    18    20    21    1
    19    21    22   ar
    20    22    23   ar
    21    23    24   ar
    22    24    25    1
    23    24    26   ar
    24    26    27   ar
    25     9    10   ar
    26    10    11   ar
    27    11     2    1
    28    17    12   ar
    29    11     7   ar
    30    27    21   ar
