@<TRIPOS>MOLECULE
*****
 37 39 0 0 0
SMALL
GASTEIGER

@<TRIPOS>ATOM
      1 C          -8.9400  -17.4814   23.4455 C.ar    1  UNL1        0.0053
      2 C          -8.2047  -16.3698   24.1337 C.ar    1  UNL1        0.0033
      3 C          -6.7253  -16.2164   23.9397 C.ar    1  UNL1        0.0382
      4 C          -5.9811  -17.1746   23.0577 C.ar    1  UNL1        0.1528
      5 C          -6.7165  -18.2862   22.3695 C.ar    1  UNL1        0.0882
      6 C          -8.1959  -18.4396   22.5635 C.ar    1  UNL1        0.0181
      7 N          -5.9723  -19.2445   21.4875 N.am    1  UNL1       -0.2512
      8 C          -4.4929  -19.0911   21.2935 C.2     1  UNL1        0.2742
      9 O          -4.0681  -19.8494   20.6300 O.2     1  UNL1       -0.2705
     10 C          -3.7575  -17.9795   21.9817 C.3     1  UNL1        0.2867
     11 C          -2.6274  -17.0938   22.4159 C.3     1  UNL1        0.0623
     12 O          -4.5016  -17.0212   22.8638 O.3     1  UNL1       -0.4641
     13 C         -10.9510  -18.7206   24.5275 C.ar    1  UNL1        0.0645
     14 N         -12.4304  -18.8740   24.7214 N.ar    1  UNL1       -0.2183
     15 C         -13.3786  -17.9416   24.0273 C.ar    1  UNL1        0.2145
     16 N         -14.8580  -18.0951   24.2212 N.pl3   1  UNL1       -0.3274
     17 N         -12.8472  -16.8558   23.1393 N.ar    1  UNL1       -0.1995
     18 C         -11.3676  -16.7024   22.9454 C.ar    1  UNL1        0.1293
     19 N         -10.8362  -15.6166   22.0573 N.pl3   1  UNL1       -0.3425
     20 C         -10.4196  -17.6348   23.6395 C.ar    1  UNL1        0.0449
     21 H         -15.2068  -18.8077   24.8041 H       1  UNL1        0.1452
     22 H         -15.4803  -17.4831   23.7657 H       1  UNL1        0.1452
     23 H         -11.4585  -15.0046   21.6018 H       1  UNL1        0.1437
     24 H          -9.8652  -15.5159   21.9300 H       1  UNL1        0.1437
     25 C          -9.6331  -20.9590   24.5830 C.3     1  UNL1        0.0067
     26 C         -10.0028  -19.6530   25.2216 C.3     1  UNL1        0.0460
     27 C          -2.6209  -18.6301   21.2504 C.3     1  UNL1        0.4387
     28 F          -1.4843  -19.2808   20.5191 F       1  UNL1       -0.1661
     29 F          -2.8425  -17.7096   20.0871 F       1  UNL1       -0.1661
     30 F          -2.3596  -19.3540   22.0272 F       1  UNL1       -0.1661
     31 C          -6.7077  -20.3561   20.7993 C.3     1  UNL1        0.1196
     32 C          -7.3583  -20.1146   19.4695 C.3     1  UNL1        0.1113
     33 N          -8.3602  -19.0090   19.3145 N.am    1  UNL1       -0.3026
     34 C          -9.7774  -19.2130   19.7617 C.2     1  UNL1        0.2230
     35 C         -10.7792  -18.1075   19.6068 C.3     1  UNL1        0.0946
     36 O         -10.1926  -20.5226   20.3639 O.2     1  UNL1       -0.2751
     37 H          -8.0876  -18.1495   18.9193 H       1  UNL1        0.1495
@<TRIPOS>BOND
     1    25    26    1
     2    26    13    1
     3    13    14   ar
     4    14    15   ar
     5    15    16    1
     6    15    17   ar
     7    17    18   ar
     8    18    19    1
     9    18    20   ar
    10    20     1    1
    11     1     2   ar
    12     2     3   ar
    13     3     4   ar
    14     4     5   ar
    15     5     6   ar
    16     5     7    1
    17     7    31    1
    18    31    32    1
    19    32    33    1
    20    33    34   am
    21    34    35    1
    22    34    36    2
    23     7     8   am
    24     8     9    2
    25     8    10    1
    26    10    11    1
    27    10    27    1
    28    27    28    1
    29    27    29    1
    30    27    30    1
    31    10    12    1
    32    20    13   ar
    33     6     1   ar
    34    12     4    1
    35    16    21    1
    36    16    22    1
    37    19    23    1
    38    19    24    1
    39    33    37    1
@<TRIPOS>MOLECULE
*****
 37 39 0 0 0
SMALL
GASTEIGER

@<TRIPOS>ATOM
      1 C          -9.0471  -18.9394   22.2975 C.ar    1  UNL1        0.0053
      2 C          -9.9176  -19.5504   23.3553 C.ar    1  UNL1        0.0033
      3 C          -9.9108  -18.9913   24.7472 C.ar    1  UNL1        0.0382
      4 C          -9.0335  -17.8213   25.0812 C.ar    1  UNL1        0.1528
      5 C          -8.1630  -17.2104   24.0234 C.ar    1  UNL1        0.0882
      6 C          -8.1699  -17.7695   22.6315 C.ar    1  UNL1        0.0181
      7 N          -7.2858  -16.0405   24.3574 N.am    1  UNL1       -0.2512
      8 C          -7.2790  -15.4814   25.7493 C.2     1  UNL1        0.2742
      9 O          -6.5999  -14.6322   25.8653 O.2     1  UNL1       -0.2705
     10 C          -8.1495  -16.0923   26.8072 C.3     1  UNL1        0.2867
     11 C          -8.7929  -16.3250   28.1421 C.3     1  UNL1        0.0623
     12 O          -9.0267  -17.2623   26.4732 O.3     1  UNL1       -0.4641
     13 C         -10.2830  -19.3766   20.0543 C.ar    1  UNL1        0.0645
     14 N         -10.2898  -19.9356   18.6624 N.ar    1  UNL1       -0.2183
     15 C          -9.0675  -20.6166   18.1216 C.ar    1  UNL1        0.2145
     16 N          -9.0743  -21.1756   16.7297 N.pl3   1  UNL1       -0.3274
     17 N          -7.8384  -20.7385   18.9728 N.ar    1  UNL1       -0.1995
     18 C          -7.8316  -20.1794   20.3648 C.ar    1  UNL1        0.1293
     19 N          -6.6026  -20.3013   21.2160 N.pl3   1  UNL1       -0.3425
     20 C          -9.0539  -19.4985   20.9055 C.ar    1  UNL1        0.0449
     21 H          -9.8810  -21.0955   16.1711 H       1  UNL1        0.1452
     22 H          -8.2721  -21.6225   16.3748 H       1  UNL1        0.1452
     23 H          -5.8004  -20.7483   20.8611 H       1  UNL1        0.1437
     24 H          -6.5981  -19.9344   22.1296 H       1  UNL1        0.1437
     25 C         -11.7014  -17.2243   20.3792 C.3     1  UNL1        0.0067
     26 C         -11.5053  -18.6956   20.5951 C.3     1  UNL1        0.0460
     27 C          -7.4957  -15.0032   27.6048 C.3     1  UNL1        0.4387
     28 F          -6.8419  -13.9139   28.4025 F       1  UNL1       -0.1661
     29 F          -6.2105  -15.7766   27.6075 F       1  UNL1       -0.1661
     30 F          -8.3675  -14.3467   27.6738 F       1  UNL1       -0.1661
     31 C          -6.4153  -15.4295   23.2996 C.3     1  UNL1        0.1196
     32 C          -4.9222  -15.5050   23.4212 C.3     1  UNL1        0.1113
     33 N          -4.2258  -16.8282   23.3015 N.am    1  UNL1       -0.3026
     34 C          -2.9957  -16.9543   22.4526 C.2     1  UNL1        0.2230
     35 C          -2.2994  -18.2774   22.3329 C.3     1  UNL1        0.0946
     36 O          -2.4618  -15.7571   21.7232 O.2     1  UNL1       -0.2751
     37 H          -4.5762  -17.6139   23.7802 H       1  UNL1        0.1495
@<TRIPOS>BOND
     1    25    26    1
     2    26    13    1
     3    13    14   ar
     4    14    15   ar
     5    15    16    1
     6    15    17   ar
     7    17    18   ar
     8    18    19    1
     9    18    20   ar
    10    20     1    1
    11     1     2   ar
    12     2     3   ar
    13     3     4   ar
    14     4     5   ar
    15     5     6   ar
    16     5     7    1
    17     7    31    1
    18    31    32    1
    19    32    33    1
    20    33    34   am
    21    34    35    1
    22    34    36    2
    23     7     8   am
    24     8     9    2
    25     8    10    1
    26    10    11    1
    27    10    27    1
    28    27    28    1
    29    27    29    1
    30    27    30    1
    31    10    12    1
    32    20    13   ar
    33     6     1   ar
    34    12     4    1
    35    16    21    1
    36    16    22    1
    37    19    23    1
    38    19    24    1
    39    33    37    1
@<TRIPOS>MOLECULE
*****
 37 39 0 0 0
SMALL
GASTEIGER

@<TRIPOS>ATOM
      1 C          -0.2946    2.7607   27.1420 C.ar    1  UNL1        0.0053
      2 C           0.7157    2.5413   26.0553 C.ar    1  UNL1        0.0033
      3 C           0.3224    2.7187   24.6187 C.ar    1  UNL1        0.0382
      4 C          -1.0813    3.1154   24.2689 C.ar    1  UNL1        0.1528
      5 C          -2.0916    3.3348   25.3556 C.ar    1  UNL1        0.0882
      6 C          -1.6983    3.1574   26.7922 C.ar    1  UNL1        0.0181
      7 N          -3.4952    3.7316   25.0058 N.am    1  UNL1       -0.2512
      8 C          -3.8886    3.9089   23.5693 C.2     1  UNL1        0.2742
      9 O          -4.9358    4.1982   23.4456 O.2     1  UNL1       -0.2705
     10 C          -2.8782    3.6896   22.4824 C.3     1  UNL1        0.2867
     11 C          -2.2836    3.5968   21.1084 C.3     1  UNL1        0.0623
     12 O          -1.4746    3.2928   22.8322 O.3     1  UNL1       -0.4641
     13 C           0.0205    1.2276   29.2158 C.ar    1  UNL1        0.0645
     14 N           0.4137    1.0502   30.6524 N.ar    1  UNL1       -0.2183
     15 C           0.8852    2.2285   31.4520 C.ar    1  UNL1        0.2145
     16 N           1.2785    2.0511   32.8886 N.pl3   1  UNL1       -0.3274
     17 N           0.9634    3.5843   30.8149 N.ar    1  UNL1       -0.1995
     18 C           0.5701    3.7616   29.3782 C.ar    1  UNL1        0.1293
     19 N           0.6483    5.1174   28.7411 N.pl3   1  UNL1       -0.3425
     20 C           0.0987    2.5833   28.5787 C.ar    1  UNL1        0.0449
     21 H           1.2271    1.1613   33.3067 H       1  UNL1        0.1452
     22 H           1.5879    2.8245   33.4133 H       1  UNL1        0.1452
     23 H           0.9577    5.8907   29.2659 H       1  UNL1        0.1437
     24 H           0.3902    5.2338   27.7982 H       1  UNL1        0.1437
     25 C          -1.6583   -0.7229   28.8591 C.3     1  UNL1        0.0067
     26 C          -0.4510    0.0492   28.4162 C.3     1  UNL1        0.0460
     27 C          -4.0753    4.0541   21.6554 C.3     1  UNL1        0.4387
     28 F          -5.2725    4.4187   20.8284 F       1  UNL1       -0.1661
     29 F          -4.5010    2.6159   21.6378 F       1  UNL1       -0.1661
     30 F          -3.8737    5.1271   21.5947 F       1  UNL1       -0.1661
     31 C          -4.5056    3.9509   26.0926 C.3     1  UNL1        0.1196
     32 C          -4.8157    5.3426   26.5585 C.3     1  UNL1        0.1113
     33 N          -4.2694    5.8350   27.8659 N.am    1  UNL1       -0.3026
     34 C          -2.9330    6.5147   27.9120 C.2     1  UNL1        0.2230
     35 C          -2.3867    7.0071   29.2193 C.3     1  UNL1        0.0946
     36 O          -2.1430    6.7020   26.6507 O.2     1  UNL1       -0.2751
     37 H          -4.7880    5.7121   28.6937 H       1  UNL1        0.1495
@<TRIPOS>BOND
     1    25    26    1
     2    26    13    1
     3    13    14   ar
     4    14    15   ar
     5    15    16    1
     6    15    17   ar
     7    17    18   ar
     8    18    19    1
     9    18    20   ar
    10    20     1    1
    11     1     2   ar
    12     2     3   ar
    13     3     4   ar
    14     4     5   ar
    15     5     6   ar
    16     5     7    1
    17     7    31    1
    18    31    32    1
    19    32    33    1
    20    33    34   am
    21    34    35    1
    22    34    36    2
    23     7     8   am
    24     8     9    2
    25     8    10    1
    26    10    11    1
    27    10    27    1
    28    27    28    1
    29    27    29    1
    30    27    30    1
    31    10    12    1
    32    20    13   ar
    33     6     1   ar
    34    12     4    1
    35    16    21    1
    36    16    22    1
    37    19    23    1
    38    19    24    1
    39    33    37    1
@<TRIPOS>MOLECULE
*****
 37 39 0 0 0
SMALL
GASTEIGER

@<TRIPOS>ATOM
      1 C           0.3720    2.3782   26.9637 C.ar    1  UNL1        0.0053
      2 C           1.3694    1.7224   26.0554 C.ar    1  UNL1        0.0033
      3 C           1.1681    1.7587   24.5695 C.ar    1  UNL1        0.0382
      4 C          -0.0307    2.4510   23.9918 C.ar    1  UNL1        0.1528
      5 C          -1.0281    3.1068   24.9000 C.ar    1  UNL1        0.0882
      6 C          -0.8268    3.0704   26.3859 C.ar    1  UNL1        0.0181
      7 N          -2.2269    3.7990   24.3223 N.am    1  UNL1       -0.2512
      8 C          -2.4282    3.8354   22.8363 C.2     1  UNL1        0.2742
      9 O          -3.3365    4.3680   22.5412 O.2     1  UNL1       -0.2705
     10 C          -1.4308    3.1795   21.9280 C.3     1  UNL1        0.2867
     11 C          -0.7699    2.7071   20.6670 C.3     1  UNL1        0.0623
     12 O          -0.2320    2.4873   22.5057 O.3     1  UNL1       -0.4641
     13 C           0.2114    1.1102   29.2256 C.ar    1  UNL1        0.0645
     14 N           0.4127    1.0738   30.7116 N.ar    1  UNL1       -0.2183
     15 C           0.9759    2.2691   31.4217 C.ar    1  UNL1        0.2145
     16 N           1.1772    2.2327   32.9076 N.pl3   1  UNL1       -0.3274
     17 N           1.3378    3.5008   30.6458 N.ar    1  UNL1       -0.1995
     18 C           1.1365    3.5371   29.1597 C.ar    1  UNL1        0.1293
     19 N           1.4983    4.7688   28.3838 N.pl3   1  UNL1       -0.3425
     20 C           0.5733    2.3419   28.4497 C.ar    1  UNL1        0.0449
     21 H           0.9397    1.4243   33.4169 H       1  UNL1        0.1452
     22 H           1.5468    3.0172   33.3737 H       1  UNL1        0.1452
     23 H           1.8679    5.5533   28.8498 H       1  UNL1        0.1437
     24 H           1.3662    4.7926   27.4085 H       1  UNL1        0.1437
     25 C          -1.6863   -0.6377   28.9199 C.3     1  UNL1        0.0067
     26 C          -0.3517   -0.0851   28.5155 C.3     1  UNL1        0.0460
     27 C          -2.4000    3.7077   20.9124 C.3     1  UNL1        0.4387
     28 F          -3.3694    4.2358   19.8967 F       1  UNL1       -0.1661
     29 F          -1.6313    4.9940   20.8477 F       1  UNL1       -0.1661
     30 F          -3.0424    2.8238   20.8689 F       1  UNL1       -0.1661
     31 C          -3.2243    4.4549   25.2305 C.3     1  UNL1        0.1196
     32 C          -4.4692    3.7207   25.6322 C.3     1  UNL1        0.1113
     33 N          -5.5769    3.5237   24.6401 N.am    1  UNL1       -0.3026
     34 C          -6.5784    4.6159   24.4075 C.2     1  UNL1        0.2230
     35 C          -7.6861    4.4189   23.4154 C.3     1  UNL1        0.0946
     36 O          -6.4722    5.9051   25.1670 O.2     1  UNL1       -0.2751
     37 H          -5.6466    2.6776   24.1417 H       1  UNL1        0.1495
@<TRIPOS>BOND
     1    25    26    1
     2    26    13    1
     3    13    14   ar
     4    14    15   ar
     5    15    16    1
     6    15    17   ar
     7    17    18   ar
     8    18    19    1
     9    18    20   ar
    10    20     1    1
    11     1     2   ar
    12     2     3   ar
    13     3     4   ar
    14     4     5   ar
    15     5     6   ar
    16     5     7    1
    17     7    31    1
    18    31    32    1
    19    32    33    1
    20    33    34   am
    21    34    35    1
    22    34    36    2
    23     7     8   am
    24     8     9    2
    25     8    10    1
    26    10    11    1
    27    10    27    1
    28    27    28    1
    29    27    29    1
    30    27    30    1
    31    10    12    1
    32    20    13   ar
    33     6     1   ar
    34    12     4    1
    35    16    21    1
    36    16    22    1
    37    19    23    1
    38    19    24    1
    39    33    37    1
@<TRIPOS>MOLECULE
*****
 37 39 0 0 0
SMALL
GASTEIGER

@<TRIPOS>ATOM
      1 C          -3.4868  -17.3259   22.6531 C.ar    1  UNL1        0.0053
      2 C          -2.8224  -17.8547   23.8896 C.ar    1  UNL1        0.0033
      3 C          -3.4664  -17.6572   25.2299 C.ar    1  UNL1        0.0382
      4 C          -4.7747  -16.9310   25.3336 C.ar    1  UNL1        0.1528
      5 C          -5.4391  -16.4022   24.0971 C.ar    1  UNL1        0.0882
      6 C          -4.7951  -16.5997   22.7569 C.ar    1  UNL1        0.0181
      7 N          -6.7474  -15.6759   24.2008 N.am    1  UNL1       -0.2512
      8 C          -7.3914  -15.4784   25.5411 C.2     1  UNL1        0.2742
      9 O          -8.3391  -14.9359   25.4839 O.2     1  UNL1       -0.2705
     10 C          -6.7270  -16.0072   26.7777 C.3     1  UNL1        0.2867
     11 C          -6.4882  -16.3217   28.2247 C.3     1  UNL1        0.0623
     12 O          -5.4187  -16.7335   26.6739 O.3     1  UNL1       -0.4641
     13 C          -3.3201  -18.6184   20.4055 C.ar    1  UNL1        0.0645
     14 N          -2.6762  -18.8159   19.0652 N.ar    1  UNL1       -0.2183
     15 C          -1.5549  -17.9184   18.6322 C.ar    1  UNL1        0.2145
     16 N          -0.9110  -18.1159   17.2920 N.pl3   1  UNL1       -0.3274
     17 N          -1.0777  -16.8234   19.5396 N.ar    1  UNL1       -0.1995
     18 C          -1.7216  -16.6259   20.8799 C.ar    1  UNL1        0.1293
     19 N          -1.2444  -15.5309   21.7872 N.pl3   1  UNL1       -0.3425
     20 C          -2.8428  -17.5234   21.3128 C.ar    1  UNL1        0.0449
     21 H          -1.2243  -18.8346   16.6965 H       1  UNL1        0.1452
     22 H          -0.1752  -17.5268   17.0078 H       1  UNL1        0.1452
     23 H          -0.5085  -14.9419   21.5031 H       1  UNL1        0.1437
     24 H          -1.6670  -15.4013   22.6669 H       1  UNL1        0.1437
     25 C          -5.8197  -19.3159   20.2818 C.3     1  UNL1        0.0067
     26 C          -4.4413  -19.5159   20.8385 C.3     1  UNL1        0.0460
     27 C          -7.9524  -15.3902   27.3839 C.3     1  UNL1        0.4387
     28 F          -9.1779  -14.7731   27.9903 F       1  UNL1       -0.1661
     29 F          -8.7103  -16.6627   27.1473 F       1  UNL1       -0.1661
     30 F          -7.5129  -14.4145   27.6091 F       1  UNL1       -0.1661
     31 C          -7.4118  -15.1471   22.9644 C.3     1  UNL1        0.1196
     32 C          -8.4481  -15.9709   22.2590 C.3     1  UNL1        0.1113
     33 N          -9.8613  -15.9891   22.7616 N.am    1  UNL1       -0.3026
     34 C         -10.9949  -16.2103   21.8045 C.2     1  UNL1        0.2230
     35 C         -12.4081  -16.2285   22.3070 C.3     1  UNL1        0.0946
     36 O         -10.7152  -16.4131   20.3447 O.2     1  UNL1       -0.2751
     37 H         -10.0448  -15.8560   23.7196 H       1  UNL1        0.1495
@<TRIPOS>BOND
     1    25    26    1
     2    26    13    1
     3    13    14   ar
     4    14    15   ar
     5    15    16    1
     6    15    17   ar
     7    17    18   ar
     8    18    19    1
     9    18    20   ar
    10    20     1    1
    11     1     2   ar
    12     2     3   ar
    13     3     4   ar
    14     4     5   ar
    15     5     6   ar
    16     5     7    1
    17     7    31    1
    18    31    32    1
    19    32    33    1
    20    33    34   am
    21    34    35    1
    22    34    36    2
    23     7     8   am
    24     8     9    2
    25     8    10    1
    26    10    11    1
    27    10    27    1
    28    27    28    1
    29    27    29    1
    30    27    30    1
    31    10    12    1
    32    20    13   ar
    33     6     1   ar
    34    12     4    1
    35    16    21    1
    36    16    22    1
    37    19    23    1
    38    19    24    1
    39    33    37    1
@<TRIPOS>MOLECULE
*****
 37 39 0 0 0
SMALL
GASTEIGER

@<TRIPOS>ATOM
      1 C           6.8886   -2.6535   31.4868 C.ar    1  UNL1        0.0053
      2 C           7.8447   -2.0436   32.4685 C.ar    1  UNL1        0.0033
      3 C           7.4256   -0.8579   33.2860 C.ar    1  UNL1        0.0382
      4 C           6.0503   -0.2820   33.1217 C.ar    1  UNL1        0.1528
      5 C           5.0941   -0.8919   32.1400 C.ar    1  UNL1        0.0882
      6 C           5.5133   -2.0777   31.3226 C.ar    1  UNL1        0.0181
      7 N           3.7188   -0.3161   31.9758 N.am    1  UNL1       -0.2512
      8 C           3.2997    0.8697   32.7932 C.2     1  UNL1        0.2742
      9 O           2.2771    1.1942   32.5821 O.2     1  UNL1       -0.2705
     10 C           4.2559    1.4797   33.7750 C.3     1  UNL1        0.2867
     11 C           4.8000    2.4006   34.8265 C.3     1  UNL1        0.0623
     12 O           5.6311    0.9038   33.9392 O.3     1  UNL1       -0.4641
     13 C           7.9687   -3.6367   29.3382 C.ar    1  UNL1        0.0645
     14 N           8.3879   -4.8224   28.5207 N.ar    1  UNL1       -0.2183
     15 C           8.1460   -6.2109   29.0343 C.ar    1  UNL1        0.2145
     16 N           8.5651   -7.3966   28.2168 N.pl3   1  UNL1       -0.3274
     17 N           7.4849   -6.4135   30.3655 N.ar    1  UNL1       -0.1995
     18 C           7.0658   -5.2277   31.1830 C.ar    1  UNL1        0.1293
     19 N           6.4048   -5.4303   32.5141 N.pl3   1  UNL1       -0.3425
     20 C           7.3077   -3.8393   30.6693 C.ar    1  UNL1        0.0449
     21 H           8.9989   -7.2636   27.3431 H       1  UNL1        0.1452
     22 H           8.4063   -8.3078   28.5539 H       1  UNL1        0.1452
     23 H           6.2460   -6.3416   32.8513 H       1  UNL1        0.1437
     24 H           6.1297   -4.6521   33.0507 H       1  UNL1        0.1437
     25 C           7.2377   -1.6215   27.8703 C.3     1  UNL1        0.0067
     26 C           8.2106   -2.2482   28.8245 C.3     1  UNL1        0.0460
     27 C           3.0696    2.3753   33.9759 C.3     1  UNL1        0.4387
     28 F           1.8832    3.2710   34.1769 F       1  UNL1       -0.1661
     29 F           3.5766    3.2884   32.8993 F       1  UNL1       -0.1661
     30 F           2.5972    1.7942   34.7728 F       1  UNL1       -0.1661
     31 C           2.7627   -0.9260   30.9941 C.3     1  UNL1        0.1196
     32 C           2.5795   -0.3053   29.6409 C.3     1  UNL1        0.1113
     33 N           1.3534   -0.6142   28.8338 N.am    1  UNL1       -0.3026
     34 C           0.0511    0.0534   29.1628 C.2     1  UNL1        0.2230
     35 C          -1.1750   -0.2555   28.3558 C.3     1  UNL1        0.0946
     36 O          -0.0252    1.0299   30.2989 O.2     1  UNL1       -0.2751
     37 H           1.4035   -1.2551   28.0882 H       1  UNL1        0.1495
@<TRIPOS>BOND
     1    25    26    1
     2    26    13    1
     3    13    14   ar
     4    14    15   ar
     5    15    16    1
     6    15    17   ar
     7    17    18   ar
     8    18    19    1
     9    18    20   ar
    10    20     1    1
    11     1     2   ar
    12     2     3   ar
    13     3     4   ar
    14     4     5   ar
    15     5     6   ar
    16     5     7    1
    17     7    31    1
    18    31    32    1
    19    32    33    1
    20    33    34   am
    21    34    35    1
    22    34    36    2
    23     7     8   am
    24     8     9    2
    25     8    10    1
    26    10    11    1
    27    10    27    1
    28    27    28    1
    29    27    29    1
    30    27    30    1
    31    10    12    1
    32    20    13   ar
    33     6     1   ar
    34    12     4    1
    35    16    21    1
    36    16    22    1
    37    19    23    1
    38    19    24    1
    39    33    37    1
@<TRIPOS>MOLECULE
*****
 37 39 0 0 0
SMALL
GASTEIGER

@<TRIPOS>ATOM
      1 C           0.6128    1.9940   26.8953 C.ar    1  UNL1        0.0053
      2 C          -0.6044    2.5089   26.1860 C.ar    1  UNL1        0.0033
      3 C          -0.7317    2.3461   24.7003 C.ar    1  UNL1        0.0382
      4 C           0.3582    1.6684   23.9240 C.ar    1  UNL1        0.1528
      5 C           1.5755    1.1535   24.6333 C.ar    1  UNL1        0.0882
      6 C           1.7028    1.3163   26.1189 C.ar    1  UNL1        0.0181
      7 N           2.6654    0.4758   23.8569 N.am    1  UNL1       -0.2512
      8 C           2.5381    0.3130   22.3713 C.2     1  UNL1        0.2742
      9 O           3.3957   -0.1954   21.9222 O.2     1  UNL1       -0.2705
     10 C           1.3208    0.8279   21.6619 C.3     1  UNL1        0.2867
     11 C           0.3671    1.1458   20.5487 C.3     1  UNL1        0.0623
     12 O           0.2309    1.5056   22.4382 O.3     1  UNL1       -0.4641
     13 C           0.3299    1.0409   29.2957 C.ar    1  UNL1        0.0645
     14 N           0.4573    1.2037   30.7813 N.ar    1  UNL1       -0.2183
     15 C           0.9948    2.4823   31.3525 C.ar    1  UNL1        0.2145
     16 N           1.1221    2.6451   32.8381 N.pl3   1  UNL1       -0.3274
     17 N           1.4050    3.5982   30.4378 N.ar    1  UNL1       -0.1995
     18 C           1.2777    3.4354   28.9521 C.ar    1  UNL1        0.1293
     19 N           1.6879    4.5513   28.0375 N.pl3   1  UNL1       -0.3425
     20 C           0.7402    2.1568   28.3810 C.ar    1  UNL1        0.0449
     21 H           0.8529    1.9127   33.4384 H       1  UNL1        0.1452
     22 H           1.4749    3.4843   33.2129 H       1  UNL1        0.1452
     23 H           2.0407    5.3905   28.4123 H       1  UNL1        0.1437
     24 H           1.6043    4.4445   27.0624 H       1  UNL1        0.1437
     25 C          -1.6482   -0.6028   28.9279 C.3     1  UNL1        0.0067
     26 C          -0.2076   -0.2378   28.7245 C.3     1  UNL1        0.0460
     27 C           2.0795    0.2606   20.4989 C.3     1  UNL1        0.4387
     28 F           2.8383   -0.3067   19.3359 F       1  UNL1       -0.1661
     29 F           1.3806   -1.0536   20.6841 F       1  UNL1       -0.1661
     30 F           2.6527    1.1611   20.2616 F       1  UNL1       -0.1661
     31 C           3.8826   -0.0391   24.5662 C.3     1  UNL1        0.1196
     32 C           3.9023   -1.4403   25.1013 C.3     1  UNL1        0.1113
     33 N           4.9458   -1.8475   26.0991 N.am    1  UNL1       -0.3026
     34 C           4.6361   -1.8088   27.5663 C.2     1  UNL1        0.2230
     35 C           5.6795   -2.2160   28.5640 C.3     1  UNL1        0.0946
     36 O           3.2829   -1.3630   28.0357 O.2     1  UNL1       -0.2751
     37 H           5.8339   -2.1401   25.7910 H       1  UNL1        0.1495
@<TRIPOS>BOND
     1    25    26    1
     2    26    13    1
     3    13    14   ar
     4    14    15   ar
     5    15    16    1
     6    15    17   ar
     7    17    18   ar
     8    18    19    1
     9    18    20   ar
    10    20     1    1
    11     1     2   ar
    12     2     3   ar
    13     3     4   ar
    14     4     5   ar
    15     5     6   ar
    16     5     7    1
    17     7    31    1
    18    31    32    1
    19    32    33    1
    20    33    34   am
    21    34    35    1
    22    34    36    2
    23     7     8   am
    24     8     9    2
    25     8    10    1
    26    10    11    1
    27    10    27    1
    28    27    28    1
    29    27    29    1
    30    27    30    1
    31    10    12    1
    32    20    13   ar
    33     6     1   ar
    34    12     4    1
    35    16    21    1
    36    16    22    1
    37    19    23    1
    38    19    24    1
    39    33    37    1
@<TRIPOS>MOLECULE
*****
 37 39 0 0 0
SMALL
GASTEIGER

@<TRIPOS>ATOM
      1 C          -9.0651  -18.8528   22.2293 C.ar    1  UNL1        0.0053
      2 C         -10.0685  -19.3187   23.2423 C.ar    1  UNL1        0.0033
      3 C         -10.0678  -18.7327   24.6230 C.ar    1  UNL1        0.0382
      4 C          -9.0636  -17.6809   24.9909 C.ar    1  UNL1        0.1528
      5 C          -8.0602  -17.2150   23.9779 C.ar    1  UNL1        0.0882
      6 C          -8.0610  -17.8010   22.5972 C.ar    1  UNL1        0.0181
      7 N          -7.0561  -16.1631   24.3458 N.am    1  UNL1       -0.2512
      8 C          -7.0553  -15.5772   25.7265 C.2     1  UNL1        0.2742
      9 O          -6.2774  -14.8223   25.8699 O.2     1  UNL1       -0.2705
     10 C          -8.0588  -16.0430   26.7396 C.3     1  UNL1        0.2867
     11 C          -8.8033  -16.1574   28.0367 C.3     1  UNL1        0.0623
     12 O          -9.0629  -17.0949   26.3717 O.3     1  UNL1       -0.4641
     13 C          -7.8358  -20.1158   20.3204 C.ar    1  UNL1        0.0645
     14 N          -7.8365  -20.7017   18.9396 N.ar    1  UNL1       -0.2183
     15 C          -9.0672  -20.6108   18.0868 C.ar    1  UNL1        0.2145
     16 N          -9.0678  -21.1967   16.7060 N.pl3   1  UNL1       -0.3274
     17 N         -10.2972  -19.9338   18.6149 N.ar    1  UNL1       -0.1995
     18 C         -10.2965  -19.3478   19.9957 C.ar    1  UNL1        0.1293
     19 N         -11.5265  -18.6709   20.5238 N.pl3   1  UNL1       -0.3425
     20 C          -9.0658  -19.4388   20.8485 C.ar    1  UNL1        0.0449
     21 H          -8.2605  -21.6410   16.3595 H       1  UNL1        0.1452
     22 H          -9.8755  -21.1370   16.1463 H       1  UNL1        0.1452
     23 H         -12.3342  -18.6112   19.9641 H       1  UNL1        0.1437
     24 H         -11.5260  -18.2863   21.4301 H       1  UNL1        0.1437
     25 C          -5.2666  -20.4362   20.5362 C.3     1  UNL1        0.0067
     26 C          -6.6051  -20.2067   21.1732 C.3     1  UNL1        0.0460
     27 C          -7.3132  -15.0309   27.5579 C.3     1  UNL1        0.4387
     28 F          -6.5676  -14.0188   28.3762 F       1  UNL1       -0.1661
     29 F          -6.1183  -15.9371   27.5899 F       1  UNL1       -0.1661
     30 F          -8.1115  -14.2853   27.6074 F       1  UNL1       -0.1661
     31 C          -6.0527  -15.6973   23.3328 C.3     1  UNL1        0.1196
     32 C          -4.5866  -15.7687   23.6417 C.3     1  UNL1        0.1113
     33 N          -3.6262  -16.2778   22.6079 N.am    1  UNL1       -0.3026
     34 C          -3.3561  -17.7490   22.4952 C.2     1  UNL1        0.2230
     35 C          -2.3958  -18.2582   21.4615 C.3     1  UNL1        0.0946
     36 O          -4.0463  -18.7110   23.4163 O.2     1  UNL1       -0.2751
     37 H          -3.1732  -15.6464   22.0034 H       1  UNL1        0.1495
@<TRIPOS>BOND
     1    25    26    1
     2    26    13    1
     3    13    14   ar
     4    14    15   ar
     5    15    16    1
     6    15    17   ar
     7    17    18   ar
     8    18    19    1
     9    18    20   ar
    10    20     1    1
    11     1     2   ar
    12     2     3   ar
    13     3     4   ar
    14     4     5   ar
    15     5     6   ar
    16     5     7    1
    17     7    31    1
    18    31    32    1
    19    32    33    1
    20    33    34   am
    21    34    35    1
    22    34    36    2
    23     7     8   am
    24     8     9    2
    25     8    10    1
    26    10    11    1
    27    10    27    1
    28    27    28    1
    29    27    29    1
    30    27    30    1
    31    10    12    1
    32    20    13   ar
    33     6     1   ar
    34    12     4    1
    35    16    21    1
    36    16    22    1
    37    19    23    1
    38    19    24    1
    39    33    37    1
@<TRIPOS>MOLECULE
*****
 37 39 0 0 0
SMALL
GASTEIGER

@<TRIPOS>ATOM
      1 C           7.3657   -2.5676   31.9134 C.ar    1  UNL1        0.0053
      2 C           8.6735   -2.3018   32.5982 C.ar    1  UNL1        0.0033
      3 C           8.7515   -1.2834   33.6967 C.ar    1  UNL1        0.0382
      4 C           7.5217   -0.5309   34.1105 C.ar    1  UNL1        0.1528
      5 C           6.2139   -0.7967   33.4257 C.ar    1  UNL1        0.0882
      6 C           6.1359   -1.8150   32.3272 C.ar    1  UNL1        0.0181
      7 N           4.9840   -0.0441   33.8395 N.am    1  UNL1       -0.2512
      8 C           5.0620    0.9743   34.9380 C.2     1  UNL1        0.2742
      9 O           4.1011    1.4529   35.1458 O.2     1  UNL1       -0.2705
     10 C           6.3699    1.2401   35.6228 C.3     1  UNL1        0.2867
     11 C           7.3714    1.8396   36.5649 C.3     1  UNL1        0.0623
     12 O           7.5997    0.4876   35.2091 O.3     1  UNL1       -0.4641
     13 C           7.5875   -3.1876   29.4002 C.ar    1  UNL1        0.0645
     14 N           7.5095   -4.2060   28.3016 N.ar    1  UNL1       -0.2183
     15 C           7.1315   -5.6228   28.6177 C.ar    1  UNL1        0.2145
     16 N           7.0535   -6.6411   27.5192 N.pl3   1  UNL1       -0.3274
     17 N           6.8316   -6.0212   30.0324 N.ar    1  UNL1       -0.1995
     18 C           6.9097   -5.0028   31.1310 C.ar    1  UNL1        0.1293
     19 N           6.6097   -5.4012   32.5457 N.pl3   1  UNL1       -0.3425
     20 C           7.2876   -3.5860   30.8149 C.ar    1  UNL1        0.0449
     21 H           7.2503   -6.3796   26.5907 H       1  UNL1        0.1452
     22 H           6.8054   -7.5710   27.7266 H       1  UNL1        0.1452
     23 H           6.3617   -6.3310   32.7531 H       1  UNL1        0.1437
     24 H           6.6609   -4.7328   33.2667 H       1  UNL1        0.1437
     25 C           6.9059   -0.7780   28.7080 C.3     1  UNL1        0.0067
     26 C           7.9655   -1.7708   29.0841 C.3     1  UNL1        0.0460
     27 C           5.4879    2.2009   36.3637 C.3     1  UNL1        0.4387
     28 F           4.6059    3.1617   37.1047 F       1  UNL1       -0.1661
     29 F           5.1857    1.1398   37.3799 F       1  UNL1       -0.1661
     30 F           5.6282    3.0541   35.6943 F       1  UNL1       -0.1661
     31 C           3.6762   -0.3099   33.1547 C.3     1  UNL1        0.1196
     32 C           3.2725    0.5094   31.9649 C.3     1  UNL1        0.1113
     33 N           3.6091    0.0386   30.5809 N.am    1  UNL1       -0.3026
     34 C           2.5125   -0.3413   29.6306 C.2     1  UNL1        0.2230
     35 C           2.8490   -0.8121   28.2467 C.3     1  UNL1        0.0946
     36 O           1.0793   -0.2504   30.0641 O.2     1  UNL1       -0.2751
     37 H           4.5497   -0.0210   30.2964 H       1  UNL1        0.1495
@<TRIPOS>BOND
     1    25    26    1
     2    26    13    1
     3    13    14   ar
     4    14    15   ar
     5    15    16    1
     6    15    17   ar
     7    17    18   ar
     8    18    19    1
     9    18    20   ar
    10    20     1    1
    11     1     2   ar
    12     2     3   ar
    13     3     4   ar
    14     4     5   ar
    15     5     6   ar
    16     5     7    1
    17     7    31    1
    18    31    32    1
    19    32    33    1
    20    33    34   am
    21    34    35    1
    22    34    36    2
    23     7     8   am
    24     8     9    2
    25     8    10    1
    26    10    11    1
    27    10    27    1
    28    27    28    1
    29    27    29    1
    30    27    30    1
    31    10    12    1
    32    20    13   ar
    33     6     1   ar
    34    12     4    1
    35    16    21    1
    36    16    22    1
    37    19    23    1
    38    19    24    1
    39    33    37    1
