@<TRIPOS>MOLECULE
*****
 28 31 0 0 0
SMALL
GASTEIGER

@<TRIPOS>ATOM
      1 C           5.0192   -0.2894   29.8861 C.3     1  UNL1        0.0310
      2 C           5.6513   -1.6443   29.7660 C.ar    1  UNL1       -0.0218
      3 C           5.8641   -2.2554   28.4128 C.ar    1  UNL1       -0.0041
      4 C           6.4963   -3.6104   28.2927 C.ar    1  UNL1        0.0042
      5 C           6.9156   -4.3543   29.5258 C.ar    1  UNL1        0.0533
      6 C           6.7028   -3.7433   30.8790 C.ar    1  UNL1        0.0042
      7 C           6.0707   -2.3883   30.9992 C.ar    1  UNL1       -0.0038
      8 C           5.8579   -1.7772   32.3525 C.ar    1  UNL1       -0.0003
      9 C           4.5562   -1.9787   33.0701 C.ar    1  UNL1        0.0001
     10 C           4.3434   -1.3677   34.4233 C.ar    1  UNL1        0.0045
     11 C           5.4323   -0.5552   35.0591 C.ar    1  UNL1        0.0534
     12 C           6.7341   -0.3538   34.3415 C.ar    1  UNL1        0.0045
     13 C           6.9468   -0.9648   32.9882 C.ar    1  UNL1        0.0001
     14 C           5.2195    0.0558   36.4123 C.2     1  UNL1        0.2458
     15 O           6.3990    0.4464   37.2527 O.2     1  UNL1       -0.2701
     16 N           3.8273    0.2761   36.9252 N.am    1  UNL1       -0.3009
     17 H           3.0531    0.0197   36.3737 H       1  UNL1        0.1497
     18 C           3.6145    0.8871   38.2785 C.3     1  UNL1        0.0896
     19 C           2.2725    0.7917   38.9419 C.3     1  UNL1        0.0196
     20 C           0.9544    1.4107   39.3016 C.3     1  UNL1        0.0017
     21 C           1.2663    0.0077   39.7310 C.3     1  UNL1        0.0017
     22 C           7.5477   -5.7093   29.4057 C.2     1  UNL1        0.2458
     23 O           8.1309   -6.3749   30.6168 O.2     1  UNL1       -0.2701
     24 N           7.5967   -6.3987   28.0744 N.am    1  UNL1       -0.3025
     25 H           7.2140   -5.9619   27.2795 H       1  UNL1        0.1497
     26 C           8.2289   -7.7537   27.9543 C.3     1  UNL1        0.0720
     27 C           9.4358   -8.6380   28.0599 C.3     1  UNL1        0.0213
     28 C           8.1168   -9.2162   27.6407 C.3     1  UNL1        0.0213
@<TRIPOS>BOND
     1     1     2    1
     2     2     3   ar
     3     3     4   ar
     4     4     5   ar
     5     5    22    1
     6    22    23    2
     7    22    24   am
     8    24    26    1
     9    26    27    1
    10    27    28    1
    11     5     6   ar
    12     6     7   ar
    13     7     8    1
    14     8     9   ar
    15     9    10   ar
    16    10    11   ar
    17    11    14    1
    18    14    15    2
    19    14    16   am
    20    16    18    1
    21    18    19    1
    22    19    20    1
    23    20    21    1
    24    11    12   ar
    25    12    13   ar
    26     7     2   ar
    27    13     8   ar
    28    28    26    1
    29    21    19    1
    30    24    25    1
    31    16    17    1
@<TRIPOS>MOLECULE
*****
 28 31 0 0 0
SMALL
GASTEIGER

@<TRIPOS>ATOM
      1 C           2.3582    4.9998   18.6770 C.3     1  UNL1        0.0310
      2 C           2.6871    3.5437   18.5293 C.ar    1  UNL1       -0.0218
      3 C           4.1034    3.1160   18.2822 C.ar    1  UNL1       -0.0041
      4 C           4.4322    1.6600   18.1345 C.ar    1  UNL1        0.0042
      5 C           3.3448    0.6316   18.2339 C.ar    1  UNL1        0.0533
      6 C           1.9285    1.0593   18.4811 C.ar    1  UNL1        0.0042
      7 C           1.5996    2.5154   18.6288 C.ar    1  UNL1       -0.0038
      8 C           0.1833    2.9431   18.8760 C.ar    1  UNL1       -0.0003
      9 C          -0.4253    2.7719   20.2363 C.ar    1  UNL1        0.0001
     10 C          -1.8416    3.1996   20.4835 C.ar    1  UNL1        0.0045
     11 C          -2.6494    3.7984   19.3704 C.ar    1  UNL1        0.0534
     12 C          -2.0409    3.9695   18.0101 C.ar    1  UNL1        0.0045
     13 C          -0.6245    3.5418   17.7629 C.ar    1  UNL1        0.0001
     14 C          -4.0657    4.2260   19.6177 C.2     1  UNL1        0.2458
     15 O          -4.8027    5.0169   18.5778 O.2     1  UNL1       -0.2701
     16 N          -4.7451    3.8628   20.9047 N.am    1  UNL1       -0.3009
     17 H          -4.2613    3.3437   21.5872 H       1  UNL1        0.1497
     18 C          -6.1614    4.2904   21.1520 C.3     1  UNL1        0.0896
     19 C          -6.6923    4.3523   22.5535 C.3     1  UNL1        0.0196
     20 C          -6.4577    4.3123   24.0344 C.3     1  UNL1        0.0017
     21 C          -7.8466    4.4996   23.4999 C.3     1  UNL1        0.0017
     22 C           3.6736   -0.8244   18.0862 C.2     1  UNL1        0.2458
     23 O           4.2301   -1.3401   16.7923 O.2     1  UNL1       -0.2701
     24 N           3.4460   -1.7647   19.2325 N.am    1  UNL1       -0.3025
     25 H           3.0807   -1.4263   20.0817 H       1  UNL1        0.1497
     26 C           3.7748   -3.2208   19.0848 C.3     1  UNL1        0.0720
     27 C           3.3708   -4.6612   19.1930 C.3     1  UNL1        0.0213
     28 C           4.7484   -4.3022   18.7206 C.3     1  UNL1        0.0213
@<TRIPOS>BOND
     1     1     2    1
     2     2     3   ar
     3     3     4   ar
     4     4     5   ar
     5     5    22    1
     6    22    23    2
     7    22    24   am
     8    24    26    1
     9    26    27    1
    10    27    28    1
    11     5     6   ar
    12     6     7   ar
    13     7     8    1
    14     8     9   ar
    15     9    10   ar
    16    10    11   ar
    17    11    14    1
    18    14    15    2
    19    14    16   am
    20    16    18    1
    21    18    19    1
    22    19    20    1
    23    20    21    1
    24    11    12   ar
    25    12    13   ar
    26     7     2   ar
    27    13     8   ar
    28    28    26    1
    29    21    19    1
    30    24    25    1
    31    16    17    1
@<TRIPOS>MOLECULE
*****
 28 31 0 0 0
SMALL
GASTEIGER

@<TRIPOS>ATOM
      1 C           3.5287   -0.7249   17.3148 C.3     1  UNL1        0.0310
      2 C           4.2063   -1.4697   18.4267 C.ar    1  UNL1       -0.0218
      3 C           5.2930   -2.4557   18.1157 C.ar    1  UNL1       -0.0041
      4 C           5.9705   -3.2005   19.2276 C.ar    1  UNL1        0.0042
      5 C           5.5614   -2.9592   20.6504 C.ar    1  UNL1        0.0533
      6 C           4.4747   -1.9731   20.9613 C.ar    1  UNL1        0.0042
      7 C           3.7971   -1.2284   19.8494 C.ar    1  UNL1       -0.0038
      8 C           2.7104   -0.2422   20.1604 C.ar    1  UNL1       -0.0003
      9 C           3.0531    1.1954   20.4166 C.ar    1  UNL1        0.0001
     10 C           1.9664    2.1815   20.7276 C.ar    1  UNL1        0.0045
     11 C           0.5370    1.7300   20.7823 C.ar    1  UNL1        0.0534
     12 C           0.1943    0.2923   20.5261 C.ar    1  UNL1        0.0045
     13 C           1.2811   -0.6938   20.2151 C.ar    1  UNL1        0.0001
     14 C          -0.5497    2.7161   21.0933 C.2     1  UNL1        0.2458
     15 O          -0.2475    3.9277   21.9242 O.2     1  UNL1       -0.2701
     16 N          -1.9385    2.4905   20.5733 N.am    1  UNL1       -0.3009
     17 H          -2.1368    1.6952   20.0279 H       1  UNL1        0.1497
     18 C          -3.0251    3.4766   20.8843 C.3     1  UNL1        0.0896
     19 C          -3.7268    3.4264   22.2091 C.3     1  UNL1        0.0196
     20 C          -4.9740    3.1984   23.0107 C.3     1  UNL1        0.0017
     21 C          -3.6950    3.5676   23.7020 C.3     1  UNL1        0.0017
     22 C           6.2390   -3.7039   21.7623 C.2     1  UNL1        0.2458
     23 O           7.2661   -4.7506   21.4470 O.2     1  UNL1       -0.2701
     24 N           5.8894   -3.4020   23.1893 N.am    1  UNL1       -0.3025
     25 H           5.2152   -2.7151   23.3962 H       1  UNL1        0.1497
     26 C           6.5669   -4.1468   24.3012 C.3     1  UNL1        0.0720
     27 C           7.3643   -5.3239   24.7793 C.3     1  UNL1        0.0213
     28 C           6.9432   -4.2596   25.7488 C.3     1  UNL1        0.0213
@<TRIPOS>BOND
     1     1     2    1
     2     2     3   ar
     3     3     4   ar
     4     4     5   ar
     5     5    22    1
     6    22    23    2
     7    22    24   am
     8    24    26    1
     9    26    27    1
    10    27    28    1
    11     5     6   ar
    12     6     7   ar
    13     7     8    1
    14     8     9   ar
    15     9    10   ar
    16    10    11   ar
    17    11    14    1
    18    14    15    2
    19    14    16   am
    20    16    18    1
    21    18    19    1
    22    19    20    1
    23    20    21    1
    24    11    12   ar
    25    12    13   ar
    26     7     2   ar
    27    13     8   ar
    28    28    26    1
    29    21    19    1
    30    24    25    1
    31    16    17    1
@<TRIPOS>MOLECULE
*****
 28 31 0 0 0
SMALL
GASTEIGER

@<TRIPOS>ATOM
      1 C           2.6711    4.7258   18.4822 C.3     1  UNL1        0.0310
      2 C           3.0019    3.2641   18.4185 C.ar    1  UNL1       -0.0218
      3 C           4.4025    2.8249   18.1102 C.ar    1  UNL1       -0.0041
      4 C           4.7333    1.3632   18.0466 C.ar    1  UNL1        0.0042
      5 C           3.6634    0.3408   18.2912 C.ar    1  UNL1        0.0533
      6 C           2.2627    0.7800   18.5994 C.ar    1  UNL1        0.0042
      7 C           1.9319    2.2417   18.6631 C.ar    1  UNL1       -0.0038
      8 C           0.5312    2.6809   18.9714 C.ar    1  UNL1       -0.0003
      9 C          -0.3150    3.2976   17.8972 C.ar    1  UNL1        0.0001
     10 C          -1.7157    3.7368   18.2055 C.ar    1  UNL1        0.0045
     11 C          -2.2703    3.5594   19.5879 C.ar    1  UNL1        0.0534
     12 C          -1.4242    2.9427   20.6620 C.ar    1  UNL1        0.0045
     13 C          -0.0234    2.5035   20.3537 C.ar    1  UNL1        0.0001
     14 C          -3.6710    3.9986   19.8961 C.2     1  UNL1        0.2458
     15 O          -3.9111    5.0994   20.8863 O.2     1  UNL1       -0.2701
     16 N          -4.8317    3.3371   19.2141 N.am    1  UNL1       -0.3009
     17 H          -4.6742    2.6146   18.5641 H       1  UNL1        0.1497
     18 C          -6.2324    3.7763   19.5223 C.3     1  UNL1        0.0896
     19 C          -6.8903    4.8298   18.6813 C.3     1  UNL1        0.0196
     20 C          -6.8775    5.7289   17.4807 C.3     1  UNL1        0.0017
     21 C          -8.0425    5.7555   18.4253 C.3     1  UNL1        0.0017
     22 C           3.9942   -1.1209   18.2275 C.2     1  UNL1        0.2458
     23 O           4.9345   -1.6320   17.1766 O.2     1  UNL1       -0.2701
     24 N           3.3847   -2.0715   19.2148 N.am    1  UNL1       -0.3025
     25 H           2.7675   -1.7361   19.9046 H       1  UNL1        0.1497
     26 C           3.7154   -3.5332   19.1511 C.3     1  UNL1        0.0720
     27 C           4.6244   -4.6413   18.7086 C.3     1  UNL1        0.0213
     28 C           3.3794   -4.9568   19.4834 C.3     1  UNL1        0.0213
@<TRIPOS>BOND
     1     1     2    1
     2     2     3   ar
     3     3     4   ar
     4     4     5   ar
     5     5    22    1
     6    22    23    2
     7    22    24   am
     8    24    26    1
     9    26    27    1
    10    27    28    1
    11     5     6   ar
    12     6     7   ar
    13     7     8    1
    14     8     9   ar
    15     9    10   ar
    16    10    11   ar
    17    11    14    1
    18    14    15    2
    19    14    16   am
    20    16    18    1
    21    18    19    1
    22    19    20    1
    23    20    21    1
    24    11    12   ar
    25    12    13   ar
    26     7     2   ar
    27    13     8   ar
    28    28    26    1
    29    21    19    1
    30    24    25    1
    31    16    17    1
@<TRIPOS>MOLECULE
*****
 28 31 0 0 0
SMALL
GASTEIGER

@<TRIPOS>ATOM
      1 C           9.3771   -5.3207   23.7853 C.3     1  UNL1        0.0310
      2 C           8.2169   -4.7541   23.0218 C.ar    1  UNL1       -0.0218
      3 C           8.2834   -4.6465   21.5272 C.ar    1  UNL1       -0.0041
      4 C           7.1233   -4.0798   20.7636 C.ar    1  UNL1        0.0042
      5 C           5.8967   -3.6208   21.4947 C.ar    1  UNL1        0.0533
      6 C           5.8302   -3.7283   22.9893 C.ar    1  UNL1        0.0042
      7 C           6.9903   -4.2950   23.7529 C.ar    1  UNL1       -0.0038
      8 C           6.9237   -4.4025   25.2476 C.ar    1  UNL1       -0.0003
      9 C           6.8403   -5.7509   25.8995 C.ar    1  UNL1        0.0001
     10 C           6.7737   -5.8585   27.3941 C.ar    1  UNL1        0.0045
     11 C           6.7906   -4.6177   28.2369 C.ar    1  UNL1        0.0534
     12 C           6.8741   -3.2693   27.5850 C.ar    1  UNL1        0.0045
     13 C           6.9407   -3.1618   26.0903 C.ar    1  UNL1        0.0001
     14 C           6.7241   -4.7253   29.7315 C.2     1  UNL1        0.2458
     15 O           6.8168   -6.0690   30.3916 O.2     1  UNL1       -0.2701
     16 N           6.5648   -3.4891   30.5661 N.am    1  UNL1       -0.3009
     17 H           6.5039   -2.6071   30.1329 H       1  UNL1        0.1497
     18 C           6.4982   -3.5967   32.0607 C.3     1  UNL1        0.0896
     19 C           5.6230   -2.6618   32.8418 C.3     1  UNL1        0.0196
     20 C           5.3838   -1.3141   33.4553 C.3     1  UNL1        0.0017
     21 C           4.3464   -2.3902   33.5810 C.3     1  UNL1        0.0017
     22 C           4.7365   -3.0541   20.7312 C.2     1  UNL1        0.2458
     23 O           4.1985   -3.7819   19.5350 O.2     1  UNL1       -0.2701
     24 N           4.1144   -1.7596   21.1638 N.am    1  UNL1       -0.3025
     25 H           4.4674   -1.2819   21.9488 H       1  UNL1        0.1497
     26 C           2.9542   -1.1930   20.4002 C.3     1  UNL1        0.0720
     27 C           1.5057   -0.8093   20.3340 C.3     1  UNL1        0.0213
     28 C           2.3934   -0.5953   19.1440 C.3     1  UNL1        0.0213
@<TRIPOS>BOND
     1     1     2    1
     2     2     3   ar
     3     3     4   ar
     4     4     5   ar
     5     5    22    1
     6    22    23    2
     7    22    24   am
     8    24    26    1
     9    26    27    1
    10    27    28    1
    11     5     6   ar
    12     6     7   ar
    13     7     8    1
    14     8     9   ar
    15     9    10   ar
    16    10    11   ar
    17    11    14    1
    18    14    15    2
    19    14    16   am
    20    16    18    1
    21    18    19    1
    22    19    20    1
    23    20    21    1
    24    11    12   ar
    25    12    13   ar
    26     7     2   ar
    27    13     8   ar
    28    28    26    1
    29    21    19    1
    30    24    25    1
    31    16    17    1
@<TRIPOS>MOLECULE
*****
 28 31 0 0 0
SMALL
GASTEIGER

@<TRIPOS>ATOM
      1 C           9.3358   -7.7794   25.1148 C.3     1  UNL1        0.0310
      2 C           8.8980   -6.7519   24.1136 C.ar    1  UNL1       -0.0218
      3 C           9.2083   -6.9427   22.6585 C.ar    1  UNL1       -0.0041
      4 C           8.7704   -5.9152   21.6572 C.ar    1  UNL1        0.0042
      5 C           8.0223   -4.6969   22.1110 C.ar    1  UNL1        0.0533
      6 C           7.7120   -4.5061   23.5661 C.ar    1  UNL1        0.0042
      7 C           8.1498   -5.5336   24.5674 C.ar    1  UNL1       -0.0038
      8 C           7.8395   -5.3427   26.0225 C.ar    1  UNL1       -0.0003
      9 C           6.5744   -5.9052   26.5996 C.ar    1  UNL1        0.0001
     10 C           6.2640   -5.7144   28.0546 C.ar    1  UNL1        0.0045
     11 C           7.2188   -4.9611   28.9327 C.ar    1  UNL1        0.0534
     12 C           8.4840   -4.3986   28.3556 C.ar    1  UNL1        0.0045
     13 C           8.7943   -4.5895   26.9005 C.ar    1  UNL1        0.0001
     14 C           6.9085   -4.7702   30.3877 C.2     1  UNL1        0.2458
     15 O           6.7222   -5.9633   31.2776 O.2     1  UNL1       -0.2701
     16 N           6.7844   -3.3864   30.9530 N.am    1  UNL1       -0.3009
     17 H           6.9066   -2.6033   30.3689 H       1  UNL1        0.1497
     18 C           6.4740   -3.1955   32.4080 C.3     1  UNL1        0.0896
     19 C           5.2692   -2.4028   32.8202 C.3     1  UNL1        0.0196
     20 C           4.2244   -2.0640   33.8418 C.3     1  UNL1        0.0017
     21 C           4.2271   -1.3687   32.5127 C.3     1  UNL1        0.0017
     22 C           7.5845   -3.6694   21.1098 C.2     1  UNL1        0.2458
     23 O           8.4654   -2.4936   20.8075 O.2     1  UNL1       -0.2701
     24 N           6.2656   -3.8177   20.4107 N.am    1  UNL1       -0.3025
     25 H           5.6874   -4.5894   20.6091 H       1  UNL1        0.1497
     26 C           5.8278   -2.7902   19.4095 C.3     1  UNL1        0.0720
     27 C           5.8346   -1.3748   18.9129 C.3     1  UNL1        0.0213
     28 C           5.0627   -2.4259   18.1718 C.3     1  UNL1        0.0213
@<TRIPOS>BOND
     1     1     2    1
     2     2     3   ar
     3     3     4   ar
     4     4     5   ar
     5     5    22    1
     6    22    23    2
     7    22    24   am
     8    24    26    1
     9    26    27    1
    10    27    28    1
    11     5     6   ar
    12     6     7   ar
    13     7     8    1
    14     8     9   ar
    15     9    10   ar
    16    10    11   ar
    17    11    14    1
    18    14    15    2
    19    14    16   am
    20    16    18    1
    21    18    19    1
    22    19    20    1
    23    20    21    1
    24    11    12   ar
    25    12    13   ar
    26     7     2   ar
    27    13     8   ar
    28    28    26    1
    29    21    19    1
    30    24    25    1
    31    16    17    1
@<TRIPOS>MOLECULE
*****
 28 31 0 0 0
SMALL
GASTEIGER

@<TRIPOS>ATOM
      1 C           0.7767    3.3542   31.7612 C.3     1  UNL1        0.0310
      2 C           1.6776    2.1669   31.9304 C.ar    1  UNL1       -0.0218
      3 C           2.3124    1.8907   33.2611 C.ar    1  UNL1       -0.0041
      4 C           3.2133    0.7034   33.4303 C.ar    1  UNL1        0.0042
      5 C           3.4795   -0.2077   32.2688 C.ar    1  UNL1        0.0533
      6 C           2.8447    0.0685   30.9382 C.ar    1  UNL1        0.0042
      7 C           1.9438    1.2558   30.7690 C.ar    1  UNL1       -0.0038
      8 C           1.3090    1.5319   29.4382 C.ar    1  UNL1       -0.0003
      9 C           0.0052    0.8825   29.0800 C.ar    1  UNL1        0.0001
     10 C          -0.6297    1.1586   27.7493 C.ar    1  UNL1        0.0045
     11 C           0.0393    2.0842   26.7768 C.ar    1  UNL1        0.0534
     12 C           1.3432    2.7337   27.1350 C.ar    1  UNL1        0.0045
     13 C           1.9780    2.4575   28.4658 C.ar    1  UNL1        0.0001
     14 C          -0.5955    2.3604   25.4461 C.2     1  UNL1        0.2458
     15 O          -0.0886    1.6687   24.2154 O.2     1  UNL1       -0.2701
     16 N          -1.7371    3.3281   25.3461 N.am    1  UNL1       -0.3009
     17 H          -2.0698    3.7821   26.1539 H       1  UNL1        0.1497
     18 C          -2.3720    3.6042   24.0155 C.3     1  UNL1        0.0896
     19 C          -3.8587    3.4872   23.8550 C.3     1  UNL1        0.0196
     20 C          -5.2425    3.6590   24.4079 C.3     1  UNL1        0.0017
     21 C          -5.0501    3.1125   23.0243 C.3     1  UNL1        0.0017
     22 C           4.3804   -1.3950   32.4381 C.2     1  UNL1        0.2458
     23 O           4.0751   -2.4250   33.4849 O.2     1  UNL1       -0.2701
     24 N           5.5866   -1.5524   31.5604 N.am    1  UNL1       -0.3025
     25 H           5.7870   -0.8763   30.8734 H       1  UNL1        0.1497
     26 C           6.4876   -2.7397   31.7297 C.3     1  UNL1        0.0720
     27 C           6.7224   -4.2174   31.6252 C.3     1  UNL1        0.0213
     28 C           7.8131   -3.3183   32.1272 C.3     1  UNL1        0.0213
@<TRIPOS>BOND
     1     1     2    1
     2     2     3   ar
     3     3     4   ar
     4     4     5   ar
     5     5    22    1
     6    22    23    2
     7    22    24   am
     8    24    26    1
     9    26    27    1
    10    27    28    1
    11     5     6   ar
    12     6     7   ar
    13     7     8    1
    14     8     9   ar
    15     9    10   ar
    16    10    11   ar
    17    11    14    1
    18    14    15    2
    19    14    16   am
    20    16    18    1
    21    18    19    1
    22    19    20    1
    23    20    21    1
    24    11    12   ar
    25    12    13   ar
    26     7     2   ar
    27    13     8   ar
    28    28    26    1
    29    21    19    1
    30    24    25    1
    31    16    17    1
@<TRIPOS>MOLECULE
*****
 28 31 0 0 0
SMALL
GASTEIGER

@<TRIPOS>ATOM
      1 C           8.3793   -7.2347   23.7731 C.3     1  UNL1        0.0310
      2 C           8.0449   -6.7026   25.1351 C.ar    1  UNL1       -0.0218
      3 C           8.2582   -7.5588   26.3480 C.ar    1  UNL1       -0.0041
      4 C           7.9237   -7.0267   27.7100 C.ar    1  UNL1        0.0042
      5 C           7.3759   -5.6383   27.8590 C.ar    1  UNL1        0.0533
      6 C           7.1625   -4.7821   26.6461 C.ar    1  UNL1        0.0042
      7 C           7.4970   -5.3142   25.2841 C.ar    1  UNL1       -0.0038
      8 C           7.2836   -4.4579   24.0711 C.ar    1  UNL1       -0.0003
      9 C           5.8963   -4.2312   23.5477 C.ar    1  UNL1        0.0001
     10 C           5.6829   -3.3750   22.3348 C.ar    1  UNL1        0.0045
     11 C           6.8568   -2.7453   21.6452 C.ar    1  UNL1        0.0534
     12 C           8.2441   -2.9719   22.1686 C.ar    1  UNL1        0.0045
     13 C           8.4575   -3.8282   23.3816 C.ar    1  UNL1        0.0001
     14 C           6.6434   -1.8890   20.4323 C.2     1  UNL1        0.2458
     15 O           7.3027   -2.2497   19.1342 O.2     1  UNL1       -0.2701
     16 N           5.7705   -0.6721   20.5175 N.am    1  UNL1       -0.3009
     17 H           5.3378   -0.4354   21.3695 H       1  UNL1        0.1497
     18 C           5.5571    0.1842   19.3045 C.3     1  UNL1        0.0896
     19 C           4.4711   -0.1566   18.3276 C.3     1  UNL1        0.0196
     20 C           3.0553   -0.0078   17.8551 C.3     1  UNL1        0.0017
     21 C           4.0060   -0.8955   17.1079 C.3     1  UNL1        0.0017
     22 C           7.0414   -5.1062   29.2210 C.2     1  UNL1        0.2458
     23 O           6.7389   -6.0544   30.3432 O.2     1  UNL1       -0.2701
     24 N           7.0094   -3.6258   29.4607 N.am    1  UNL1       -0.3025
     25 H           7.2080   -3.0035   28.7242 H       1  UNL1        0.1497
     26 C           6.6750   -3.0937   30.8227 C.3     1  UNL1        0.0720
     27 C           7.1078   -2.6799   32.1980 C.3     1  UNL1        0.0213
     28 C           5.6628   -2.5859   31.8064 C.3     1  UNL1        0.0213
@<TRIPOS>BOND
     1     1     2    1
     2     2     3   ar
     3     3     4   ar
     4     4     5   ar
     5     5    22    1
     6    22    23    2
     7    22    24   am
     8    24    26    1
     9    26    27    1
    10    27    28    1
    11     5     6   ar
    12     6     7   ar
    13     7     8    1
    14     8     9   ar
    15     9    10   ar
    16    10    11   ar
    17    11    14    1
    18    14    15    2
    19    14    16   am
    20    16    18    1
    21    18    19    1
    22    19    20    1
    23    20    21    1
    24    11    12   ar
    25    12    13   ar
    26     7     2   ar
    27    13     8   ar
    28    28    26    1
    29    21    19    1
    30    24    25    1
    31    16    17    1
@<TRIPOS>MOLECULE
*****
 28 31 0 0 0
SMALL
GASTEIGER

@<TRIPOS>ATOM
      1 C           0.4103    3.4258   23.3799 C.3     1  UNL1        0.0310
      2 C           1.1050    2.2033   22.8577 C.ar    1  UNL1       -0.0218
      3 C           1.3861    2.0696   21.3903 C.ar    1  UNL1       -0.0041
      4 C           2.0808    0.8471   20.8681 C.ar    1  UNL1        0.0042
      5 C           2.4945   -0.2418   21.8131 C.ar    1  UNL1        0.0533
      6 C           2.2135   -0.1081   23.2805 C.ar    1  UNL1        0.0042
      7 C           1.5187    1.1144   23.8027 C.ar    1  UNL1       -0.0038
      8 C           1.2377    1.2481   25.2701 C.ar    1  UNL1       -0.0003
      9 C          -0.1693    1.1347   25.7777 C.ar    1  UNL1        0.0001
     10 C          -0.4503    1.2683   27.2450 C.ar    1  UNL1        0.0045
     11 C           0.6756    1.5153   28.2049 C.ar    1  UNL1        0.0534
     12 C           2.0826    1.6288   27.6974 C.ar    1  UNL1        0.0045
     13 C           2.3636    1.4951   26.2299 C.ar    1  UNL1        0.0001
     14 C           0.3945    1.6490   29.6722 C.2     1  UNL1        0.2458
     15 O          -0.6841    0.8226   30.3075 O.2     1  UNL1       -0.2701
     16 N           1.1920    2.6090   30.5043 N.am    1  UNL1       -0.3009
     17 H           1.9000    3.1514   30.0873 H       1  UNL1        0.1497
     18 C           0.9110    2.7426   31.9716 C.3     1  UNL1        0.0896
     19 C           0.4327    4.0512   32.5275 C.3     1  UNL1        0.0196
     20 C          -0.6863    5.0043   32.8263 C.3     1  UNL1        0.0017
     21 C           0.7233    5.3644   33.1916 C.3     1  UNL1        0.0017
     22 C           3.1892   -1.4643   21.2909 C.2     1  UNL1        0.2458
     23 O           4.1042   -2.2468   22.1856 O.2     1  UNL1       -0.2701
     24 N           2.9690   -1.9043   19.8739 N.am    1  UNL1       -0.3025
     25 H           2.3685   -1.3908   19.2867 H       1  UNL1        0.1497
     26 C           3.6637   -3.1269   19.3517 C.3     1  UNL1        0.0720
     27 C           4.8334   -3.7596   18.6578 C.3     1  UNL1        0.0213
     28 C           3.6973   -4.6116   19.1410 C.3     1  UNL1        0.0213
@<TRIPOS>BOND
     1     1     2    1
     2     2     3   ar
     3     3     4   ar
     4     4     5   ar
     5     5    22    1
     6    22    23    2
     7    22    24   am
     8    24    26    1
     9    26    27    1
    10    27    28    1
    11     5     6   ar
    12     6     7   ar
    13     7     8    1
    14     8     9   ar
    15     9    10   ar
    16    10    11   ar
    17    11    14    1
    18    14    15    2
    19    14    16   am
    20    16    18    1
    21    18    19    1
    22    19    20    1
    23    20    21    1
    24    11    12   ar
    25    12    13   ar
    26     7     2   ar
    27    13     8   ar
    28    28    26    1
    29    21    19    1
    30    24    25    1
    31    16    17    1
