@<TRIPOS>MOLECULE
*****
 32 34 0 0 0
SMALL
GASTEIGER

@<TRIPOS>ATOM
      1 C          -4.8399  -18.5897   22.2940 C.ar    1  UNL1        0.0764
      2 C          -5.3381  -17.4438   23.1240 C.ar    1  UNL1        0.0522
      3 C          -4.5125  -16.1983   23.2553 C.ar    1  UNL1        0.1515
      4 N          -3.1888  -16.0988   22.5567 N.ar    1  UNL1       -0.1329
      5 N          -2.6908  -17.2446   21.7267 N.ar    1  UNL1       -0.1409
      6 C          -3.5163  -18.4901   21.5954 C.ar    1  UNL1        0.1691
      7 C          -3.0182  -19.6360   20.7654 C.2     1  UNL1        0.2635
      8 N          -3.6600  -19.9397   19.4441 N.am    1  UNL1       -0.3240
      9 O          -1.8784  -20.4782   21.2567 O.2     1  UNL1       -0.2686
     10 H          -4.4081  -19.3869   19.1216 H       1  UNL1        0.1453
     11 H          -3.3330  -20.6918   18.8993 H       1  UNL1        0.1453
     12 N          -5.6655  -19.8352   22.1626 N.pl3   1  UNL1       -0.2965
     13 H          -5.2633  -20.7142   22.3489 H       1  UNL1        0.1537
     14 C         -10.7146  -19.8655   23.3898 C.3     1  UNL1        0.0546
     15 C          -9.6284  -19.7564   22.3611 C.ar    1  UNL1        0.0881
     16 N          -8.1901  -19.8503   22.7762 N.ar    1  UNL1       -0.2326
     17 C          -7.1039  -19.7412   21.7474 C.ar    1  UNL1        0.1319
     18 C          -7.4560  -19.5381   20.3036 C.ar    1  UNL1        0.0367
     19 C          -8.8944  -19.4442   19.8885 C.ar    1  UNL1        0.0337
     20 C          -9.9805  -19.5533   20.9172 C.ar    1  UNL1        0.1537
     21 F         -11.4189  -19.4593   20.5021 F       1  UNL1       -0.2029
     22 N          -5.0105  -15.0524   24.0853 N.pl3   1  UNL1       -0.3170
     23 H          -4.6037  -14.1611   23.9885 H       1  UNL1        0.1482
     24 C          -6.1284  -15.2645   25.0627 C.3     1  UNL1        0.0845
     25 C          -5.8228  -15.6553   26.4783 C.3     1  UNL1        0.0209
     26 C          -6.9408  -15.8674   27.4558 C.3     1  UNL1        0.0018
     27 C          -8.3641  -15.6888   27.0176 C.3     1  UNL1        0.0015
     28 C          -8.6697  -15.2980   25.6020 C.3     1  UNL1        0.0172
     29 C          -7.5518  -15.0859   24.6246 C.3     1  UNL1        0.0689
     30 N          -7.8574  -14.6951   23.2089 N.3     1  UNL1       -0.3209
     31 H          -6.9860  -14.5942   22.6885 H       1  UNL1        0.1189
     32 H          -8.3620  -13.8088   23.2023 H       1  UNL1        0.1189
@<TRIPOS>BOND
     1    14    15    1
     2    15    16   ar
     3    16    17   ar
     4    17    12    1
     5    12     1    1
     6     1     2   ar
     7     2     3   ar
     8     3    22    1
     9    24    22    1
    10    24    25    1
    11    25    26    1
    12    26    27    1
    13    27    28    1
    14    28    29    1
    15    29    30    1
    16     3     4   ar
    17     4     5   ar
    18     5     6   ar
    19     6     7    1
    20     7     8   am
    21     7     9    2
    22    17    18   ar
    23    18    19   ar
    24    19    20   ar
    25    20    21    1
    26    20    15   ar
    27     6     1   ar
    28    29    24    1
    29    12    13    1
    30    22    23    1
    31    30    31    1
    32    30    32    1
    33     8    10    1
    34     8    11    1
@<TRIPOS>MOLECULE
*****
 32 34 0 0 0
SMALL
GASTEIGER

@<TRIPOS>ATOM
      1 C          -8.2190  -18.5125   21.6237 C.ar    1  UNL1        0.0764
      2 C          -7.7841  -17.3245   22.4297 C.ar    1  UNL1        0.0522
      3 C          -8.5618  -16.0439   22.3574 C.ar    1  UNL1        0.1515
      4 N          -9.7743  -15.9513   21.4791 N.ar    1  UNL1       -0.1329
      5 N         -10.2091  -17.1393   20.6731 N.ar    1  UNL1       -0.1409
      6 C          -9.4314  -18.4199   20.7454 C.ar    1  UNL1        0.1691
      7 C          -9.8663  -19.6079   19.9394 C.2     1  UNL1        0.2635
      8 N          -9.0844  -20.0185   18.7269 N.am    1  UNL1       -0.3240
      9 O         -11.0830  -20.3853   20.3459 O.2     1  UNL1       -0.2686
     10 H          -8.2858  -19.5082   18.4602 H       1  UNL1        0.1453
     11 H          -9.3698  -20.7982   18.1979 H       1  UNL1        0.1453
     12 N          -7.4413  -19.7932   21.6959 N.pl3   1  UNL1       -0.2965
     13 H          -7.8987  -20.6346   21.9241 H       1  UNL1        0.1537
     14 C          -2.6560  -18.1065   22.8165 C.3     1  UNL1        0.0546
     15 C          -3.5741  -18.9484   21.9809 C.ar    1  UNL1        0.0881
     16 N          -5.0486  -18.9499   22.2562 N.ar    1  UNL1       -0.2326
     17 C          -5.9667  -19.7918   21.4206 C.ar    1  UNL1        0.1319
     18 C          -5.4104  -20.6322   20.3097 C.ar    1  UNL1        0.0367
     19 C          -3.9359  -20.6307   20.0344 C.ar    1  UNL1        0.0337
     20 C          -3.0178  -19.7888   20.8701 C.ar    1  UNL1        0.1537
     21 F          -1.5432  -19.7874   20.5947 F       1  UNL1       -0.2029
     22 N          -8.1270  -14.8559   23.1634 N.pl3   1  UNL1       -0.3170
     23 H          -8.2015  -13.9502   22.7847 H       1  UNL1        0.1482
     24 C          -7.5788  -15.0479   24.5463 C.3     1  UNL1        0.0845
     25 C          -8.5134  -15.2418   25.7034 C.3     1  UNL1        0.0209
     26 C          -7.9651  -15.4338   27.0864 C.3     1  UNL1        0.0018
     27 C          -6.4822  -15.4318   27.3122 C.3     1  UNL1        0.0015
     28 C          -5.5476  -15.2379   26.1551 C.3     1  UNL1        0.0172
     29 C          -6.0958  -15.0459   24.7722 C.3     1  UNL1        0.0689
     30 N          -5.1612  -14.8520   23.6151 N.3     1  UNL1       -0.3209
     31 H          -5.7012  -14.7377   22.7573 H       1  UNL1        0.1189
     32 H          -4.5538  -15.6668   23.5285 H       1  UNL1        0.1189
@<TRIPOS>BOND
     1    14    15    1
     2    15    16   ar
     3    16    17   ar
     4    17    12    1
     5    12     1    1
     6     1     2   ar
     7     2     3   ar
     8     3    22    1
     9    24    22    1
    10    24    25    1
    11    25    26    1
    12    26    27    1
    13    27    28    1
    14    28    29    1
    15    29    30    1
    16     3     4   ar
    17     4     5   ar
    18     5     6   ar
    19     6     7    1
    20     7     8   am
    21     7     9    2
    22    17    18   ar
    23    18    19   ar
    24    19    20   ar
    25    20    21    1
    26    20    15   ar
    27     6     1   ar
    28    29    24    1
    29    12    13    1
    30    22    23    1
    31    30    31    1
    32    30    32    1
    33     8    10    1
    34     8    11    1
@<TRIPOS>MOLECULE
*****
 32 34 0 0 0
SMALL
GASTEIGER

@<TRIPOS>ATOM
      1 C          -8.8988  -18.2701   22.1392 C.ar    1  UNL1        0.0764
      2 C          -7.5367  -18.8834   22.2755 C.ar    1  UNL1        0.0522
      3 C          -6.8440  -19.4473   21.0704 C.ar    1  UNL1        0.1515
      4 N          -7.5134  -19.3977   19.7289 N.ar    1  UNL1       -0.1329
      5 N          -8.8755  -18.7844   19.5926 N.ar    1  UNL1       -0.1409
      6 C          -9.5681  -18.2206   20.7977 C.ar    1  UNL1        0.1691
      7 C         -10.9303  -17.6072   20.6614 C.2     1  UNL1        0.2635
      8 N         -11.1345  -16.4275   19.7578 N.am    1  UNL1       -0.3240
      9 O         -12.0880  -18.1736   21.4287 O.2     1  UNL1       -0.2686
     10 H         -10.3746  -16.0558   19.2542 H       1  UNL1        0.1453
     11 H         -12.0285  -16.0249   19.6683 H       1  UNL1        0.1453
     12 N          -9.5915  -17.7062   23.3443 N.pl3   1  UNL1       -0.2965
     13 H         -10.5709  -17.7671   23.4225 H       1  UNL1        0.1537
     14 C          -5.4610  -14.9309   24.8400 C.3     1  UNL1        0.0546
     15 C          -6.7265  -15.6619   25.1780 C.ar    1  UNL1        0.0881
     16 N          -7.5262  -16.3186   24.0922 N.ar    1  UNL1       -0.2326
     17 C          -8.7917  -17.0495   24.4302 C.ar    1  UNL1        0.1319
     18 C          -9.2574  -17.1237   25.8541 C.ar    1  UNL1        0.0367
     19 C          -8.4577  -16.4671   26.9400 C.ar    1  UNL1        0.0337
     20 C          -7.1922  -15.7361   26.6019 C.ar    1  UNL1        0.1537
     21 F          -6.3925  -15.0794   27.6879 F       1  UNL1       -0.2029
     22 N          -5.4820  -20.0606   21.2067 N.pl3   1  UNL1       -0.3170
     23 H          -5.3904  -20.9962   21.4992 H       1  UNL1        0.1482
     24 C          -4.2594  -19.2485   20.8974 C.3     1  UNL1        0.0845
     25 C          -3.7215  -19.2061   19.4978 C.3     1  UNL1        0.0209
     26 C          -2.4989  -18.3939   19.1885 C.3     1  UNL1        0.0018
     27 C          -1.8142  -17.6242   20.2787 C.3     1  UNL1        0.0015
     28 C          -2.3521  -17.6666   21.6783 C.3     1  UNL1        0.0172
     29 C          -3.5746  -18.4787   21.9877 C.3     1  UNL1        0.0689
     30 N          -4.1125  -18.5211   23.3873 N.3     1  UNL1       -0.3209
     31 H          -4.9404  -19.1162   23.4154 H       1  UNL1        0.1189
     32 H          -4.3617  -17.5777   23.6845 H       1  UNL1        0.1189
@<TRIPOS>BOND
     1    14    15    1
     2    15    16   ar
     3    16    17   ar
     4    17    12    1
     5    12     1    1
     6     1     2   ar
     7     2     3   ar
     8     3    22    1
     9    24    22    1
    10    24    25    1
    11    25    26    1
    12    26    27    1
    13    27    28    1
    14    28    29    1
    15    29    30    1
    16     3     4   ar
    17     4     5   ar
    18     5     6   ar
    19     6     7    1
    20     7     8   am
    21     7     9    2
    22    17    18   ar
    23    18    19   ar
    24    19    20   ar
    25    20    21    1
    26    20    15   ar
    27     6     1   ar
    28    29    24    1
    29    12    13    1
    30    22    23    1
    31    30    31    1
    32    30    32    1
    33     8    10    1
    34     8    11    1
@<TRIPOS>MOLECULE
*****
 32 34 0 0 0
SMALL
GASTEIGER

@<TRIPOS>ATOM
      1 C          -4.3470  -17.6468   22.4868 C.ar    1  UNL1        0.0764
      2 C          -5.5593  -18.5273   22.5593 C.ar    1  UNL1        0.0522
      3 C          -5.6626  -19.7354   21.6761 C.ar    1  UNL1        0.1515
      4 N          -4.5537  -20.0629   20.7205 N.ar    1  UNL1       -0.1329
      5 N          -3.3416  -19.1823   20.6480 N.ar    1  UNL1       -0.1409
      6 C          -3.2382  -17.9743   21.5312 C.ar    1  UNL1        0.1691
      7 C          -2.0260  -17.0937   21.4587 C.2     1  UNL1        0.2635
      8 N          -0.6923  -17.6814   21.1039 N.am    1  UNL1       -0.3240
      9 O          -2.1475  -15.6256   21.7411 O.2     1  UNL1       -0.2686
     10 H          -0.6126  -18.6450   20.9186 H       1  UNL1        0.1453
     11 H           0.1033  -17.1034   21.0563 H       1  UNL1        0.1453
     12 N          -4.2437  -16.4388   23.3700 N.pl3   1  UNL1       -0.2965
     13 H          -3.4422  -15.8683   23.3320 H       1  UNL1        0.1537
     14 C          -9.3262  -15.9230   24.3197 C.3     1  UNL1        0.0546
     15 C          -7.9028  -15.8420   24.7859 C.ar    1  UNL1        0.0881
     16 N          -6.7850  -16.1809   23.8449 N.ar    1  UNL1       -0.2326
     17 C          -5.3616  -16.0999   24.3111 C.ar    1  UNL1        0.1319
     18 C          -5.0560  -15.6801   25.7183 C.ar    1  UNL1        0.0367
     19 C          -6.1738  -15.3412   26.6593 C.ar    1  UNL1        0.0337
     20 C          -7.5972  -15.4222   26.1932 C.ar    1  UNL1        0.1537
     21 F          -8.7151  -15.0833   27.1343 F       1  UNL1       -0.2029
     22 N          -6.8748  -20.6159   21.7486 N.pl3   1  UNL1       -0.3170
     23 H          -6.7814  -21.5911   21.6510 H       1  UNL1        0.1482
     24 C          -8.2293  -20.0106   21.9698 C.3     1  UNL1        0.0845
     25 C          -8.8936  -20.1281   23.3095 C.3     1  UNL1        0.0209
     26 C         -10.2481  -19.5228   23.5307 C.3     1  UNL1        0.0018
     27 C         -10.9383  -18.8000   22.4122 C.3     1  UNL1        0.0015
     28 C         -10.2740  -18.6825   21.0724 C.3     1  UNL1        0.0172
     29 C          -8.9195  -19.2878   20.8512 C.3     1  UNL1        0.0689
     30 N          -8.2552  -19.1703   19.5115 N.3     1  UNL1       -0.3209
     31 H          -7.3478  -19.6353   19.5400 H       1  UNL1        0.1189
     32 H          -8.1254  -18.1851   19.2816 H       1  UNL1        0.1189
@<TRIPOS>BOND
     1    14    15    1
     2    15    16   ar
     3    16    17   ar
     4    17    12    1
     5    12     1    1
     6     1     2   ar
     7     2     3   ar
     8     3    22    1
     9    24    22    1
    10    24    25    1
    11    25    26    1
    12    26    27    1
    13    27    28    1
    14    28    29    1
    15    29    30    1
    16     3     4   ar
    17     4     5   ar
    18     5     6   ar
    19     6     7    1
    20     7     8   am
    21     7     9    2
    22    17    18   ar
    23    18    19   ar
    24    19    20   ar
    25    20    21    1
    26    20    15   ar
    27     6     1   ar
    28    29    24    1
    29    12    13    1
    30    22    23    1
    31    30    31    1
    32    30    32    1
    33     8    10    1
    34     8    11    1
@<TRIPOS>MOLECULE
*****
 32 34 0 0 0
SMALL
GASTEIGER

@<TRIPOS>ATOM
      1 C          -7.5577  -17.9599   23.0912 C.ar    1  UNL1        0.0764
      2 C          -6.6035  -18.8559   22.3584 C.ar    1  UNL1        0.0522
      3 C          -5.1674  -18.4529   22.2004 C.ar    1  UNL1        0.1515
      4 N          -4.6854  -17.1538   22.7751 N.ar    1  UNL1       -0.1329
      5 N          -5.6395  -16.2579   23.5078 N.ar    1  UNL1       -0.1409
      6 C          -7.0757  -16.6609   23.6658 C.ar    1  UNL1        0.1691
      7 C          -8.0298  -15.7649   24.3985 C.2     1  UNL1        0.2635
      8 N          -8.0113  -14.2859   24.1495 N.am    1  UNL1       -0.3240
      9 O          -9.0025  -16.3480   25.3803 O.2     1  UNL1       -0.2686
     10 H          -7.3729  -13.9032   23.5051 H       1  UNL1        0.1453
     11 H          -8.6375  -13.6978   24.6304 H       1  UNL1        0.1453
     12 N          -8.9939  -18.3630   23.2492 N.pl3   1  UNL1       -0.2965
     13 H          -9.2410  -19.0593   23.8998 H       1  UNL1        0.1537
     14 C         -10.3472  -15.0148   19.5131 C.3     1  UNL1        0.0546
     15 C         -10.7302  -16.0308   20.5480 C.ar    1  UNL1        0.0881
     16 N          -9.6706  -16.6889   21.3812 N.ar    1  UNL1       -0.2326
     17 C         -10.0536  -17.7049   22.4160 C.ar    1  UNL1        0.1319
     18 C         -11.4961  -18.0630   22.6177 C.ar    1  UNL1        0.0367
     19 C         -12.5557  -17.4050   21.7846 C.ar    1  UNL1        0.0337
     20 C         -12.1728  -16.3889   20.7497 C.ar    1  UNL1        0.1537
     21 F         -13.2324  -15.7309   19.9165 F       1  UNL1       -0.2029
     22 N          -4.2132  -19.3488   21.4677 N.pl3   1  UNL1       -0.3170
     23 H          -4.3154  -20.3265   21.5224 H       1  UNL1        0.1482
     24 C          -3.1035  -18.7552   20.6517 C.3     1  UNL1        0.0845
     25 C          -3.2175  -18.7016   19.1570 C.3     1  UNL1        0.0209
     26 C          -2.1076  -18.1079   18.3410 C.3     1  UNL1        0.0018
     27 C          -0.8838  -17.5679   19.0196 C.3     1  UNL1        0.0015
     28 C          -0.7698  -17.6215   20.5143 C.3     1  UNL1        0.0172
     29 C          -1.8796  -18.2151   21.3304 C.3     1  UNL1        0.0689
     30 N          -1.7655  -18.2687   22.8251 N.3     1  UNL1       -0.3209
     31 H          -2.6035  -18.7005   23.2147 H       1  UNL1        0.1189
     32 H          -1.6683  -17.3223   23.1928 H       1  UNL1        0.1189
@<TRIPOS>BOND
     1    14    15    1
     2    15    16   ar
     3    16    17   ar
     4    17    12    1
     5    12     1    1
     6     1     2   ar
     7     2     3   ar
     8     3    22    1
     9    24    22    1
    10    24    25    1
    11    25    26    1
    12    26    27    1
    13    27    28    1
    14    28    29    1
    15    29    30    1
    16     3     4   ar
    17     4     5   ar
    18     5     6   ar
    19     6     7    1
    20     7     8   am
    21     7     9    2
    22    17    18   ar
    23    18    19   ar
    24    19    20   ar
    25    20    21    1
    26    20    15   ar
    27     6     1   ar
    28    29    24    1
    29    12    13    1
    30    22    23    1
    31    30    31    1
    32    30    32    1
    33     8    10    1
    34     8    11    1
@<TRIPOS>MOLECULE
*****
 32 34 0 0 0
SMALL
GASTEIGER

@<TRIPOS>ATOM
      1 C          -6.2483  -15.5224   23.8707 C.ar    1  UNL1        0.0764
      2 C          -7.0893  -15.6266   22.6330 C.ar    1  UNL1        0.0522
      3 C          -8.5836  -15.6937   22.7450 C.ar    1  UNL1        0.1515
      4 N          -9.2369  -15.6567   24.0948 N.ar    1  UNL1       -0.1329
      5 N          -8.3959  -15.5526   25.3325 N.ar    1  UNL1       -0.1409
      6 C          -6.9016  -15.4854   25.2204 C.ar    1  UNL1        0.1691
      7 C          -6.0606  -15.3813   26.4582 C.2     1  UNL1        0.2635
      8 N          -6.4970  -14.4981   27.5893 N.am    1  UNL1       -0.3240
      9 O          -4.7833  -16.1604   26.5647 O.2     1  UNL1       -0.2686
     10 H          -7.3353  -13.9867   27.5194 H       1  UNL1        0.1453
     11 H          -5.9450  -14.4298   28.4017 H       1  UNL1        0.1453
     12 N          -4.7540  -15.4553   23.7587 N.pl3   1  UNL1       -0.2965
     13 H          -4.2632  -14.7041   24.1636 H       1  UNL1        0.1537
     14 C          -1.0247  -16.8875   20.4358 C.3     1  UNL1        0.0546
     15 C          -2.1428  -17.2490   21.3682 C.ar    1  UNL1        0.0881
     16 N          -2.8893  -16.1715   22.0972 N.ar    1  UNL1       -0.2326
     17 C          -4.0074  -16.5329   23.0296 C.ar    1  UNL1        0.1319
     18 C          -4.3789  -17.9719   23.2329 C.ar    1  UNL1        0.0367
     19 C          -3.6323  -19.0494   22.5038 C.ar    1  UNL1        0.0337
     20 C          -2.5143  -18.6879   21.5715 C.ar    1  UNL1        0.1537
     21 F          -1.7677  -19.7655   20.8424 F       1  UNL1       -0.2029
     22 N          -9.4246  -15.7978   21.5074 N.pl3   1  UNL1       -0.3170
     23 H          -9.3638  -15.1044   20.8111 H       1  UNL1        0.1482
     24 C         -10.3582  -16.9584   21.3305 C.3     1  UNL1        0.0845
     25 C          -9.8958  -18.1899   20.6098 C.3     1  UNL1        0.0209
     26 C         -10.8295  -19.3505   20.4330 C.3     1  UNL1        0.0018
     27 C         -12.2256  -19.2796   20.9769 C.3     1  UNL1        0.0015
     28 C         -12.6881  -18.0480   21.6976 C.3     1  UNL1        0.0172
     29 C         -11.7544  -16.8874   21.8744 C.3     1  UNL1        0.0689
     30 N         -12.2169  -15.6559   22.5951 N.3     1  UNL1       -0.3209
     31 H         -11.4593  -14.9734   22.6226 H       1  UNL1        0.1189
     32 H         -12.4884  -15.9009   23.5473 H       1  UNL1        0.1189
@<TRIPOS>BOND
     1    14    15    1
     2    15    16   ar
     3    16    17   ar
     4    17    12    1
     5    12     1    1
     6     1     2   ar
     7     2     3   ar
     8     3    22    1
     9    24    22    1
    10    24    25    1
    11    25    26    1
    12    26    27    1
    13    27    28    1
    14    28    29    1
    15    29    30    1
    16     3     4   ar
    17     4     5   ar
    18     5     6   ar
    19     6     7    1
    20     7     8   am
    21     7     9    2
    22    17    18   ar
    23    18    19   ar
    24    19    20   ar
    25    20    21    1
    26    20    15   ar
    27     6     1   ar
    28    29    24    1
    29    12    13    1
    30    22    23    1
    31    30    31    1
    32    30    32    1
    33     8    10    1
    34     8    11    1
@<TRIPOS>MOLECULE
*****
 32 34 0 0 0
SMALL
GASTEIGER

@<TRIPOS>ATOM
      1 C          -5.4813  -18.1622   22.2345 C.ar    1  UNL1        0.0764
      2 C          -6.9360  -18.5140   22.3356 C.ar    1  UNL1        0.0522
      3 C          -7.4958  -19.6344   21.5102 C.ar    1  UNL1        0.1515
      4 N          -6.6009  -20.4030   20.5836 N.ar    1  UNL1       -0.1329
      5 N          -5.1463  -20.0512   20.4825 N.ar    1  UNL1       -0.1409
      6 C          -4.5865  -18.9308   21.3080 C.ar    1  UNL1        0.1691
      7 C          -3.1318  -18.5791   21.2068 C.2     1  UNL1        0.2635
      8 N          -2.1051  -19.6646   21.0752 N.am    1  UNL1       -0.3240
      9 O          -2.7039  -17.1417   21.2373 O.2     1  UNL1       -0.2686
     10 H          -2.3859  -20.6080   21.0552 H       1  UNL1        0.1453
     11 H          -1.1503  -19.4338   21.0088 H       1  UNL1        0.1453
     12 N          -4.9215  -17.0418   23.0599 N.pl3   1  UNL1       -0.2965
     13 H          -4.0193  -16.6954   22.8723 H       1  UNL1        0.1537
     14 C          -9.5004  -15.4400   24.9222 C.3     1  UNL1        0.0546
     15 C          -8.0259  -15.6483   25.1022 C.ar    1  UNL1        0.0881
     16 N          -7.2110  -16.2409   23.9911 N.ar    1  UNL1       -0.2326
     17 C          -5.7364  -16.4492   24.1711 C.ar    1  UNL1        0.1319
     18 C          -5.0768  -16.0649   25.4623 C.ar    1  UNL1        0.0367
     19 C          -5.8918  -15.4723   26.5734 C.ar    1  UNL1        0.0337
     20 C          -7.3663  -15.2640   26.3934 C.ar    1  UNL1        0.1537
     21 F          -8.1812  -14.6714   27.5046 F       1  UNL1       -0.2029
     22 N          -8.9505  -19.9861   21.6113 N.pl3   1  UNL1       -0.3170
     23 H          -9.2209  -20.9161   21.7883 H       1  UNL1        0.1482
     24 C          -9.9931  -18.9211   21.4426 C.3     1  UNL1        0.0845
     25 C         -10.3455  -18.4270   20.0709 C.3     1  UNL1        0.0209
     26 C         -11.3882  -17.3619   19.9022 C.3     1  UNL1        0.0018
     27 C         -12.0784  -16.7908   21.1053 C.3     1  UNL1        0.0015
     28 C         -11.7260  -17.2849   22.4771 C.3     1  UNL1        0.0172
     29 C         -10.6834  -18.3500   22.6457 C.3     1  UNL1        0.0689
     30 N         -10.3309  -18.8440   24.0175 N.3     1  UNL1       -0.3209
     31 H          -9.6096  -19.5616   23.9455 H       1  UNL1        0.1189
     32 H         -11.1606  -19.2391   24.4602 H       1  UNL1        0.1189
@<TRIPOS>BOND
     1    14    15    1
     2    15    16   ar
     3    16    17   ar
     4    17    12    1
     5    12     1    1
     6     1     2   ar
     7     2     3   ar
     8     3    22    1
     9    24    22    1
    10    24    25    1
    11    25    26    1
    12    26    27    1
    13    27    28    1
    14    28    29    1
    15    29    30    1
    16     3     4   ar
    17     4     5   ar
    18     5     6   ar
    19     6     7    1
    20     7     8   am
    21     7     9    2
    22    17    18   ar
    23    18    19   ar
    24    19    20   ar
    25    20    21    1
    26    20    15   ar
    27     6     1   ar
    28    29    24    1
    29    12    13    1
    30    22    23    1
    31    30    31    1
    32    30    32    1
    33     8    10    1
    34     8    11    1
@<TRIPOS>MOLECULE
*****
 32 34 0 0 0
SMALL
GASTEIGER

@<TRIPOS>ATOM
      1 C          -7.5955  -18.4560   21.5785 C.ar    1  UNL1        0.0764
      2 C          -6.1385  -18.6535   21.8756 C.ar    1  UNL1        0.0522
      3 C          -5.3538  -19.6890   21.1260 C.ar    1  UNL1        0.1515
      4 N          -6.0262  -20.5270   20.0791 N.ar    1  UNL1       -0.1329
      5 N          -7.4831  -20.3295   19.7820 N.ar    1  UNL1       -0.1409
      6 C          -8.2677  -19.2939   20.5317 C.ar    1  UNL1        0.1691
      7 C          -9.7247  -19.0964   20.2345 C.2     1  UNL1        0.2635
      8 N         -10.1867  -17.8479   19.5434 N.am    1  UNL1       -0.3240
      9 O         -10.7197  -20.1475   20.6285 O.2     1  UNL1       -0.2686
     10 H          -9.5336  -17.1580   19.2848 H       1  UNL1        0.1453
     11 H         -11.1429  -17.7182   19.3484 H       1  UNL1        0.1453
     12 N          -8.3801  -17.4204   22.3281 N.pl3   1  UNL1       -0.2965
     13 H          -8.0839  -16.4815   22.3262 H       1  UNL1        0.1537
     14 C         -13.5323  -17.1844   22.9598 C.3     1  UNL1        0.0546
     15 C         -12.1922  -17.6974   23.3966 C.ar    1  UNL1        0.0881
     16 N         -10.9563  -17.3024   22.6440 N.ar    1  UNL1       -0.2326
     17 C          -9.6161  -17.8154   23.0808 C.ar    1  UNL1        0.1319
     18 C          -9.5118  -18.7234   24.2702 C.ar    1  UNL1        0.0367
     19 C         -10.7477  -19.1183   25.0228 C.ar    1  UNL1        0.0337
     20 C         -12.0879  -18.6054   24.5860 C.ar    1  UNL1        0.1537
     21 F         -13.3239  -19.0004   25.3387 F       1  UNL1       -0.2029
     22 N          -3.8969  -19.8866   21.4231 N.pl3   1  UNL1       -0.3170
     23 H          -3.5927  -20.7098   21.8691 H       1  UNL1        0.1482
     24 C          -2.9035  -18.8298   21.0406 C.3     1  UNL1        0.0845
     25 C          -2.2562  -18.8633   19.6879 C.3     1  UNL1        0.0209
     26 C          -1.2627  -17.8064   19.3055 C.3     1  UNL1        0.0018
     27 C          -0.9167  -16.7161   20.2758 C.3     1  UNL1        0.0015
     28 C          -1.5640  -16.6827   21.6285 C.3     1  UNL1        0.0172
     29 C          -2.5574  -17.7395   22.0110 C.3     1  UNL1        0.0689
     30 N          -3.2047  -17.7060   23.3637 N.3     1  UNL1       -0.3209
     31 H          -3.8472  -18.4931   23.4527 H       1  UNL1        0.1189
     32 H          -3.7200  -16.8325   23.4725 H       1  UNL1        0.1189
@<TRIPOS>BOND
     1    14    15    1
     2    15    16   ar
     3    16    17   ar
     4    17    12    1
     5    12     1    1
     6     1     2   ar
     7     2     3   ar
     8     3    22    1
     9    24    22    1
    10    24    25    1
    11    25    26    1
    12    26    27    1
    13    27    28    1
    14    28    29    1
    15    29    30    1
    16     3     4   ar
    17     4     5   ar
    18     5     6   ar
    19     6     7    1
    20     7     8   am
    21     7     9    2
    22    17    18   ar
    23    18    19   ar
    24    19    20   ar
    25    20    21    1
    26    20    15   ar
    27     6     1   ar
    28    29    24    1
    29    12    13    1
    30    22    23    1
    31    30    31    1
    32    30    32    1
    33     8    10    1
    34     8    11    1
@<TRIPOS>MOLECULE
*****
 32 34 0 0 0
SMALL
GASTEIGER

@<TRIPOS>ATOM
      1 C          -6.0091  -16.4692   23.9277 C.ar    1  UNL1        0.0764
      2 C          -6.7492  -17.2020   22.8482 C.ar    1  UNL1        0.0522
      3 C          -8.2487  -17.1776   22.8176 C.ar    1  UNL1        0.1515
      4 N          -9.0081  -16.4205   23.8665 N.ar    1  UNL1       -0.1329
      5 N          -8.2679  -15.6877   24.9460 N.ar    1  UNL1       -0.1409
      6 C          -6.7685  -15.7121   24.9766 C.ar    1  UNL1        0.1691
      7 C          -6.0283  -14.9793   26.0561 C.2     1  UNL1        0.2635
      8 N          -6.6324  -14.8472   27.4227 N.am    1  UNL1       -0.3240
      9 O          -4.6842  -14.3786   25.7689 O.2     1  UNL1       -0.2686
     10 H          -7.5146  -15.2414   27.6112 H       1  UNL1        0.1453
     11 H          -6.1466  -14.3662   28.1312 H       1  UNL1        0.1453
     12 N          -4.5096  -16.4935   23.9583 N.pl3   1  UNL1       -0.2965
     13 H          -4.0284  -16.1789   24.7575 H       1  UNL1        0.1537
     14 C          -3.7368  -20.1051   20.3033 C.3     1  UNL1        0.0546
     15 C          -3.3569  -18.8030   20.9437 C.ar    1  UNL1        0.0881
     16 N          -4.1232  -18.2993   22.1308 N.ar    1  UNL1       -0.2326
     17 C          -3.7433  -16.9972   22.7712 C.ar    1  UNL1        0.1319
     18 C          -2.5971  -16.1987   22.2246 C.ar    1  UNL1        0.0367
     19 C          -1.8309  -16.7024   21.0376 C.ar    1  UNL1        0.0337
     20 C          -2.2108  -18.0045   20.3971 C.ar    1  UNL1        0.1537
     21 F          -1.4445  -18.5082   19.2100 F       1  UNL1       -0.2029
     22 N          -8.9888  -17.9104   21.7382 N.pl3   1  UNL1       -0.3170
     23 H          -8.5711  -18.6819   21.2915 H       1  UNL1        0.1482
     24 C         -10.3653  -17.4676   21.3392 C.3     1  UNL1        0.0845
     25 C         -10.5443  -16.5142   20.1951 C.3     1  UNL1        0.0209
     26 C         -11.9209  -16.0714   19.7962 C.3     1  UNL1        0.0018
     27 C         -13.1184  -16.5820   20.5414 C.3     1  UNL1        0.0015
     28 C         -12.9393  -17.5354   21.6855 C.3     1  UNL1        0.0172
     29 C         -11.5628  -17.9782   22.0845 C.3     1  UNL1        0.0689
     30 N         -11.3838  -18.9316   23.2286 N.3     1  UNL1       -0.3209
     31 H         -10.3904  -19.1226   23.3597 H       1  UNL1        0.1189
     32 H         -11.8735  -19.8029   23.0249 H       1  UNL1        0.1189
@<TRIPOS>BOND
     1    14    15    1
     2    15    16   ar
     3    16    17   ar
     4    17    12    1
     5    12     1    1
     6     1     2   ar
     7     2     3   ar
     8     3    22    1
     9    24    22    1
    10    24    25    1
    11    25    26    1
    12    26    27    1
    13    27    28    1
    14    28    29    1
    15    29    30    1
    16     3     4   ar
    17     4     5   ar
    18     5     6   ar
    19     6     7    1
    20     7     8   am
    21     7     9    2
    22    17    18   ar
    23    18    19   ar
    24    19    20   ar
    25    20    21    1
    26    20    15   ar
    27     6     1   ar
    28    29    24    1
    29    12    13    1
    30    22    23    1
    31    30    31    1
    32    30    32    1
    33     8    10    1
    34     8    11    1
