@<TRIPOS>MOLECULE
*****
 39 43 0 0 0
SMALL
GASTEIGER

@<TRIPOS>ATOM
      1 C          -2.3653  -17.5734   22.0168 C.3     1  UNL1        0.0743
      2 C          -1.4797  -16.4256   21.6319 C.3     1  UNL1        0.0197
      3 C          -0.6837  -16.4855   20.3619 C.3     1  UNL1        0.0017
      4 C          -0.7734  -17.6932   19.4768 C.3     1  UNL1        0.0002
      5 C          -1.6591  -18.8410   19.8617 C.3     1  UNL1        0.0030
      6 C          -2.4550  -18.7811   21.1317 C.3     1  UNL1        0.0340
      7 N          -5.3700  -16.9502   24.5334 N.am    1  UNL1       -0.2683
      8 C          -4.5740  -17.0100   23.2635 C.2     1  UNL1        0.3044
      9 O          -5.1908  -16.5663   21.9701 O.2     1  UNL1       -0.2525
     10 N          -3.1613  -17.5136   23.2868 N.am    1  UNL1       -0.2903
     11 H          -4.9652  -17.2414   25.3823 H       1  UNL1        0.1564
     12 H          -2.7564  -17.8048   24.1357 H       1  UNL1        0.1509
     13 C          -9.0465  -16.1530   23.2695 C.ar    1  UNL1        0.0386
     14 C          -9.6083  -15.4395   24.4634 C.ar    1  UNL1        0.0032
     15 C          -8.7573  -15.2296   25.6806 C.ar    1  UNL1        0.0014
     16 C          -7.3445  -15.7332   25.7040 C.ar    1  UNL1        0.0147
     17 C          -6.7827  -16.4466   24.5101 C.ar    1  UNL1        0.0517
     18 C          -7.6337  -16.6565   23.2929 C.ar    1  UNL1        0.0178
     19 C         -12.1928  -15.3415   22.9653 C.3     1  UNL1        0.1573
     20 N         -11.3437  -15.9899   21.9124 N.ar    1  UNL1       -0.2113
     21 N         -11.7916  -16.3791   20.5348 N.ar    1  UNL1       -0.0429
     22 N         -10.6223  -16.9927   19.8232 N.ar    1  UNL1       -0.0227
     23 N          -9.4517  -16.9826   20.7610 N.ar    1  UNL1       -0.1081
     24 C          -9.8975  -16.3629   22.0522 C.ar    1  UNL1        0.1839
     25 C          -3.3406  -19.9290   21.5167 C.3     1  UNL1        0.0737
     26 N          -4.8234  -19.8343   21.3103 N.3     1  UNL1       -0.2726
     27 C          -5.3682  -19.2893   20.0234 C.3     1  UNL1        0.0721
     28 C          -6.8509  -19.1945   19.8170 C.3     1  UNL1        0.0174
     29 C          -7.7888  -19.6448   20.8977 C.3     1  UNL1        0.0031
     30 C          -7.2440  -20.1897   22.1846 C.3     1  UNL1        0.0204
     31 C          -5.7612  -20.2845   22.3909 C.3     1  UNL1        0.0724
     32 C          -8.1818  -20.6399   23.2651 C.3     1  UNL1        0.0277
     33 C          -9.5369  -20.0094   23.3928 C.ar    1  UNL1       -0.0220
     34 C          -9.9283  -19.3247   24.6688 C.ar    1  UNL1       -0.0020
     35 C         -11.2833  -18.6942   24.7965 C.ar    1  UNL1        0.0293
     36 C         -12.2469  -18.7483   23.6483 C.ar    1  UNL1        0.1401
     37 F         -13.6020  -18.1178   23.7760 F       1  UNL1       -0.2042
     38 C         -11.8556  -19.4330   22.3723 C.ar    1  UNL1        0.0293
     39 C         -10.5005  -20.0635   22.2445 C.ar    1  UNL1       -0.0020
@<TRIPOS>BOND
     1    19    20    1
     2    20    21   ar
     3    21    22   ar
     4    22    23   ar
     5    23    24   ar
     6    24    13    1
     7    13    14   ar
     8    14    15   ar
     9    15    16   ar
    10    16    17   ar
    11    17     7    1
    12     7     8   am
    13     8     9    2
    14     8    10   am
    15     1    10    1
    16     1     2    1
    17     2     3    1
    18     3     4    1
    19     4     5    1
    20     5     6    1
    21     6    25    1
    22    25    26    1
    23    26    27    1
    24    27    28    1
    25    28    29    1
    26    29    30    1
    27    30    32    1
    28    32    33    1
    29    33    34   ar
    30    34    35   ar
    31    35    36   ar
    32    36    37    1
    33    36    38   ar
    34    38    39   ar
    35    30    31    1
    36    17    18   ar
    37    24    20   ar
    38    18    13   ar
    39     6     1    1
    40    31    26    1
    41    39    33   ar
    42     7    11    1
    43    10    12    1
@<TRIPOS>MOLECULE
*****
 39 43 0 0 0
SMALL
GASTEIGER

@<TRIPOS>ATOM
      1 C           8.3944   -5.0772   26.6058 C.3     1  UNL1        0.0743
      2 C           9.2049   -6.2217   27.1378 C.3     1  UNL1        0.0197
      3 C           9.2879   -7.5050   26.3654 C.3     1  UNL1        0.0017
      4 C           8.5603   -7.6436   25.0610 C.3     1  UNL1        0.0002
      5 C           7.7497   -6.4990   24.5290 C.3     1  UNL1        0.0030
      6 C           7.6668   -5.2158   25.3014 C.3     1  UNL1        0.0340
      7 N           7.2473   -2.3757   29.2771 N.am    1  UNL1       -0.2683
      8 C           7.3303   -3.6588   28.5047 C.2     1  UNL1        0.3044
      9 O           6.4322   -4.8069   28.8589 O.2     1  UNL1       -0.2525
     10 N           8.3114   -3.7940   27.3781 N.am    1  UNL1       -0.2903
     11 H           7.8368   -1.6222   29.0446 H       1  UNL1        0.1564
     12 H           8.9009   -3.0405   27.1456 H       1  UNL1        0.1509
     13 C           4.0955   -1.2034   31.3846 C.ar    1  UNL1        0.0386
     14 C           4.3040   -1.9701   32.6568 C.ar    1  UNL1        0.0032
     15 C           5.4937   -2.8720   32.8024 C.ar    1  UNL1        0.0014
     16 C           6.4747   -3.0072   31.6759 C.ar    1  UNL1        0.0147
     17 C           6.2662   -2.2405   30.4037 C.ar    1  UNL1        0.0517
     18 C           5.0766   -1.3386   30.2580 C.ar    1  UNL1        0.0178
     19 C           3.3893    1.3608   33.2756 C.3     1  UNL1        0.1573
     20 N           2.5812    0.8772   32.1081 N.ar    1  UNL1       -0.2113
     21 N           1.3066    1.4873   31.6048 N.ar    1  UNL1       -0.0429
     22 N           0.8435    0.6857   30.4245 N.ar    1  UNL1       -0.0227
     23 N           1.8318   -0.4198   30.1984 N.ar    1  UNL1       -0.1081
     24 C           2.9058   -0.3014   31.2389 C.ar    1  UNL1        0.1839
     25 C           6.8562   -4.0712   24.7694 C.3     1  UNL1        0.0737
     26 N           6.8375   -3.7860   23.2969 N.3     1  UNL1       -0.2726
     27 C           8.1156   -3.4702   22.5778 C.3     1  UNL1        0.0721
     28 C           8.0969   -3.1850   21.1053 C.3     1  UNL1        0.0174
     29 C           6.8001   -3.2155   20.3519 C.3     1  UNL1        0.0031
     30 C           5.5222   -3.5313   21.0709 C.3     1  UNL1        0.0204
     31 C           5.5409   -3.8165   22.5434 C.3     1  UNL1        0.0724
     32 C           4.2256   -3.5618   20.3175 C.3     1  UNL1        0.0277
     33 C           3.6617   -2.2958   19.7434 C.ar    1  UNL1       -0.0220
     34 C           4.0378   -1.8690   18.3555 C.ar    1  UNL1       -0.0020
     35 C           3.4740   -0.6031   17.7815 C.ar    1  UNL1        0.0293
     36 C           2.5340    0.2360   18.5953 C.ar    1  UNL1        0.1401
     37 F           1.9702    1.5019   18.0213 F       1  UNL1       -0.2042
     38 C           2.1579   -0.1908   19.9833 C.ar    1  UNL1        0.0293
     39 C           2.7217   -1.4567   20.5573 C.ar    1  UNL1       -0.0020
@<TRIPOS>BOND
     1    19    20    1
     2    20    21   ar
     3    21    22   ar
     4    22    23   ar
     5    23    24   ar
     6    24    13    1
     7    13    14   ar
     8    14    15   ar
     9    15    16   ar
    10    16    17   ar
    11    17     7    1
    12     7     8   am
    13     8     9    2
    14     8    10   am
    15     1    10    1
    16     1     2    1
    17     2     3    1
    18     3     4    1
    19     4     5    1
    20     5     6    1
    21     6    25    1
    22    25    26    1
    23    26    27    1
    24    27    28    1
    25    28    29    1
    26    29    30    1
    27    30    32    1
    28    32    33    1
    29    33    34   ar
    30    34    35   ar
    31    35    36   ar
    32    36    37    1
    33    36    38   ar
    34    38    39   ar
    35    30    31    1
    36    17    18   ar
    37    24    20   ar
    38    18    13   ar
    39     6     1    1
    40    31    26    1
    41    39    33   ar
    42     7    11    1
    43    10    12    1
@<TRIPOS>MOLECULE
*****
 39 43 0 0 0
SMALL
GASTEIGER

@<TRIPOS>ATOM
      1 C           7.0025   -3.3806   23.5934 C.3     1  UNL1        0.0743
      2 C           6.6705   -3.8258   24.9867 C.3     1  UNL1        0.0197
      3 C           7.1057   -5.1792   25.4654 C.3     1  UNL1        0.0017
      4 C           7.8731   -6.0872   24.5507 C.3     1  UNL1        0.0002
      5 C           8.2051   -5.6419   23.1573 C.3     1  UNL1        0.0030
      6 C           7.7699   -4.2886   22.6787 C.3     1  UNL1        0.0340
      7 N           4.7172   -0.4563   22.1877 N.am    1  UNL1       -0.2683
      8 C           5.1525   -1.8095   22.6664 C.2     1  UNL1        0.3044
      9 O           4.1730   -2.9452   22.6968 O.2     1  UNL1       -0.2525
     10 N           6.5673   -2.0272   23.1147 N.am    1  UNL1       -0.2903
     11 H           5.3601    0.2891   22.1678 H       1  UNL1        0.1564
     12 H           7.2102   -1.2819   23.0948 H       1  UNL1        0.1509
     13 C           1.0745    1.0898   21.8870 C.ar    1  UNL1        0.0386
     14 C           0.4728    0.1967   20.8428 C.ar    1  UNL1        0.0032
     15 C           1.2859   -0.9140   20.2470 C.ar    1  UNL1        0.0014
     16 C           2.7007   -1.1317   20.6953 C.ar    1  UNL1        0.0147
     17 C           3.3024   -0.2386   21.7394 C.ar    1  UNL1        0.0517
     18 C           2.4893    0.8721   22.3353 C.ar    1  UNL1        0.0178
     19 C           0.1609    1.3360   25.0102 C.3     1  UNL1        0.1573
     20 N          -0.1585    2.3137   23.9185 N.ar    1  UNL1       -0.2113
     21 N          -0.9539    3.5763   24.0706 N.ar    1  UNL1       -0.0429
     22 N          -1.0256    4.2436   22.7291 N.ar    1  UNL1       -0.0227
     23 N          -0.2744    3.3933   21.7478 N.ar    1  UNL1       -0.1081
     24 C           0.2614    2.2006   22.4829 C.ar    1  UNL1        0.1839
     25 C           8.1020   -3.8433   21.2853 C.3     1  UNL1        0.0737
     26 N           7.0012   -3.5257   20.3171 N.3     1  UNL1       -0.2726
     27 C           5.8996   -4.5164   20.0826 C.3     1  UNL1        0.0721
     28 C           4.7988   -4.1988   19.1144 C.3     1  UNL1        0.0174
     29 C           4.7996   -2.8905   18.3807 C.3     1  UNL1        0.0031
     30 C           5.9012   -1.8998   18.6152 C.3     1  UNL1        0.0204
     31 C           7.0020   -2.2174   19.5834 C.3     1  UNL1        0.0724
     32 C           5.9020   -0.5915   17.8815 C.3     1  UNL1        0.0277
     33 C           4.9892    0.5150   18.3202 C.ar    1  UNL1       -0.0220
     34 C           3.5865    0.5834   17.7933 C.ar    1  UNL1       -0.0020
     35 C           2.6737    1.6899   18.2320 C.ar    1  UNL1        0.0293
     36 C           3.1636    2.7280   19.1976 C.ar    1  UNL1        0.1401
     37 F           2.2508    3.8345   19.6363 F       1  UNL1       -0.2042
     38 C           4.5664    2.6595   19.7245 C.ar    1  UNL1        0.0293
     39 C           5.4792    1.5530   19.2858 C.ar    1  UNL1       -0.0020
@<TRIPOS>BOND
     1    19    20    1
     2    20    21   ar
     3    21    22   ar
     4    22    23   ar
     5    23    24   ar
     6    24    13    1
     7    13    14   ar
     8    14    15   ar
     9    15    16   ar
    10    16    17   ar
    11    17     7    1
    12     7     8   am
    13     8     9    2
    14     8    10   am
    15     1    10    1
    16     1     2    1
    17     2     3    1
    18     3     4    1
    19     4     5    1
    20     5     6    1
    21     6    25    1
    22    25    26    1
    23    26    27    1
    24    27    28    1
    25    28    29    1
    26    29    30    1
    27    30    32    1
    28    32    33    1
    29    33    34   ar
    30    34    35   ar
    31    35    36   ar
    32    36    37    1
    33    36    38   ar
    34    38    39   ar
    35    30    31    1
    36    17    18   ar
    37    24    20   ar
    38    18    13   ar
    39     6     1    1
    40    31    26    1
    41    39    33   ar
    42     7    11    1
    43    10    12    1
@<TRIPOS>MOLECULE
*****
 39 43 0 0 0
SMALL
GASTEIGER

@<TRIPOS>ATOM
      1 C         -11.1909  -18.8019   21.9385 C.3     1  UNL1        0.0743
      2 C         -11.3166  -19.8057   23.0460 C.3     1  UNL1        0.0197
      3 C         -12.1993  -19.5164   24.2238 C.3     1  UNL1        0.0017
      4 C         -12.9563  -18.2233   24.2941 C.3     1  UNL1        0.0002
      5 C         -12.8305  -17.2195   23.1865 C.3     1  UNL1        0.0030
      6 C         -11.9478  -17.5088   22.0087 C.3     1  UNL1        0.0340
      7 N          -7.9648  -19.6526   19.7893 N.am    1  UNL1       -0.2683
      8 C          -8.8476  -19.3633   20.9670 C.2     1  UNL1        0.3044
      9 O          -8.2697  -19.3461   22.3512 O.2     1  UNL1       -0.2525
     10 N         -10.3082  -19.0913   20.7607 N.am    1  UNL1       -0.2903
     11 H          -8.3441  -19.6639   18.8809 H       1  UNL1        0.1564
     12 H         -10.6875  -19.1026   19.8522 H       1  UNL1        0.1509
     13 C          -4.1119  -19.0717   20.5426 C.ar    1  UNL1        0.0386
     14 C          -3.5830  -20.4689   20.4083 C.ar    1  UNL1        0.0032
     15 C          -4.5147  -21.5940   20.0677 C.ar    1  UNL1        0.0014
     16 C          -5.9753  -21.3219   19.8614 C.ar    1  UNL1        0.0147
     17 C          -6.5042  -19.9247   19.9956 C.ar    1  UNL1        0.0517
     18 C          -5.5725  -18.7996   20.3362 C.ar    1  UNL1        0.0178
     19 C          -1.6933  -17.9478   18.6619 C.3     1  UNL1        0.1573
     20 N          -2.0685  -17.4300   20.0187 N.ar    1  UNL1       -0.2113
     21 N          -1.3979  -16.3046   20.7493 N.ar    1  UNL1       -0.0429
     22 N          -2.0951  -16.1256   22.0654 N.ar    1  UNL1       -0.0227
     23 N          -3.1967  -17.1404   22.1481 N.ar    1  UNL1       -0.1081
     24 C          -3.1802  -17.9465   20.8832 C.ar    1  UNL1        0.1839
     25 C         -11.8221  -16.5051   20.9011 C.3     1  UNL1        0.0737
     26 N         -10.5834  -15.6669   20.7857 N.3     1  UNL1       -0.2726
     27 C         -10.4405  -14.6917   19.6549 C.3     1  UNL1        0.0721
     28 C          -9.2019  -13.8535   19.5394 C.3     1  UNL1        0.0174
     29 C          -8.1062  -13.9906   20.5548 C.3     1  UNL1        0.0031
     30 C          -8.2492  -14.9657   21.6855 C.3     1  UNL1        0.0204
     31 C          -9.4878  -15.8039   21.8010 C.3     1  UNL1        0.0724
     32 C          -7.1536  -15.1027   22.7008 C.3     1  UNL1        0.0277
     33 C          -7.4833  -15.4871   24.1127 C.ar    1  UNL1       -0.0220
     34 C          -6.5628  -15.0965   25.2308 C.ar    1  UNL1       -0.0020
     35 C          -6.8925  -15.4809   26.6427 C.ar    1  UNL1        0.0293
     36 C          -8.1426  -16.2559   26.9366 C.ar    1  UNL1        0.1401
     37 F          -8.4723  -16.6404   28.3485 F       1  UNL1       -0.2042
     38 C          -9.0632  -16.6466   25.8185 C.ar    1  UNL1        0.0293
     39 C          -8.7335  -16.2622   24.4066 C.ar    1  UNL1       -0.0020
@<TRIPOS>BOND
     1    19    20    1
     2    20    21   ar
     3    21    22   ar
     4    22    23   ar
     5    23    24   ar
     6    24    13    1
     7    13    14   ar
     8    14    15   ar
     9    15    16   ar
    10    16    17   ar
    11    17     7    1
    12     7     8   am
    13     8     9    2
    14     8    10   am
    15     1    10    1
    16     1     2    1
    17     2     3    1
    18     3     4    1
    19     4     5    1
    20     5     6    1
    21     6    25    1
    22    25    26    1
    23    26    27    1
    24    27    28    1
    25    28    29    1
    26    29    30    1
    27    30    32    1
    28    32    33    1
    29    33    34   ar
    30    34    35   ar
    31    35    36   ar
    32    36    37    1
    33    36    38   ar
    34    38    39   ar
    35    30    31    1
    36    17    18   ar
    37    24    20   ar
    38    18    13   ar
    39     6     1    1
    40    31    26    1
    41    39    33   ar
    42     7    11    1
    43    10    12    1
@<TRIPOS>MOLECULE
*****
 39 43 0 0 0
SMALL
GASTEIGER

@<TRIPOS>ATOM
      1 C          -5.2453  -15.9738   24.2009 C.3     1  UNL1        0.0743
      2 C          -5.6821  -16.0352   25.6345 C.3     1  UNL1        0.0197
      3 C          -4.8336  -16.7455   26.6473 C.3     1  UNL1        0.0017
      4 C          -3.5484  -17.3944   26.2264 C.3     1  UNL1        0.0002
      5 C          -3.1117  -17.3330   24.7926 C.3     1  UNL1        0.0030
      6 C          -3.9601  -16.6227   23.7799 C.3     1  UNL1        0.0340
      7 N          -8.3121  -15.0702   21.8497 N.am    1  UNL1       -0.2683
      8 C          -7.4637  -15.7804   22.8624 C.2     1  UNL1        0.3044
      9 O          -7.9852  -17.0076   23.5495 O.2     1  UNL1       -0.2525
     10 N          -6.0938  -15.2635   23.1881 N.am    1  UNL1       -0.2903
     11 H          -7.9699  -14.2647   21.3987 H       1  UNL1        0.1564
     12 H          -5.7515  -14.4581   22.7372 H       1  UNL1        0.1509
     13 C         -11.8541  -16.8156   22.2472 C.ar    1  UNL1        0.0386
     14 C         -12.4220  -16.6209   20.8726 C.ar    1  UNL1        0.0032
     15 C         -11.6199  -15.9093   19.8237 C.ar    1  UNL1        0.0014
     16 C         -10.2499  -15.3924   20.1494 C.ar    1  UNL1        0.0147
     17 C          -9.6821  -15.5871   21.5240 C.ar    1  UNL1        0.0517
     18 C         -10.4841  -16.2987   22.5729 C.ar    1  UNL1        0.0178
     19 C         -10.6766  -18.8518   24.5093 C.3     1  UNL1        0.1573
     20 N         -12.1149  -18.4631   24.3360 N.ar    1  UNL1       -0.2113
     21 N         -13.2645  -18.9421   25.1719 N.ar    1  UNL1       -0.0429
     22 N         -14.5164  -18.3023   24.6489 N.ar    1  UNL1       -0.0227
     23 N         -14.1403  -17.4278   23.4896 N.ar    1  UNL1       -0.1081
     24 C         -12.6562  -17.5272   23.2962 C.ar    1  UNL1        0.1839
     25 C          -3.5234  -16.5613   22.3462 C.3     1  UNL1        0.0737
     26 N          -3.5659  -17.7962   21.4957 N.3     1  UNL1       -0.2726
     27 C          -2.4301  -18.1061   20.5661 C.3     1  UNL1        0.0721
     28 C          -2.4726  -19.3410   19.7157 C.3     1  UNL1        0.0174
     29 C          -3.6509  -20.2659   19.7947 C.3     1  UNL1        0.0031
     30 C          -4.7866  -19.9559   20.7242 C.3     1  UNL1        0.0204
     31 C          -4.7441  -18.7211   21.5747 C.3     1  UNL1        0.0724
     32 C          -5.9649  -20.8808   20.8032 C.3     1  UNL1        0.0277
     33 C          -7.3162  -20.4145   20.3489 C.ar    1  UNL1       -0.0220
     34 C          -8.1922  -19.6318   21.2816 C.ar    1  UNL1       -0.0020
     35 C          -9.5435  -19.1655   20.8273 C.ar    1  UNL1        0.0293
     36 C         -10.0189  -19.4818   19.4403 C.ar    1  UNL1        0.1401
     37 F         -11.3703  -19.0155   18.9860 F       1  UNL1       -0.2042
     38 C          -9.1429  -20.2646   18.5075 C.ar    1  UNL1        0.0293
     39 C          -7.7916  -20.7309   18.9618 C.ar    1  UNL1       -0.0020
@<TRIPOS>BOND
     1    19    20    1
     2    20    21   ar
     3    21    22   ar
     4    22    23   ar
     5    23    24   ar
     6    24    13    1
     7    13    14   ar
     8    14    15   ar
     9    15    16   ar
    10    16    17   ar
    11    17     7    1
    12     7     8   am
    13     8     9    2
    14     8    10   am
    15     1    10    1
    16     1     2    1
    17     2     3    1
    18     3     4    1
    19     4     5    1
    20     5     6    1
    21     6    25    1
    22    25    26    1
    23    26    27    1
    24    27    28    1
    25    28    29    1
    26    29    30    1
    27    30    32    1
    28    32    33    1
    29    33    34   ar
    30    34    35   ar
    31    35    36   ar
    32    36    37    1
    33    36    38   ar
    34    38    39   ar
    35    30    31    1
    36    17    18   ar
    37    24    20   ar
    38    18    13   ar
    39     6     1    1
    40    31    26    1
    41    39    33   ar
    42     7    11    1
    43    10    12    1
@<TRIPOS>MOLECULE
*****
 39 43 0 0 0
SMALL
GASTEIGER

@<TRIPOS>ATOM
      1 C           0.9383    2.9697   29.1379 C.3     1  UNL1        0.0743
      2 C           0.4119    4.1995   28.4593 C.3     1  UNL1        0.0197
      3 C          -0.6348    4.0773   27.3918 C.3     1  UNL1        0.0017
      4 C          -1.1551    2.7253   27.0029 C.3     1  UNL1        0.0002
      5 C          -0.6287    1.4954   27.6815 C.3     1  UNL1        0.0030
      6 C           0.4180    1.6177   28.7490 C.3     1  UNL1        0.0340
      7 N           2.6350    3.5707   32.6748 N.am    1  UNL1       -0.2683
      8 C           1.5884    3.4485   31.6073 C.2     1  UNL1        0.3044
      9 O           0.1450    3.6830   31.9418 O.2     1  UNL1       -0.2525
     10 N           1.9850    3.0919   30.2054 N.am    1  UNL1       -0.2903
     11 H           3.5823    3.4169   32.4553 H       1  UNL1        0.1564
     12 H           2.9323    2.9380   29.9858 H       1  UNL1        0.1509
     13 C           2.1350    3.3376   36.6049 C.ar    1  UNL1        0.0386
     14 C           1.4451    4.6406   36.8807 C.ar    1  UNL1        0.0032
     15 C           1.1520    5.5871   35.7545 C.ar    1  UNL1        0.0014
     16 C           1.5486    5.2304   34.3526 C.ar    1  UNL1        0.0147
     17 C           2.2384    3.9274   34.0768 C.ar    1  UNL1        0.0517
     18 C           2.5316    2.9809   35.2029 C.ar    1  UNL1        0.0178
     19 C           5.0723    2.7457   37.8978 C.3     1  UNL1        0.1573
     20 N           3.7783    2.1191   38.3253 N.ar    1  UNL1       -0.2113
     21 N           3.6073    1.1103   39.4222 N.ar    1  UNL1       -0.0429
     22 N           2.1514    0.7588   39.5059 N.ar    1  UNL1       -0.0227
     23 N           1.4227    1.5504   38.4607 N.ar    1  UNL1       -0.1081
     24 C           2.4282    2.3911   37.7311 C.ar    1  UNL1        0.1839
     25 C           0.9444    0.3878   29.4276 C.3     1  UNL1        0.0737
     26 N           2.2952   -0.1513   29.0605 N.3     1  UNL1       -0.2726
     27 C           2.5763   -0.5723   27.6484 C.3     1  UNL1        0.0721
     28 C           3.9270   -1.1114   27.2813 C.3     1  UNL1        0.0174
     29 C           4.9967   -1.2295   28.3263 C.3     1  UNL1        0.0031
     30 C           4.7156   -0.8086   29.7382 C.3     1  UNL1        0.0204
     31 C           3.3648   -0.2695   30.1053 C.3     1  UNL1        0.0724
     32 C           5.7853   -0.9267   30.7831 C.3     1  UNL1        0.0277
     33 C           5.4330   -0.7956   32.2352 C.ar    1  UNL1       -0.0220
     34 C           5.7942    0.4524   32.9849 C.ar    1  UNL1       -0.0020
     35 C           5.4419    0.5835   34.4370 C.ar    1  UNL1        0.0293
     36 C           4.7285   -0.5333   35.1395 C.ar    1  UNL1        0.1401
     37 F           4.3762   -0.4022   36.5917 F       1  UNL1       -0.2042
     38 C           4.3673   -1.7814   34.3899 C.ar    1  UNL1        0.0293
     39 C           4.7195   -1.9125   32.9378 C.ar    1  UNL1       -0.0020
@<TRIPOS>BOND
     1    19    20    1
     2    20    21   ar
     3    21    22   ar
     4    22    23   ar
     5    23    24   ar
     6    24    13    1
     7    13    14   ar
     8    14    15   ar
     9    15    16   ar
    10    16    17   ar
    11    17     7    1
    12     7     8   am
    13     8     9    2
    14     8    10   am
    15     1    10    1
    16     1     2    1
    17     2     3    1
    18     3     4    1
    19     4     5    1
    20     5     6    1
    21     6    25    1
    22    25    26    1
    23    26    27    1
    24    27    28    1
    25    28    29    1
    26    29    30    1
    27    30    32    1
    28    32    33    1
    29    33    34   ar
    30    34    35   ar
    31    35    36   ar
    32    36    37    1
    33    36    38   ar
    34    38    39   ar
    35    30    31    1
    36    17    18   ar
    37    24    20   ar
    38    18    13   ar
    39     6     1    1
    40    31    26    1
    41    39    33   ar
    42     7    11    1
    43    10    12    1
@<TRIPOS>MOLECULE
*****
 39 43 0 0 0
SMALL
GASTEIGER

@<TRIPOS>ATOM
      1 C           6.9165   -2.6012   24.4985 C.3     1  UNL1        0.0743
      2 C           6.8532   -3.6829   25.5356 C.3     1  UNL1        0.0197
      3 C           7.3020   -5.0737   25.1971 C.3     1  UNL1        0.0017
      4 C           7.8142   -5.3825   23.8215 C.3     1  UNL1        0.0002
      5 C           7.8775   -4.3007   22.7844 C.3     1  UNL1        0.0030
      6 C           7.4287   -2.9100   23.1229 C.3     1  UNL1        0.0340
      7 N           4.5549    0.4961   25.2598 N.am    1  UNL1       -0.2683
      8 C           5.0037   -0.8945   24.9214 C.2     1  UNL1        0.3044
      9 O           3.9887   -1.9694   24.6674 O.2     1  UNL1       -0.2525
     10 N           6.4677   -1.2104   24.8369 N.am    1  UNL1       -0.2903
     11 H           5.2211    1.2015   25.4265 H       1  UNL1        0.1564
     12 H           7.1339   -0.5050   25.0036 H       1  UNL1        0.1509
     13 C           0.9028    0.9837   26.7344 C.ar    1  UNL1        0.0386
     14 C           0.1631    1.4438   25.5133 C.ar    1  UNL1        0.0032
     15 C           0.8873    1.5880   24.2077 C.ar    1  UNL1        0.0014
     16 C           2.3513    1.2721   24.1232 C.ar    1  UNL1        0.0147
     17 C           3.0909    0.8120   25.3443 C.ar    1  UNL1        0.0517
     18 C           2.3667    0.6678   26.6499 C.ar    1  UNL1        0.0178
     19 C           1.5046    2.6760   29.4590 C.3     1  UNL1        0.1573
     20 N           0.4552    1.6173   29.2924 N.ar    1  UNL1       -0.2113
     21 N          -0.5019    1.1506   30.3489 N.ar    1  UNL1       -0.0429
     22 N          -1.3701    0.0843   29.7495 N.ar    1  UNL1       -0.0227
     23 N          -0.9496   -0.1080   28.3226 N.ar    1  UNL1       -0.1081
     24 C           0.1785    0.8394   28.0401 C.ar    1  UNL1        0.1839
     25 C           7.4920   -1.8282   22.0857 C.3     1  UNL1        0.0737
     26 N           6.7515   -1.9863   20.7908 N.3     1  UNL1       -0.2726
     27 C           7.5110   -2.1246   19.5046 C.3     1  UNL1        0.0721
     28 C           6.7706   -2.2828   18.2097 C.3     1  UNL1        0.0174
     29 C           5.2707   -2.3027   18.2010 C.3     1  UNL1        0.0031
     30 C           4.5113   -2.1644   19.4872 C.3     1  UNL1        0.0204
     31 C           5.2517   -2.0062   20.7821 C.3     1  UNL1        0.0724
     32 C           3.0115   -2.1842   19.4784 C.3     1  UNL1        0.0277
     33 C           2.2443   -0.8953   19.4863 C.ar    1  UNL1       -0.0220
     34 C           2.5881    0.1881   18.5076 C.ar    1  UNL1       -0.0020
     35 C           1.8209    1.4771   18.5154 C.ar    1  UNL1        0.0293
     36 C           0.7098    1.6825   19.5019 C.ar    1  UNL1        0.1401
     37 F          -0.0574    2.9715   19.5098 F       1  UNL1       -0.2042
     38 C           0.3660    0.5991   20.4807 C.ar    1  UNL1        0.0293
     39 C           1.1332   -0.6899   20.4729 C.ar    1  UNL1       -0.0020
@<TRIPOS>BOND
     1    19    20    1
     2    20    21   ar
     3    21    22   ar
     4    22    23   ar
     5    23    24   ar
     6    24    13    1
     7    13    14   ar
     8    14    15   ar
     9    15    16   ar
    10    16    17   ar
    11    17     7    1
    12     7     8   am
    13     8     9    2
    14     8    10   am
    15     1    10    1
    16     1     2    1
    17     2     3    1
    18     3     4    1
    19     4     5    1
    20     5     6    1
    21     6    25    1
    22    25    26    1
    23    26    27    1
    24    27    28    1
    25    28    29    1
    26    29    30    1
    27    30    32    1
    28    32    33    1
    29    33    34   ar
    30    34    35   ar
    31    35    36   ar
    32    36    37    1
    33    36    38   ar
    34    38    39   ar
    35    30    31    1
    36    17    18   ar
    37    24    20   ar
    38    18    13   ar
    39     6     1    1
    40    31    26    1
    41    39    33   ar
    42     7    11    1
    43    10    12    1
@<TRIPOS>MOLECULE
*****
 39 43 0 0 0
SMALL
GASTEIGER

@<TRIPOS>ATOM
      1 C           3.1875    0.3846   26.2695 C.3     1  UNL1        0.0743
      2 C           1.9771    0.6610   27.1111 C.3     1  UNL1        0.0197
      3 C           2.0592    1.6403   28.2444 C.3     1  UNL1        0.0017
      4 C           3.3519    2.3431   28.5361 C.3     1  UNL1        0.0002
      5 C           4.5624    2.0667   27.6943 C.3     1  UNL1        0.0030
      6 C           4.4802    1.0875   26.5611 C.3     1  UNL1        0.0340
      7 N           2.8361   -1.0815   22.5984 N.am    1  UNL1       -0.2683
      8 C           2.9183   -0.1023   23.7317 C.2     1  UNL1        0.3044
      9 O           2.8133    1.3693   23.4605 O.2     1  UNL1       -0.2525
     10 N           3.1054   -0.5946   25.1361 N.am    1  UNL1       -0.2903
     11 H           2.9050   -2.0473   22.7763 H       1  UNL1        0.1564
     12 H           3.1742   -1.5604   25.3141 H       1  UNL1        0.1509
     13 C           3.6560    0.1490   18.9155 C.ar    1  UNL1        0.0386
     14 C           2.2749    0.3955   18.3849 C.ar    1  UNL1        0.0032
     15 C           1.0808    0.1497   19.2587 C.ar    1  UNL1        0.0014
     16 C           1.2679   -0.3427   20.6632 C.ar    1  UNL1        0.0147
     17 C           2.6490   -0.5891   21.1939 C.ar    1  UNL1        0.0517
     18 C           3.8431   -0.3433   20.3200 C.ar    1  UNL1        0.0178
     19 C           5.2872    2.9624   18.6432 C.3     1  UNL1        0.1573
     20 N           5.5999    1.6880   17.9164 N.ar    1  UNL1       -0.2113
     21 N           6.7173    1.4830   16.9370 N.ar    1  UNL1       -0.0429
     22 N           6.6582    0.0631   16.4567 N.ar    1  UNL1       -0.0227
     23 N           5.5042   -0.6093   17.1394 N.ar    1  UNL1       -0.1081
     24 C           4.8502    0.3949   18.0416 C.ar    1  UNL1        0.1839
     25 C           5.6906    0.8111   25.7194 C.3     1  UNL1        0.0737
     26 N           6.1457   -0.6014   25.5010 N.3     1  UNL1       -0.2726
     27 C           6.2444   -1.5456   26.6625 C.3     1  UNL1        0.0721
     28 C           6.6994   -2.9581   26.4441 C.3     1  UNL1        0.0174
     29 C           7.0557   -3.4265   25.0643 C.3     1  UNL1        0.0031
     30 C           6.9570   -2.4824   23.9030 C.3     1  UNL1        0.0204
     31 C           6.5019   -1.0698   24.1213 C.3     1  UNL1        0.0724
     32 C           7.3132   -2.9508   22.5233 C.3     1  UNL1        0.0277
     33 C           6.2305   -3.3328   21.5580 C.ar    1  UNL1       -0.0220
     34 C           4.9255   -3.8680   22.0682 C.ar    1  UNL1       -0.0020
     35 C           3.8428   -4.2501   21.1029 C.ar    1  UNL1        0.0293
     36 C           4.0651   -4.0969   19.6274 C.ar    1  UNL1        0.1401
     37 F           2.9824   -4.4790   18.6621 F       1  UNL1       -0.2042
     38 C           5.3702   -3.5616   19.1172 C.ar    1  UNL1        0.0293
     39 C           6.4529   -3.1796   20.0824 C.ar    1  UNL1       -0.0020
@<TRIPOS>BOND
     1    19    20    1
     2    20    21   ar
     3    21    22   ar
     4    22    23   ar
     5    23    24   ar
     6    24    13    1
     7    13    14   ar
     8    14    15   ar
     9    15    16   ar
    10    16    17   ar
    11    17     7    1
    12     7     8   am
    13     8     9    2
    14     8    10   am
    15     1    10    1
    16     1     2    1
    17     2     3    1
    18     3     4    1
    19     4     5    1
    20     5     6    1
    21     6    25    1
    22    25    26    1
    23    26    27    1
    24    27    28    1
    25    28    29    1
    26    29    30    1
    27    30    32    1
    28    32    33    1
    29    33    34   ar
    30    34    35   ar
    31    35    36   ar
    32    36    37    1
    33    36    38   ar
    34    38    39   ar
    35    30    31    1
    36    17    18   ar
    37    24    20   ar
    38    18    13   ar
    39     6     1    1
    40    31    26    1
    41    39    33   ar
    42     7    11    1
    43    10    12    1
@<TRIPOS>MOLECULE
*****
 39 43 0 0 0
SMALL
GASTEIGER

@<TRIPOS>ATOM
      1 C           2.1424    0.6327   28.1459 C.3     1  UNL1        0.0743
      2 C           1.1116   -0.0394   29.0036 C.3     1  UNL1        0.0197
      3 C          -0.3388    0.3087   28.8449 C.3     1  UNL1        0.0017
      4 C          -0.7584    1.3288   27.8283 C.3     1  UNL1        0.0002
      5 C           0.2725    2.0009   26.9706 C.3     1  UNL1        0.0030
      6 C           1.7229    1.6528   27.1294 C.3     1  UNL1        0.0340
      7 N           5.5586   -1.3785   27.9583 N.am    1  UNL1       -0.2683
      8 C           4.1083   -1.0304   27.7995 C.2     1  UNL1        0.3044
      9 O           3.1732   -1.9973   27.1356 O.2     1  UNL1       -0.2525
     10 N           3.5929    0.2846   28.3047 N.am    1  UNL1       -0.2903
     11 H           6.1723   -0.7438   28.3940 H       1  UNL1        0.1564
     12 H           4.2066    0.9193   28.7404 H       1  UNL1        0.1509
     13 C           6.8059   -4.2144   25.4781 C.ar    1  UNL1        0.0386
     14 C           7.1047   -5.3235   26.4428 C.ar    1  UNL1        0.0032
     15 C           6.8882   -5.1175   27.9127 C.ar    1  UNL1        0.0014
     16 C           6.3728   -3.8025   28.4179 C.ar    1  UNL1        0.0147
     17 C           6.0740   -2.6935   27.4531 C.ar    1  UNL1        0.0517
     18 C           6.2905   -2.8994   25.9832 C.ar    1  UNL1        0.0178
     19 C           9.3491   -5.7325   24.1079 C.3     1  UNL1        0.1573
     20 N           8.1914   -5.1182   23.3783 N.ar    1  UNL1       -0.2113
     21 N           7.9994   -5.0938   21.8909 N.ar    1  UNL1       -0.0429
     22 N           6.7118   -4.3809   21.6013 N.ar    1  UNL1       -0.0227
     23 N           6.1080   -3.9647   22.9098 N.ar    1  UNL1       -0.1081
     24 C           7.0224   -4.4204   24.0081 C.ar    1  UNL1        0.1839
     25 C           2.7538    2.3249   26.2716 C.3     1  UNL1        0.0737
     26 N           3.6343    1.5049   25.3758 N.3     1  UNL1       -0.2726
     27 C           5.1154    1.7419   25.3588 C.3     1  UNL1        0.0721
     28 C           5.9959    0.9220   24.4630 C.3     1  UNL1        0.0174
     29 C           5.3952   -0.1349   23.5842 C.3     1  UNL1        0.0031
     30 C           3.9142   -0.3719   23.6012 C.3     1  UNL1        0.0204
     31 C           3.0337    0.4481   24.4971 C.3     1  UNL1        0.0724
     32 C           3.3136   -1.4287   22.7225 C.3     1  UNL1        0.0277
     33 C           3.3086   -1.2518   21.2329 C.ar    1  UNL1       -0.0220
     34 C           4.1741   -2.1227   20.3713 C.ar    1  UNL1       -0.0020
     35 C           4.1690   -1.9457   18.8818 C.ar    1  UNL1        0.0293
     36 C           3.2985   -0.8980   18.2539 C.ar    1  UNL1        0.1401
     37 F           3.2934   -0.7210   16.7644 F       1  UNL1       -0.2042
     38 C           2.4329   -0.0270   19.1156 C.ar    1  UNL1        0.0293
     39 C           2.4379   -0.2040   20.6051 C.ar    1  UNL1       -0.0020
@<TRIPOS>BOND
     1    19    20    1
     2    20    21   ar
     3    21    22   ar
     4    22    23   ar
     5    23    24   ar
     6    24    13    1
     7    13    14   ar
     8    14    15   ar
     9    15    16   ar
    10    16    17   ar
    11    17     7    1
    12     7     8   am
    13     8     9    2
    14     8    10   am
    15     1    10    1
    16     1     2    1
    17     2     3    1
    18     3     4    1
    19     4     5    1
    20     5     6    1
    21     6    25    1
    22    25    26    1
    23    26    27    1
    24    27    28    1
    25    28    29    1
    26    29    30    1
    27    30    32    1
    28    32    33    1
    29    33    34   ar
    30    34    35   ar
    31    35    36   ar
    32    36    37    1
    33    36    38   ar
    34    38    39   ar
    35    30    31    1
    36    17    18   ar
    37    24    20   ar
    38    18    13   ar
    39     6     1    1
    40    31    26    1
    41    39    33   ar
    42     7    11    1
    43    10    12    1
