@<TRIPOS>MOLECULE
*****
 39 42 0 0 0
SMALL
GASTEIGER

@<TRIPOS>ATOM
      1 C         -11.2837  -15.9029   22.0012 C.3     1  UNL1        0.1116
      2 C          -7.2433  -15.4540   23.9308 C.ar    1  UNL1       -0.0048
      3 C          -7.3751  -15.3723   22.4388 C.ar    1  UNL1       -0.0032
      4 C          -8.7220  -15.5219   21.7956 C.ar    1  UNL1       -0.0041
      5 C          -9.9369  -15.7533   22.6444 C.ar    1  UNL1       -0.0131
      6 C          -9.8050  -15.8349   24.1364 C.ar    1  UNL1       -0.0041
      7 C          -8.4582  -15.6853   24.7796 C.ar    1  UNL1       -0.0032
      8 C          -5.8964  -15.3043   24.5740 C.3     1  UNL1        0.1177
      9 N          -5.0079  -16.5012   24.7410 N.3     1  UNL1       -0.1749
     10 H          -4.4693  -16.3512   25.5941 H       1  UNL1        0.1492
     11 S          -4.0256  -16.8619   23.6664 S.O2    1  UNL1        0.0605
     12 O          -4.1925  -15.5014   23.0572 O.2     1  UNL1       -0.1530
     13 O          -3.8586  -18.2224   24.2756 O.2     1  UNL1       -0.1530
     14 C          -0.0961  -18.3046   19.3678 C.3     1  UNL1        0.0310
     15 C          -1.0785  -17.9439   20.4425 C.ar    1  UNL1       -0.0218
     16 C          -1.2704  -16.5082   20.8320 C.ar    1  UNL1       -0.0029
     17 C          -2.2528  -16.1475   21.9066 C.ar    1  UNL1        0.0196
     18 C          -3.0432  -17.2225   22.5917 C.ar    1  UNL1        0.1219
     19 C          -2.8512  -18.6583   22.2022 C.ar    1  UNL1        0.0196
     20 C          -1.8689  -19.0190   21.1276 C.ar    1  UNL1       -0.0029
     21 C         -11.3960  -16.4820   20.6221 C.2     1  UNL1        0.2303
     22 O         -11.5791  -15.5759   19.4408 O.2     1  UNL1       -0.2745
     23 N         -11.3253  -17.9673   20.4242 N.am    1  UNL1       -0.2740
     24 C         -11.4377  -18.5464   19.0451 C.3     1  UNL1        0.1152
     25 C         -11.1423  -18.8734   21.6055 C.3     1  UNL1        0.1138
     26 C         -12.0211  -18.7204   22.8114 C.ar    1  UNL1       -0.0029
     27 C         -11.4824  -19.0314   24.1763 C.ar    1  UNL1       -0.0026
     28 C         -12.3613  -18.8784   25.3823 C.ar    1  UNL1       -0.0003
     29 C         -13.7788  -18.4143   25.2233 C.ar    1  UNL1       -0.0000
     30 C         -14.3175  -18.1033   23.8583 C.ar    1  UNL1       -0.0003
     31 C         -13.4387  -18.2563   22.6524 C.ar    1  UNL1       -0.0026
     32 C         -10.0804  -19.9325   21.5809 C.3     1  UNL1        0.0968
     33 N          -8.6372  -19.5448   21.4507 N.3     1  UNL1       -0.2689
     34 C          -7.6806  -19.3143   22.5828 C.3     1  UNL1        0.0748
     35 C          -6.3495  -18.9466   21.9973 C.3     1  UNL1        0.0480
     36 C          -6.4834  -18.9498   20.5033 C.3     1  UNL1        0.1278
     37 O          -5.3946  -18.6380   19.5198 O.3     1  UNL1       -0.3830
     38 C          -7.8973  -19.3195   20.1655 C.3     1  UNL1        0.1017
     39 H          -4.5766  -18.4302   19.9981 H       1  UNL1        0.2104
@<TRIPOS>BOND
     1    14    15    1
     2    15    16   ar
     3    16    17   ar
     4    17    18   ar
     5    18    11    1
     6    11    12    2
     7    11    13    2
     8    11     9    1
     9     9     8    1
    10     8     2    1
    11     2     3   ar
    12     3     4   ar
    13     4     5   ar
    14     5     1    1
    15     1    21    1
    16    21    22    2
    17    21    23   am
    18    23    24    1
    19    23    25    1
    20    25    32    1
    21    32    33    1
    22    33    34    1
    23    34    35    1
    24    35    36    1
    25    36    37    1
    26    36    38    1
    27    25    26    1
    28    26    27   ar
    29    27    28   ar
    30    28    29   ar
    31    29    30   ar
    32    30    31   ar
    33     5     6   ar
    34     6     7   ar
    35    18    19   ar
    36    19    20   ar
    37    20    15   ar
    38     7     2   ar
    39    38    33    1
    40    31    26   ar
    41     9    10    1
    42    37    39    1
@<TRIPOS>MOLECULE
*****
 39 42 0 0 0
SMALL
GASTEIGER

@<TRIPOS>ATOM
      1 C           6.2639   -1.6121   25.1602 C.3     1  UNL1        0.1116
      2 C           5.8387   -3.4512   21.0753 C.ar    1  UNL1       -0.0048
      3 C           6.9656   -2.5023   21.3569 C.ar    1  UNL1       -0.0032
      4 C           7.1074   -1.8893   22.7186 C.ar    1  UNL1       -0.0041
      5 C           6.1221   -2.2252   23.7986 C.ar    1  UNL1       -0.0131
      6 C           4.9951   -3.1741   23.5169 C.ar    1  UNL1       -0.0041
      7 C           4.8533   -3.7872   22.1553 C.ar    1  UNL1       -0.0032
      8 C           5.6969   -4.0643   19.7136 C.3     1  UNL1        0.1177
      9 N           5.1858   -3.2399   18.5695 N.3     1  UNL1       -0.1749
     10 H           5.9945   -2.7741   18.1579 H       1  UNL1        0.1492
     11 S           4.1523   -2.1801   18.8115 S.O2    1  UNL1        0.0605
     12 O           3.1384   -3.2402   19.1244 O.2     1  UNL1       -0.1530
     13 O           5.1663   -1.1199   18.4987 O.2     1  UNL1       -0.1530
     14 C           0.0183    2.0594   19.7797 C.3     1  UNL1        0.0310
     15 C           1.0518    0.9995   19.5376 C.ar    1  UNL1       -0.0218
     16 C           2.0234    1.1443   18.4040 C.ar    1  UNL1       -0.0029
     17 C           3.0569    0.0845   18.1620 C.ar    1  UNL1        0.0196
     18 C           3.1188   -1.1202   19.0536 C.ar    1  UNL1        0.1219
     19 C           2.1473   -1.2650   20.1872 C.ar    1  UNL1        0.0196
     20 C           1.1138   -0.2051   20.4292 C.ar    1  UNL1       -0.0029
     21 C           7.6157   -1.5178   25.8032 C.2     1  UNL1        0.2303
     22 O           8.4002   -0.2422   25.7162 O.2     1  UNL1       -0.2745
     23 N           8.1831   -2.6989   26.5333 N.am    1  UNL1       -0.2740
     24 C           9.5350   -2.6045   27.1763 C.3     1  UNL1        0.1152
     25 C           7.3986   -3.9744   26.6203 C.3     1  UNL1        0.1138
     26 C           7.7367   -5.1257   25.7202 C.ar    1  UNL1       -0.0029
     27 C           8.2851   -4.8690   24.3480 C.ar    1  UNL1       -0.0026
     28 C           8.6232   -6.0203   23.4479 C.ar    1  UNL1       -0.0003
     29 C           8.4127   -7.4284   23.9201 C.ar    1  UNL1       -0.0000
     30 C           7.8642   -7.6852   25.2924 C.ar    1  UNL1       -0.0003
     31 C           7.5262   -6.5339   26.1925 C.ar    1  UNL1       -0.0026
     32 C           6.2760   -4.0986   27.6075 C.3     1  UNL1        0.0968
     33 N           6.5757   -4.3355   29.0580 N.3     1  UNL1       -0.2689
     34 C           6.8747   -5.6619   29.6914 C.3     1  UNL1        0.0748
     35 C           7.1127   -5.4338   31.1547 C.3     1  UNL1        0.0480
     36 C           6.9607   -3.9662   31.4258 C.3     1  UNL1        0.1278
     37 O           7.1137   -3.2954   32.7586 O.3     1  UNL1       -0.3830
     38 C           6.6288   -3.2875   30.1300 C.3     1  UNL1        0.1017
     39 H           7.3291   -3.9594   33.4320 H       1  UNL1        0.2104
@<TRIPOS>BOND
     1    14    15    1
     2    15    16   ar
     3    16    17   ar
     4    17    18   ar
     5    18    11    1
     6    11    12    2
     7    11    13    2
     8    11     9    1
     9     9     8    1
    10     8     2    1
    11     2     3   ar
    12     3     4   ar
    13     4     5   ar
    14     5     1    1
    15     1    21    1
    16    21    22    2
    17    21    23   am
    18    23    24    1
    19    23    25    1
    20    25    32    1
    21    32    33    1
    22    33    34    1
    23    34    35    1
    24    35    36    1
    25    36    37    1
    26    36    38    1
    27    25    26    1
    28    26    27   ar
    29    27    28   ar
    30    28    29   ar
    31    29    30   ar
    32    30    31   ar
    33     5     6   ar
    34     6     7   ar
    35    18    19   ar
    36    19    20   ar
    37    20    15   ar
    38     7     2   ar
    39    38    33    1
    40    31    26   ar
    41     9    10    1
    42    37    39    1
@<TRIPOS>MOLECULE
*****
 39 42 0 0 0
SMALL
GASTEIGER

@<TRIPOS>ATOM
      1 C           4.6575   -0.6306   17.3952 C.3     1  UNL1        0.1116
      2 C           1.7285    2.4863   18.7936 C.ar    1  UNL1       -0.0048
      3 C           1.2566    1.0942   18.4946 C.ar    1  UNL1       -0.0032
      4 C           2.2330    0.0553   18.0284 C.ar    1  UNL1       -0.0041
      5 C           3.6812    0.4084   17.8613 C.ar    1  UNL1       -0.0131
      6 C           4.1531    1.8005   18.1604 C.ar    1  UNL1       -0.0041
      7 C           3.1767    2.8394   18.6265 C.ar    1  UNL1       -0.0032
      8 C           0.7521    3.5252   19.2597 C.3     1  UNL1        0.1177
      9 N          -0.7215    3.2947   19.1004 N.3     1  UNL1       -0.1749
     10 H          -1.0581    3.9906   18.4349 H       1  UNL1        0.1492
     11 S          -1.6252    3.3658   20.2955 S.O2    1  UNL1        0.0605
     12 O          -1.0279    2.0949   20.8228 O.2     1  UNL1       -0.1530
     13 O          -2.2226    4.6367   19.7682 O.2     1  UNL1       -0.1530
     14 C          -5.2403    3.6499   25.0757 C.3     1  UNL1        0.0310
     15 C          -4.3365    3.5789   23.8807 C.ar    1  UNL1       -0.0218
     16 C          -4.9114    3.3178   22.5201 C.ar    1  UNL1       -0.0029
     17 C          -4.0076    3.2468   21.3250 C.ar    1  UNL1        0.0196
     18 C          -2.5290    3.4368   21.4906 C.ar    1  UNL1        0.1219
     19 C          -1.9541    3.6979   22.8512 C.ar    1  UNL1        0.0196
     20 C          -2.8579    3.7689   24.0462 C.ar    1  UNL1       -0.0029
     21 C           6.1197   -0.4715   17.6896 C.2     1  UNL1        0.2303
     22 O           7.0154    0.2064   16.6955 O.2     1  UNL1       -0.2745
     23 N           6.6861   -0.9901   18.9780 N.am    1  UNL1       -0.2740
     24 C           8.1483   -0.8310   19.2724 C.3     1  UNL1        0.1152
     25 C           5.7904   -1.6680   19.9721 C.3     1  UNL1        0.1138
     26 C           4.7723   -0.8694   20.7309 C.ar    1  UNL1       -0.0029
     27 C           5.1255    0.4904   21.2563 C.ar    1  UNL1       -0.0026
     28 C           4.1074    1.2889   22.0152 C.ar    1  UNL1       -0.0003
     29 C           2.7361    0.7276   22.2487 C.ar    1  UNL1       -0.0000
     30 C           2.3829   -0.6323   21.7232 C.ar    1  UNL1       -0.0003
     31 C           3.4010   -1.4308   20.9644 C.ar    1  UNL1       -0.0026
     32 C           5.9127   -3.1444   20.2073 C.3     1  UNL1        0.0968
     33 N           6.4329   -3.6544   21.5185 N.3     1  UNL1       -0.2689
     34 C           7.7720   -4.2899   21.7487 C.3     1  UNL1        0.0748
     35 C           7.8721   -4.6467   23.2021 C.3     1  UNL1        0.0480
     36 C           6.5948   -4.2317   23.8704 C.3     1  UNL1        0.1278
     37 O           6.2649   -4.4004   25.3239 O.3     1  UNL1       -0.3830
     38 C           5.7054   -3.6184   22.8298 C.3     1  UNL1        0.1017
     39 H           7.0102   -4.8242   25.7775 H       1  UNL1        0.2104
@<TRIPOS>BOND
     1    14    15    1
     2    15    16   ar
     3    16    17   ar
     4    17    18   ar
     5    18    11    1
     6    11    12    2
     7    11    13    2
     8    11     9    1
     9     9     8    1
    10     8     2    1
    11     2     3   ar
    12     3     4   ar
    13     4     5   ar
    14     5     1    1
    15     1    21    1
    16    21    22    2
    17    21    23   am
    18    23    24    1
    19    23    25    1
    20    25    32    1
    21    32    33    1
    22    33    34    1
    23    34    35    1
    24    35    36    1
    25    36    37    1
    26    36    38    1
    27    25    26    1
    28    26    27   ar
    29    27    28   ar
    30    28    29   ar
    31    29    30   ar
    32    30    31   ar
    33     5     6   ar
    34     6     7   ar
    35    18    19   ar
    36    19    20   ar
    37    20    15   ar
    38     7     2   ar
    39    38    33    1
    40    31    26   ar
    41     9    10    1
    42    37    39    1
@<TRIPOS>MOLECULE
*****
 39 42 0 0 0
SMALL
GASTEIGER

@<TRIPOS>ATOM
      1 C           3.1787   -1.1064   18.6405 C.3     1  UNL1        0.1116
      2 C           0.1236    1.7030   20.3793 C.ar    1  UNL1       -0.0048
      3 C           0.7499    0.6484   21.2427 C.ar    1  UNL1       -0.0032
      4 C           1.7683   -0.2881   20.6631 C.ar    1  UNL1       -0.0041
      5 C           2.1603   -0.1699   19.2201 C.ar    1  UNL1       -0.0131
      6 C           1.5340    0.8847   18.3566 C.ar    1  UNL1       -0.0041
      7 C           0.5156    1.8212   18.9362 C.ar    1  UNL1       -0.0032
      8 C          -0.8948    2.6395   20.9589 C.3     1  UNL1        0.1177
      9 N          -2.1965    2.8650   20.2484 N.3     1  UNL1       -0.1749
     10 H          -2.0269    3.5828   19.5439 H       1  UNL1        0.1492
     11 S          -3.4082    3.2945   21.0213 S.O2    1  UNL1        0.0605
     12 O          -4.1916    3.3808   19.7450 O.2     1  UNL1       -0.1530
     13 O          -2.6247    3.2083   22.2975 O.2     1  UNL1       -0.1530
     14 C          -8.2549    5.0127   24.1127 C.3     1  UNL1        0.0310
     15 C          -7.0433    4.5832   23.3398 C.ar    1  UNL1       -0.0218
     16 C          -5.8756    3.9709   24.0551 C.ar    1  UNL1       -0.0029
     17 C          -4.6639    3.5414   23.2823 C.ar    1  UNL1        0.0196
     18 C          -4.6199    3.7241   21.7941 C.ar    1  UNL1        0.1219
     19 C          -5.7875    4.3363   21.0788 C.ar    1  UNL1        0.0196
     20 C          -6.9992    4.7658   21.8517 C.ar    1  UNL1       -0.0029
     21 C           4.0898   -0.6386   17.5445 C.2     1  UNL1        0.2303
     22 O           3.8649   -1.0989   16.1348 O.2     1  UNL1       -0.2745
     23 N           5.2257    0.2894   17.8584 N.am    1  UNL1       -0.2740
     24 C           6.1367    0.7571   16.7624 C.3     1  UNL1        0.1152
     25 C           5.4506    0.7496   19.2681 C.3     1  UNL1        0.1138
     26 C           4.7170    1.9487   19.7917 C.ar    1  UNL1       -0.0029
     27 C           4.4146    2.0624   21.2564 C.ar    1  UNL1       -0.0026
     28 C           3.6811    3.2615   21.7800 C.ar    1  UNL1       -0.0003
     29 C           3.2499    4.3469   20.8387 C.ar    1  UNL1       -0.0000
     30 C           3.5523    4.2332   19.3739 C.ar    1  UNL1       -0.0003
     31 C           4.2859    3.0342   18.8504 C.ar    1  UNL1       -0.0026
     32 C           6.4091    0.0108   20.1545 C.3     1  UNL1        0.0968
     33 N           6.1576   -1.4278   20.4965 N.3     1  UNL1       -0.2689
     34 C           6.8273   -2.6136   19.8678 C.3     1  UNL1        0.0748
     35 C           6.2759   -3.8519   20.5100 C.3     1  UNL1        0.0480
     36 C           5.2653   -3.4315   21.5358 C.3     1  UNL1        0.1278
     37 O           4.4679   -4.3482   22.4154 O.3     1  UNL1       -0.3830
     38 C           5.1922   -1.9333   21.5274 C.3     1  UNL1        0.1017
     39 H           4.7043   -5.2688   22.2216 H       1  UNL1        0.2104
@<TRIPOS>BOND
     1    14    15    1
     2    15    16   ar
     3    16    17   ar
     4    17    18   ar
     5    18    11    1
     6    11    12    2
     7    11    13    2
     8    11     9    1
     9     9     8    1
    10     8     2    1
    11     2     3   ar
    12     3     4   ar
    13     4     5   ar
    14     5     1    1
    15     1    21    1
    16    21    22    2
    17    21    23   am
    18    23    24    1
    19    23    25    1
    20    25    32    1
    21    32    33    1
    22    33    34    1
    23    34    35    1
    24    35    36    1
    25    36    37    1
    26    36    38    1
    27    25    26    1
    28    26    27   ar
    29    27    28   ar
    30    28    29   ar
    31    29    30   ar
    32    30    31   ar
    33     5     6   ar
    34     6     7   ar
    35    18    19   ar
    36    19    20   ar
    37    20    15   ar
    38     7     2   ar
    39    38    33    1
    40    31    26   ar
    41     9    10    1
    42    37    39    1
@<TRIPOS>MOLECULE
*****
 39 42 0 0 0
SMALL
GASTEIGER

@<TRIPOS>ATOM
      1 C           4.1609   -3.3443   19.6656 C.3     1  UNL1        0.1116
      2 C           7.0205   -4.1632   23.0423 C.ar    1  UNL1       -0.0048
      3 C           7.5189   -4.1338   21.6278 C.ar    1  UNL1       -0.0032
      4 C           6.5657   -3.8608   20.5023 C.ar    1  UNL1       -0.0041
      5 C           5.1141   -3.6173   20.7911 C.ar    1  UNL1       -0.0131
      6 C           4.6156   -3.6467   22.2056 C.ar    1  UNL1       -0.0041
      7 C           5.5688   -3.9197   23.3312 C.ar    1  UNL1       -0.0032
      8 C           7.9737   -4.4362   24.1678 C.3     1  UNL1        0.1177
      9 N           7.6487   -5.4869   25.1878 N.3     1  UNL1       -0.1749
     10 H           6.8083   -5.9640   24.8615 H       1  UNL1        0.1492
     11 S           7.3983   -5.0956   26.6140 S.O2    1  UNL1        0.0605
     12 O           8.1945   -3.8410   26.4097 O.2     1  UNL1       -0.1530
     13 O           6.6020   -6.3503   26.8184 O.2     1  UNL1       -0.1530
     14 C           6.3966   -3.5306   32.3191 C.3     1  UNL1        0.0310
     15 C           6.6470   -3.9219   30.8928 C.ar    1  UNL1       -0.0218
     16 C           6.6141   -2.8814   29.8129 C.ar    1  UNL1       -0.0029
     17 C           6.8646   -3.2727   28.3866 C.ar    1  UNL1        0.0196
     18 C           7.1479   -4.7044   28.0403 C.ar    1  UNL1        0.1219
     19 C           7.1807   -5.7448   29.1203 C.ar    1  UNL1        0.0196
     20 C           6.9303   -5.3536   30.5465 C.ar    1  UNL1       -0.0029
     21 C           4.4666   -2.2660   18.6687 C.2     1  UNL1        0.2303
     22 O           5.3803   -2.5498   17.5135 O.2     1  UNL1       -0.2745
     23 N           3.8586   -0.9040   18.8271 N.am    1  UNL1       -0.2740
     24 C           4.1642    0.1743   17.8302 C.3     1  UNL1        0.1152
     25 C           2.9449   -0.6202   19.9823 C.3     1  UNL1        0.1138
     26 C           3.5131   -0.4151   21.3552 C.ar    1  UNL1       -0.0029
     27 C           2.6506   -0.6288   22.5636 C.ar    1  UNL1       -0.0026
     28 C           3.2188   -0.4238   23.9365 C.ar    1  UNL1       -0.0003
     29 C           4.6497   -0.0049   24.1011 C.ar    1  UNL1       -0.0000
     30 C           5.5124    0.2089   22.8927 C.ar    1  UNL1       -0.0003
     31 C           4.9441    0.0038   21.5198 C.ar    1  UNL1       -0.0026
     32 C           1.4628   -0.5415   19.7646 C.3     1  UNL1        0.0968
     33 N           0.7988    0.7934   19.5994 N.3     1  UNL1       -0.2689
     34 C           0.8484    1.6571   18.3740 C.3     1  UNL1        0.0748
     35 C           0.0490    2.8964   18.6478 C.3     1  UNL1        0.0480
     36 C          -0.4947    2.7986   20.0424 C.3     1  UNL1        0.1278
     37 O          -1.3514    3.8211   20.7285 O.3     1  UNL1       -0.3830
     38 C          -0.0313    1.4989   20.6305 C.3     1  UNL1        0.1017
     39 H          -1.5059    4.5681   20.1293 H       1  UNL1        0.2104
@<TRIPOS>BOND
     1    14    15    1
     2    15    16   ar
     3    16    17   ar
     4    17    18   ar
     5    18    11    1
     6    11    12    2
     7    11    13    2
     8    11     9    1
     9     9     8    1
    10     8     2    1
    11     2     3   ar
    12     3     4   ar
    13     4     5   ar
    14     5     1    1
    15     1    21    1
    16    21    22    2
    17    21    23   am
    18    23    24    1
    19    23    25    1
    20    25    32    1
    21    32    33    1
    22    33    34    1
    23    34    35    1
    24    35    36    1
    25    36    37    1
    26    36    38    1
    27    25    26    1
    28    26    27   ar
    29    27    28   ar
    30    28    29   ar
    31    29    30   ar
    32    30    31   ar
    33     5     6   ar
    34     6     7   ar
    35    18    19   ar
    36    19    20   ar
    37    20    15   ar
    38     7     2   ar
    39    38    33    1
    40    31    26   ar
    41     9    10    1
    42    37    39    1
@<TRIPOS>MOLECULE
*****
 39 42 0 0 0
SMALL
GASTEIGER

@<TRIPOS>ATOM
      1 C           3.3384   -1.2999   18.6012 C.3     1  UNL1        0.1116
      2 C           0.4055    1.7369   20.1589 C.ar    1  UNL1       -0.0048
      3 C           1.4942    2.1597   19.2176 C.ar    1  UNL1       -0.0032
      4 C           2.4718    1.1474   18.6984 C.ar    1  UNL1       -0.0041
      5 C           2.3608   -0.2876   19.1204 C.ar    1  UNL1       -0.0131
      6 C           1.2721   -0.7105   20.0618 C.ar    1  UNL1       -0.0041
      7 C           0.2945    0.3017   20.5810 C.ar    1  UNL1       -0.0032
      8 C          -0.5721    2.7491   20.6781 C.3     1  UNL1        0.1177
      9 N          -1.8624    2.9872   19.9512 N.3     1  UNL1       -0.1749
     10 H          -1.6983    3.7596   19.3055 H       1  UNL1        0.1492
     11 S          -3.1057    3.3225   20.7204 S.O2    1  UNL1        0.0605
     12 O          -2.3687    3.1017   22.0081 O.2     1  UNL1       -0.1530
     13 O          -3.8428    3.5433   19.4328 O.2     1  UNL1       -0.1530
     14 C          -8.0792    4.6635   23.7971 C.3     1  UNL1        0.0310
     15 C          -6.8358    4.3283   23.0279 C.ar    1  UNL1       -0.0218
     16 C          -5.6351    3.7841   23.7435 C.ar    1  UNL1       -0.0029
     17 C          -4.3917    3.4489   22.9743 C.ar    1  UNL1        0.0196
     18 C          -4.3491    3.6577   21.4896 C.ar    1  UNL1        0.1219
     19 C          -5.5498    4.2019   20.7740 C.ar    1  UNL1        0.0196
     20 C          -6.7932    4.5371   21.5432 C.ar    1  UNL1       -0.0029
     21 C           3.7029   -2.4892   19.4394 C.2     1  UNL1        0.2303
     22 O           3.2300   -3.8572   19.0461 O.2     1  UNL1       -0.2745
     23 N           4.5404   -2.3105   20.6710 N.am    1  UNL1       -0.2740
     24 C           4.9049   -3.4998   21.5092 C.3     1  UNL1        0.1152
     25 C           5.0133   -0.9424   21.0643 C.3     1  UNL1        0.1138
     26 C           4.1744   -0.0905   21.9701 C.ar    1  UNL1       -0.0029
     27 C           3.2732   -0.7335   22.9822 C.ar    1  UNL1       -0.0026
     28 C           2.4343    0.1185   23.8880 C.ar    1  UNL1       -0.0003
     29 C           2.4966    1.6134   23.7816 C.ar    1  UNL1       -0.0000
     30 C           3.3978    2.2564   22.7694 C.ar    1  UNL1       -0.0003
     31 C           4.2367    1.4045   21.8637 C.ar    1  UNL1       -0.0026
     32 C           6.3252   -0.4263   20.5519 C.3     1  UNL1        0.0968
     33 N           6.4043    0.2029   19.1926 N.3     1  UNL1       -0.2689
     34 C           6.8065   -0.4880   17.9233 C.3     1  UNL1        0.0748
     35 C           6.7458    0.5155   16.8101 C.3     1  UNL1        0.0480
     36 C           6.3061    1.8267   17.3913 C.3     1  UNL1        0.1278
     37 O           6.1117    3.1063   16.6332 O.3     1  UNL1       -0.3830
     38 C           6.0951    1.6334   18.8638 C.3     1  UNL1        0.1017
     39 H           6.3150    2.9609   15.6960 H       1  UNL1        0.2104
@<TRIPOS>BOND
     1    14    15    1
     2    15    16   ar
     3    16    17   ar
     4    17    18   ar
     5    18    11    1
     6    11    12    2
     7    11    13    2
     8    11     9    1
     9     9     8    1
    10     8     2    1
    11     2     3   ar
    12     3     4   ar
    13     4     5   ar
    14     5     1    1
    15     1    21    1
    16    21    22    2
    17    21    23   am
    18    23    24    1
    19    23    25    1
    20    25    32    1
    21    32    33    1
    22    33    34    1
    23    34    35    1
    24    35    36    1
    25    36    37    1
    26    36    38    1
    27    25    26    1
    28    26    27   ar
    29    27    28   ar
    30    28    29   ar
    31    29    30   ar
    32    30    31   ar
    33     5     6   ar
    34     6     7   ar
    35    18    19   ar
    36    19    20   ar
    37    20    15   ar
    38     7     2   ar
    39    38    33    1
    40    31    26   ar
    41     9    10    1
    42    37    39    1
@<TRIPOS>MOLECULE
*****
 39 42 0 0 0
SMALL
GASTEIGER

@<TRIPOS>ATOM
      1 C           4.4118    0.7109   17.8582 C.3     1  UNL1        0.1116
      2 C           0.8075    2.3835   19.9703 C.ar    1  UNL1       -0.0048
      3 C           2.1487    3.0310   20.1486 C.ar    1  UNL1       -0.0032
      4 C           3.3502    2.4734   19.4445 C.ar    1  UNL1       -0.0041
      5 C           3.2104    1.2685   18.5622 C.ar    1  UNL1       -0.0131
      6 C           1.8691    0.6210   18.3839 C.ar    1  UNL1       -0.0041
      7 C           0.6676    1.1785   19.0880 C.ar    1  UNL1       -0.0032
      8 C          -0.3940    2.9411   20.6743 C.3     1  UNL1        0.1177
      9 N          -1.6900    3.0987   19.9358 N.3     1  UNL1       -0.1749
     10 H          -1.5618    3.8665   19.2766 H       1  UNL1        0.1492
     11 S          -2.9541    3.3833   20.6915 S.O2    1  UNL1        0.0605
     12 O          -3.6695    3.6395   19.3982 O.2     1  UNL1       -0.1530
     13 O          -2.2386    3.1272   21.9847 O.2     1  UNL1       -0.1530
     14 C          -8.0104    4.5218   23.7142 C.3     1  UNL1        0.0310
     15 C          -6.7463    4.2372   22.9585 C.ar    1  UNL1       -0.0218
     16 C          -6.6878    4.4741   21.4785 C.ar    1  UNL1       -0.0029
     17 C          -5.4237    4.1894   20.7228 C.ar    1  UNL1        0.0196
     18 C          -4.2182    3.6680   21.4471 C.ar    1  UNL1        0.1219
     19 C          -4.2767    3.4311   22.9271 C.ar    1  UNL1        0.0196
     20 C          -5.5408    3.7157   23.6828 C.ar    1  UNL1       -0.0029
     21 C           4.4748   -0.7502   17.5248 C.2     1  UNL1        0.2303
     22 O           3.8944   -1.2509   16.2355 O.2     1  UNL1       -0.2745
     23 N           5.1182   -1.7105   18.4808 N.am    1  UNL1       -0.2740
     24 C           5.1812   -3.1716   18.1474 C.3     1  UNL1        0.1152
     25 C           5.6986   -1.2097   19.7701 C.3     1  UNL1        0.1138
     26 C           4.7940   -0.6925   20.8490 C.ar    1  UNL1       -0.0029
     27 C           5.2400    0.4434   21.7211 C.ar    1  UNL1       -0.0026
     28 C           4.3353    0.9606   22.8000 C.ar    1  UNL1       -0.0003
     29 C           2.9846    0.3419   23.0069 C.ar    1  UNL1       -0.0000
     30 C           2.5386   -0.7941   22.1347 C.ar    1  UNL1       -0.0003
     31 C           3.4432   -1.3114   21.0558 C.ar    1  UNL1       -0.0026
     32 C           7.1837   -1.2262   19.9805 C.3     1  UNL1        0.0968
     33 N           7.8604   -2.4785   20.4534 N.3     1  UNL1       -0.2689
     34 C           9.2840   -2.8670   20.1842 C.3     1  UNL1        0.0748
     35 C           9.5357   -4.1908   20.8430 C.3     1  UNL1        0.0480
     36 C           8.2677   -4.6206   21.5195 C.3     1  UNL1        0.1278
     37 O           8.0698   -5.8863   22.2996 O.3     1  UNL1       -0.3830
     38 C           7.2323   -3.5623   21.2786 C.3     1  UNL1        0.1017
     39 H           8.8951   -6.3960   22.3037 H       1  UNL1        0.2104
@<TRIPOS>BOND
     1    14    15    1
     2    15    16   ar
     3    16    17   ar
     4    17    18   ar
     5    18    11    1
     6    11    12    2
     7    11    13    2
     8    11     9    1
     9     9     8    1
    10     8     2    1
    11     2     3   ar
    12     3     4   ar
    13     4     5   ar
    14     5     1    1
    15     1    21    1
    16    21    22    2
    17    21    23   am
    18    23    24    1
    19    23    25    1
    20    25    32    1
    21    32    33    1
    22    33    34    1
    23    34    35    1
    24    35    36    1
    25    36    37    1
    26    36    38    1
    27    25    26    1
    28    26    27   ar
    29    27    28   ar
    30    28    29   ar
    31    29    30   ar
    32    30    31   ar
    33     5     6   ar
    34     6     7   ar
    35    18    19   ar
    36    19    20   ar
    37    20    15   ar
    38     7     2   ar
    39    38    33    1
    40    31    26   ar
    41     9    10    1
    42    37    39    1
@<TRIPOS>MOLECULE
*****
 39 42 0 0 0
SMALL
GASTEIGER

@<TRIPOS>ATOM
      1 C           3.5188    0.0080   18.4615 C.3     1  UNL1        0.1116
      2 C           0.0824    2.1149   20.4619 C.ar    1  UNL1       -0.0048
      3 C           1.1707    2.9114   19.8055 C.ar    1  UNL1       -0.0032
      4 C           2.3162    2.2091   19.1387 C.ar    1  UNL1       -0.0041
      5 C           2.3734    0.7103   19.1283 C.ar    1  UNL1       -0.0131
      6 C           1.2850   -0.0863   19.7848 C.ar    1  UNL1       -0.0041
      7 C           0.1395    0.6159   20.4516 C.ar    1  UNL1       -0.0032
      8 C          -1.0631    2.8172   21.1288 C.3     1  UNL1        0.1177
      9 N          -2.4038    2.8691   20.4581 N.3     1  UNL1       -0.1749
     10 H          -2.3031    3.4771   19.6453 H       1  UNL1        0.1492
     11 S          -3.6034    3.3550   21.2163 S.O2    1  UNL1        0.0605
     12 O          -2.7719    3.4676   22.4597 O.2     1  UNL1       -0.1530
     13 O          -4.4348    3.2425   19.9729 O.2     1  UNL1       -0.1530
     14 C          -8.4017    5.2987   24.2491 C.3     1  UNL1        0.0310
     15 C          -7.2021    4.8128   23.4909 C.ar    1  UNL1       -0.0218
     16 C          -6.0737    4.1458   24.2200 C.ar    1  UNL1       -0.0029
     17 C          -4.8741    3.6599   23.4618 C.ar    1  UNL1        0.0196
     18 C          -4.8029    3.8409   21.9745 C.ar    1  UNL1        0.1219
     19 C          -5.9314    4.5080   21.2454 C.ar    1  UNL1        0.0196
     20 C          -7.1310    4.9939   22.0036 C.ar    1  UNL1       -0.0029
     21 C           4.8733    0.6513   18.4236 C.2     1  UNL1        0.2303
     22 O           5.2906    1.4510   17.2252 O.2     1  UNL1       -0.2745
     23 N           5.8106    0.4949   19.5843 N.am    1  UNL1       -0.2740
     24 C           7.1651    1.1382   19.5465 C.3     1  UNL1        0.1152
     25 C           5.3934   -0.3048   20.7827 C.3     1  UNL1        0.1138
     26 C           4.4192    0.2717   21.7669 C.ar    1  UNL1       -0.0029
     27 C           4.3720    1.7534   21.9954 C.ar    1  UNL1       -0.0026
     28 C           3.3978    2.3298   22.9796 C.ar    1  UNL1       -0.0003
     29 C           2.4708    1.4246   23.7354 C.ar    1  UNL1       -0.0000
     30 C           2.5180   -0.0572   23.5069 C.ar    1  UNL1       -0.0003
     31 C           3.4922   -0.6337   22.5227 C.ar    1  UNL1       -0.0026
     32 C           5.9503   -1.6810   20.9970 C.3     1  UNL1        0.0968
     33 N           5.2943   -2.8647   20.3502 N.3     1  UNL1       -0.2689
     34 C           5.3417   -3.2111   18.8915 C.3     1  UNL1        0.0748
     35 C           4.5524   -4.4703   18.6882 C.3     1  UNL1        0.0480
     36 C           4.0171   -4.9022   20.0212 C.3     1  UNL1        0.1278
     37 O           3.1718   -6.1137   20.2814 O.3     1  UNL1       -0.3830
     38 C           4.4757   -3.9099   21.0484 C.3     1  UNL1        0.1017
     39 H           3.0185   -6.5860   19.4482 H       1  UNL1        0.2104
@<TRIPOS>BOND
     1    14    15    1
     2    15    16   ar
     3    16    17   ar
     4    17    18   ar
     5    18    11    1
     6    11    12    2
     7    11    13    2
     8    11     9    1
     9     9     8    1
    10     8     2    1
    11     2     3   ar
    12     3     4   ar
    13     4     5   ar
    14     5     1    1
    15     1    21    1
    16    21    22    2
    17    21    23   am
    18    23    24    1
    19    23    25    1
    20    25    32    1
    21    32    33    1
    22    33    34    1
    23    34    35    1
    24    35    36    1
    25    36    37    1
    26    36    38    1
    27    25    26    1
    28    26    27   ar
    29    27    28   ar
    30    28    29   ar
    31    29    30   ar
    32    30    31   ar
    33     5     6   ar
    34     6     7   ar
    35    18    19   ar
    36    19    20   ar
    37    20    15   ar
    38     7     2   ar
    39    38    33    1
    40    31    26   ar
    41     9    10    1
    42    37    39    1
@<TRIPOS>MOLECULE
*****
 39 42 0 0 0
SMALL
GASTEIGER

@<TRIPOS>ATOM
      1 C           4.5118   -0.8536   17.5410 C.3     1  UNL1        0.1116
      2 C           1.9739    2.6389   18.8105 C.ar    1  UNL1       -0.0048
      3 C           1.3506    1.2874   18.6241 C.ar    1  UNL1       -0.0032
      4 C           2.1966    0.1232   18.2010 C.ar    1  UNL1       -0.0041
      5 C           3.6658    0.3106   17.9642 C.ar    1  UNL1       -0.0131
      6 C           4.2892    1.6622   18.1505 C.ar    1  UNL1       -0.0041
      7 C           3.4433    2.8264   18.5737 C.ar    1  UNL1       -0.0032
      8 C           1.1280    3.8031   19.2336 C.3     1  UNL1        0.1177
      9 N           0.1132    3.6352   20.3254 N.3     1  UNL1       -0.1749
     10 H           0.3039    2.7368   20.7690 H       1  UNL1        0.1492
     11 S          -1.3506    3.6545   19.9982 S.O2    1  UNL1        0.0605
     12 O          -1.6205    2.7342   21.1515 O.2     1  UNL1       -0.1530
     13 O          -1.0807    4.5748   18.8449 O.2     1  UNL1       -0.1530
     14 C          -7.2056    3.7317   18.6896 C.3     1  UNL1        0.0310
     15 C          -5.7419    3.7124   19.0167 C.ar    1  UNL1       -0.0218
     16 C          -5.2862    3.3317   20.3941 C.ar    1  UNL1       -0.0029
     17 C          -3.8224    3.3124   20.7213 C.ar    1  UNL1        0.0196
     18 C          -2.8144    3.6738   19.6710 C.ar    1  UNL1        0.1219
     19 C          -3.2700    4.0546   18.2936 C.ar    1  UNL1        0.0196
     20 C          -4.7338    4.0739   17.9665 C.ar    1  UNL1       -0.0029
     21 C           5.9972   -0.8151   17.7460 C.2     1  UNL1        0.2303
     22 O           6.8902   -0.2862   16.6630 O.2     1  UNL1       -0.2745
     23 N           6.5896   -1.3054   19.0338 N.am    1  UNL1       -0.2740
     24 C           8.0750   -1.2669   19.2388 C.3     1  UNL1        0.1152
     25 C           5.6966   -1.8343   20.1168 C.3     1  UNL1        0.1138
     26 C           4.8191   -0.8954   20.8906 C.ar    1  UNL1       -0.0029
     27 C           3.4160   -1.2954   21.2386 C.ar    1  UNL1       -0.0026
     28 C           2.5386   -0.3565   22.0124 C.ar    1  UNL1       -0.0003
     29 C           3.0643    0.9822   22.4381 C.ar    1  UNL1       -0.0000
     30 C           4.4675    1.3822   22.0901 C.ar    1  UNL1       -0.0003
     31 C           5.3450    0.4434   21.3163 C.ar    1  UNL1       -0.0026
     32 C           5.6809   -3.3020   20.4259 C.3     1  UNL1        0.0968
     33 N           6.2845   -3.8059   21.7033 N.3     1  UNL1       -0.2689
     34 C           7.6479   -4.4125   21.8551 C.3     1  UNL1        0.0748
     35 C           7.8368   -4.7731   23.2988 C.3     1  UNL1        0.0480
     36 C           6.5901   -4.3893   24.0393 C.3     1  UNL1        0.1278
     37 O           6.3456   -4.5713   25.5080 O.3     1  UNL1       -0.3830
     38 C           5.6307   -3.7915   23.0533 C.3     1  UNL1        0.1017
     39 H           7.1242   -4.9804   25.9171 H       1  UNL1        0.2104
@<TRIPOS>BOND
     1    14    15    1
     2    15    16   ar
     3    16    17   ar
     4    17    18   ar
     5    18    11    1
     6    11    12    2
     7    11    13    2
     8    11     9    1
     9     9     8    1
    10     8     2    1
    11     2     3   ar
    12     3     4   ar
    13     4     5   ar
    14     5     1    1
    15     1    21    1
    16    21    22    2
    17    21    23   am
    18    23    24    1
    19    23    25    1
    20    25    32    1
    21    32    33    1
    22    33    34    1
    23    34    35    1
    24    35    36    1
    25    36    37    1
    26    36    38    1
    27    25    26    1
    28    26    27   ar
    29    27    28   ar
    30    28    29   ar
    31    29    30   ar
    32    30    31   ar
    33     5     6   ar
    34     6     7   ar
    35    18    19   ar
    36    19    20   ar
    37    20    15   ar
    38     7     2   ar
    39    38    33    1
    40    31    26   ar
    41     9    10    1
    42    37    39    1
