@<TRIPOS>MOLECULE
*****
 40 44 0 0 0
SMALL
GASTEIGER

@<TRIPOS>ATOM
      1 C           1.8749    1.6948   31.6501 C.ar    1  UNL1       -0.0025
      2 C           1.3340    2.4981   30.5046 C.ar    1  UNL1       -0.0014
      3 C           1.5732    2.0481   29.0939 C.ar    1  UNL1        0.0142
      4 C           2.3534    0.7948   28.8285 C.ar    1  UNL1        0.0478
      5 C           2.8943   -0.0085   29.9739 C.ar    1  UNL1        0.0142
      6 C           2.6550    0.4414   31.3847 C.ar    1  UNL1       -0.0014
      7 N           2.5926    0.3448   27.4177 N.pl3   1  UNL1       -0.3075
      8 C           1.8907    1.0298   26.2828 C.3     1  UNL1        0.0911
      9 C           2.1299    0.5798   24.8720 C.3     1  UNL1        0.0258
     10 C           3.0711   -0.5552   24.5962 C.3     1  UNL1        0.0257
     11 C           3.7730   -1.2402   25.7311 C.3     1  UNL1        0.0258
     12 C           3.5338   -0.7902   27.1419 C.3     1  UNL1        0.0911
     13 C           3.3103   -1.0052   23.1854 C.ar    1  UNL1       -0.0222
     14 C           4.2859   -2.1097   22.9057 C.ar    1  UNL1       -0.0012
     15 C           4.5251   -2.5597   21.4949 C.ar    1  UNL1        0.0369
     16 C           3.7887   -1.9051   20.3638 C.ar    1  UNL1        0.1468
     17 C           2.8131   -0.8006   20.6436 C.ar    1  UNL1        0.0369
     18 C           2.5739   -0.3507   22.0543 C.ar    1  UNL1       -0.0012
     19 O           4.0279   -2.3551   18.9531 O.3     1  UNL1       -0.4045
     20 C           4.2997   -3.8015   18.6631 C.3     1  UNL1        0.5753
     21 F           4.5715   -5.2479   18.3731 F       1  UNL1       -0.1328
     22 F           2.9177   -4.1542   19.1272 F       1  UNL1       -0.1328
     23 F           5.6818   -3.4487   18.1989 F       1  UNL1       -0.1328
     24 C           1.6356    2.1448   33.0608 C.3     1  UNL1        0.1166
     25 C           2.6045    2.5210   35.4419 C.2     1  UNL1        0.2635
     26 O           1.6294    3.6395   35.6619 O.2     1  UNL1       -0.2685
     27 N           2.6075    1.7737   34.1414 N.am    1  UNL1       -0.2957
     28 H           3.2475    1.0397   33.9971 H       1  UNL1        0.1501
     29 C           3.2234    1.6579   37.8949 C.ar    1  UNL1        0.0811
     30 N           4.5008    1.4097   38.6410 N.ar    1  UNL1       -0.2306
     31 C           5.6432    1.7483   37.7298 C.ar    1  UNL1        0.1483
     32 C           7.1298    1.6992   37.9231 C.ar    1  UNL1        0.0488
     33 C           8.0451    2.1076   36.8072 C.ar    1  UNL1        0.0622
     34 CL          9.5319    2.0585   37.0005 Cl      1  UNL1       -0.0821
     35 C           7.4738    2.5651   35.4979 C.ar    1  UNL1        0.0305
     36 C           5.9872    2.6143   35.3045 C.ar    1  UNL1        0.0824
     37 N           5.0719    2.2059   36.4205 N.ar    1  UNL1       -0.2853
     38 C           3.5764    2.1500   36.5226 C.ar    1  UNL1        0.1326
     39 C           1.5560    0.3151   39.3668 C.3     1  UNL1        0.0067
     40 C           1.8366    1.4505   38.4276 C.3     1  UNL1        0.0475
@<TRIPOS>BOND
     1    39    40    1
     2    40    29    1
     3    29    30   ar
     4    30    31   ar
     5    31    32   ar
     6    32    33   ar
     7    33    34    1
     8    33    35   ar
     9    35    36   ar
    10    36    37   ar
    11    37    38   ar
    12    38    25    1
    13    25    26    2
    14    25    27   am
    15    27    24    1
    16    24     1    1
    17     1     2   ar
    18     2     3   ar
    19     3     4   ar
    20     4     7    1
    21     7     8    1
    22     8     9    1
    23     9    10    1
    24    10    13    1
    25    13    14   ar
    26    14    15   ar
    27    15    16   ar
    28    16    19    1
    29    19    20    1
    30    20    21    1
    31    20    22    1
    32    20    23    1
    33    16    17   ar
    34    17    18   ar
    35    10    11    1
    36    11    12    1
    37     4     5   ar
    38     5     6   ar
    39    38    29   ar
    40     6     1   ar
    41    37    31   ar
    42    12     7    1
    43    18    13   ar
    44    27    28    1
@<TRIPOS>MOLECULE
*****
 40 44 0 0 0
SMALL
GASTEIGER

@<TRIPOS>ATOM
      1 C           1.2998    2.1992   31.1612 C.ar    1  UNL1       -0.0025
      2 C           0.8604    2.9711   29.9525 C.ar    1  UNL1       -0.0014
      3 C           1.1577    2.4469   28.5789 C.ar    1  UNL1        0.0142
      4 C           1.8944    1.1508   28.4140 C.ar    1  UNL1        0.0478
      5 C           2.3338    0.3789   29.6227 C.ar    1  UNL1        0.0142
      6 C           2.0365    0.9030   30.9963 C.ar    1  UNL1       -0.0014
      7 N           2.1917    0.6266   27.0404 N.pl3   1  UNL1       -0.3075
      8 C           1.4266    1.1438   25.8584 C.3     1  UNL1        0.0911
      9 C           1.7239    0.6196   24.4848 C.3     1  UNL1        0.0258
     10 C           2.7864   -0.4218   24.2931 C.3     1  UNL1        0.0257
     11 C           3.5515   -0.9390   25.4751 C.3     1  UNL1        0.0258
     12 C           3.2542   -0.4148   26.8487 C.3     1  UNL1        0.0911
     13 C           3.0837   -0.9459   22.9195 C.ar    1  UNL1       -0.0222
     14 C           4.0929   -2.0404   22.7366 C.ar    1  UNL1       -0.0012
     15 C           4.3902   -2.5646   21.3629 C.ar    1  UNL1        0.0369
     16 C           3.6783   -1.9943   20.1722 C.ar    1  UNL1        0.1468
     17 C           2.6690   -0.8998   20.3552 C.ar    1  UNL1        0.0369
     18 C           2.3717   -0.3757   21.7288 C.ar    1  UNL1       -0.0012
     19 O           3.9756   -2.5185   18.7986 O.3     1  UNL1       -0.4045
     20 C           4.3183   -3.9660   18.6062 C.3     1  UNL1        0.5753
     21 F           4.6610   -5.4136   18.4138 F       1  UNL1       -0.1328
     22 F           2.9168   -4.3476   18.9807 F       1  UNL1       -0.1328
     23 F           5.7197   -3.5845   18.2317 F       1  UNL1       -0.1328
     24 C           1.0025    2.7234   32.5349 C.3     1  UNL1        0.1166
     25 C           3.0617    2.5683   34.1114 C.2     1  UNL1        0.2635
     26 O           3.7635    3.6148   33.2976 O.2     1  UNL1       -0.2685
     27 N           1.6812    2.1226   33.7300 N.am    1  UNL1       -0.2957
     28 H           1.2205    1.4358   34.2642 H       1  UNL1        0.1501
     29 C           4.3031    0.5799   35.3961 C.ar    1  UNL1        0.0811
     30 N           4.8860    0.4038   36.7670 N.ar    1  UNL1       -0.2306
     31 C           4.6836    1.6824   37.5246 C.ar    1  UNL1        0.1483
     32 C           5.0526    2.0916   38.9197 C.ar    1  UNL1        0.0488
     33 C           4.7135    3.4672   39.4123 C.ar    1  UNL1        0.0622
     34 CL          5.0825    3.8764   40.8075 Cl      1  UNL1       -0.0821
     35 C           4.0054    4.4337   38.5097 C.ar    1  UNL1        0.0305
     36 C           3.6365    4.0245   37.1146 C.ar    1  UNL1        0.0824
     37 N           3.9756    2.6489   36.6220 N.ar    1  UNL1       -0.2853
     38 C           3.7404    1.9675   35.3066 C.ar    1  UNL1        0.1326
     39 C           5.1701   -0.2873   33.1057 C.3     1  UNL1        0.0067
     40 C           4.2858   -0.4505   34.3063 C.3     1  UNL1        0.0475
@<TRIPOS>BOND
     1    39    40    1
     2    40    29    1
     3    29    30   ar
     4    30    31   ar
     5    31    32   ar
     6    32    33   ar
     7    33    34    1
     8    33    35   ar
     9    35    36   ar
    10    36    37   ar
    11    37    38   ar
    12    38    25    1
    13    25    26    2
    14    25    27   am
    15    27    24    1
    16    24     1    1
    17     1     2   ar
    18     2     3   ar
    19     3     4   ar
    20     4     7    1
    21     7     8    1
    22     8     9    1
    23     9    10    1
    24    10    13    1
    25    13    14   ar
    26    14    15   ar
    27    15    16   ar
    28    16    19    1
    29    19    20    1
    30    20    21    1
    31    20    22    1
    32    20    23    1
    33    16    17   ar
    34    17    18   ar
    35    10    11    1
    36    11    12    1
    37     4     5   ar
    38     5     6   ar
    39    38    29   ar
    40     6     1   ar
    41    37    31   ar
    42    12     7    1
    43    18    13   ar
    44    27    28    1
@<TRIPOS>MOLECULE
*****
 40 44 0 0 0
SMALL
GASTEIGER

@<TRIPOS>ATOM
      1 C           1.5908    2.0738   31.3263 C.ar    1  UNL1       -0.0025
      2 C           0.9876    2.7797   30.1483 C.ar    1  UNL1       -0.0014
      3 C           1.2437    2.2746   28.7594 C.ar    1  UNL1        0.0142
      4 C           2.1032    1.0634   28.5484 C.ar    1  UNL1        0.0478
      5 C           2.7064    0.3575   29.7264 C.ar    1  UNL1        0.0142
      6 C           2.4502    0.8626   31.1153 C.ar    1  UNL1       -0.0014
      7 N           2.3593    0.5582   27.1594 N.pl3   1  UNL1       -0.3075
      8 C           1.5732    1.1060   26.0053 C.3     1  UNL1        0.0911
      9 C           1.8294    0.6008   24.6164 C.3     1  UNL1        0.0258
     10 C           2.8716   -0.4521   24.3815 C.3     1  UNL1        0.0257
     11 C           3.6577   -0.9998   25.5357 C.3     1  UNL1        0.0258
     12 C           3.4016   -0.4947   26.9246 C.3     1  UNL1        0.0911
     13 C           3.1277   -0.9573   22.9926 C.ar    1  UNL1       -0.0222
     14 C           2.4819   -0.2834   21.8184 C.ar    1  UNL1       -0.0012
     15 C           2.7380   -0.7886   20.4295 C.ar    1  UNL1        0.0369
     16 C           3.6401   -1.9677   20.2147 C.ar    1  UNL1        0.1468
     17 C           4.2859   -2.6415   21.3889 C.ar    1  UNL1        0.0369
     18 C           4.0298   -2.1363   22.7778 C.ar    1  UNL1       -0.0012
     19 O           3.8962   -2.4728   18.8257 O.3     1  UNL1       -0.4045
     20 C           4.3291   -3.8930   18.6121 C.3     1  UNL1        0.5753
     21 F           4.7620   -5.3132   18.3986 F       1  UNL1       -0.1328
     22 F           2.9146   -4.3532   18.8050 F       1  UNL1       -0.1328
     23 F           5.7437   -3.4328   18.4193 F       1  UNL1       -0.1328
     24 C           1.3347    2.5790   32.7153 C.3     1  UNL1        0.1166
     25 C           3.4422    2.5543   34.2343 C.2     1  UNL1        0.2635
     26 O           4.0312    3.6790   33.4353 O.2     1  UNL1       -0.2685
     27 N           2.0940    2.0044   33.8743 N.am    1  UNL1       -0.2957
     28 H           1.7074    1.2662   34.3986 H       1  UNL1        0.1501
     29 C           3.7670    1.9995   36.8289 C.ar    1  UNL1        0.0811
     30 N           4.8257    1.3164   37.6430 N.ar    1  UNL1       -0.2306
     31 C           5.9144    0.8745   36.7106 C.ar    1  UNL1        0.1483
     32 C           7.2072    0.1518   36.9480 C.ar    1  UNL1        0.0488
     33 C           8.1142   -0.1609   35.7950 C.ar    1  UNL1        0.0622
     34 CL          9.4071   -0.8837   36.0323 Cl      1  UNL1       -0.0821
     35 C           7.7285    0.2490   34.4046 C.ar    1  UNL1        0.0305
     36 C           6.4357    0.9717   34.1672 C.ar    1  UNL1        0.0824
     37 N           5.5287    1.2844   35.3202 N.ar    1  UNL1       -0.2853
     38 C           4.2015    1.9797   35.3933 C.ar    1  UNL1        0.1326
     39 C           2.3012    2.7557   38.8362 C.3     1  UNL1        0.0067
     40 C           2.4970    2.5973   37.3575 C.3     1  UNL1        0.0475
@<TRIPOS>BOND
     1    39    40    1
     2    40    29    1
     3    29    30   ar
     4    30    31   ar
     5    31    32   ar
     6    32    33   ar
     7    33    34    1
     8    33    35   ar
     9    35    36   ar
    10    36    37   ar
    11    37    38   ar
    12    38    25    1
    13    25    26    2
    14    25    27   am
    15    27    24    1
    16    24     1    1
    17     1     2   ar
    18     2     3   ar
    19     3     4   ar
    20     4     7    1
    21     7     8    1
    22     8     9    1
    23     9    10    1
    24    10    13    1
    25    13    14   ar
    26    14    15   ar
    27    15    16   ar
    28    16    19    1
    29    19    20    1
    30    20    21    1
    31    20    22    1
    32    20    23    1
    33    16    17   ar
    34    17    18   ar
    35    10    11    1
    36    11    12    1
    37     4     5   ar
    38     5     6   ar
    39    38    29   ar
    40     6     1   ar
    41    37    31   ar
    42    12     7    1
    43    18    13   ar
    44    27    28    1
@<TRIPOS>MOLECULE
*****
 40 44 0 0 0
SMALL
GASTEIGER

@<TRIPOS>ATOM
      1 C           7.4974   -4.8096   28.5282 C.ar    1  UNL1       -0.0025
      2 C           7.4964   -5.3235   29.9374 C.ar    1  UNL1       -0.0014
      3 C           6.9568   -4.4699   31.0466 C.ar    1  UNL1        0.0142
      4 C           6.4183   -3.1024   30.7466 C.ar    1  UNL1        0.0478
      5 C           6.4193   -2.5886   29.3374 C.ar    1  UNL1        0.0142
      6 C           6.9588   -3.4422   28.2282 C.ar    1  UNL1       -0.0014
      7 N           5.8787   -2.2489   31.8558 N.pl3   1  UNL1       -0.3075
      8 C           4.8282   -2.7932   32.7778 C.3     1  UNL1        0.0911
      9 C           4.2886   -1.9396   33.8870 C.3     1  UNL1        0.0258
     10 C           4.7996   -0.5418   34.0742 C.3     1  UNL1        0.0257
     11 C           5.8502    0.0025   33.1522 C.3     1  UNL1        0.0258
     12 C           6.3897   -0.8511   32.0430 C.3     1  UNL1        0.0911
     13 C           4.2601    0.3117   35.1834 C.ar    1  UNL1       -0.0222
     14 C           3.4089    1.5051   34.8653 C.ar    1  UNL1       -0.0012
     15 C           2.8693    2.3587   35.9745 C.ar    1  UNL1        0.0369
     16 C           3.1810    2.0188   37.4019 C.ar    1  UNL1        0.1468
     17 C           4.0322    0.8255   37.7200 C.ar    1  UNL1        0.0369
     18 C           4.5717   -0.0281   36.6108 C.ar    1  UNL1       -0.0012
     19 O           2.6415    2.8724   38.5111 O.3     1  UNL1       -0.4045
     20 C           1.1872    2.8023   38.8718 C.3     1  UNL1        0.5753
     21 F          -0.2671    2.7323   39.2325 F       1  UNL1       -0.1328
     22 F           0.8893    3.8893   37.8820 F       1  UNL1       -0.1328
     23 F           1.4850    1.7154   39.8616 F       1  UNL1       -0.1328
     24 C           8.0369   -5.6632   27.4190 C.3     1  UNL1        0.1166
     25 C           8.0187   -4.5075   25.0922 C.2     1  UNL1        0.2635
     26 O           9.1287   -3.6005   25.5341 O.2     1  UNL1       -0.2685
     27 N           7.4728   -5.5388   26.0347 N.am    1  UNL1       -0.2957
     28 H           6.7443   -6.1342   25.7447 H       1  UNL1        0.1501
     29 C           7.9678   -5.0771   22.4811 C.ar    1  UNL1        0.0811
     30 N           7.1086   -4.6659   21.3223 N.ar    1  UNL1       -0.2306
     31 C           6.0644   -3.7178   21.8330 C.ar    1  UNL1        0.1483
     32 C           4.9465   -2.9910   21.1459 C.ar    1  UNL1        0.0488
     33 C           4.0425   -2.0895   21.9333 C.ar    1  UNL1        0.0622
     34 CL          2.9245   -1.3626   21.2462 Cl      1  UNL1       -0.0821
     35 C           4.2563   -1.9148   23.4076 C.ar    1  UNL1        0.0305
     36 C           5.3742   -2.6416   24.0947 C.ar    1  UNL1        0.0824
     37 N           6.2782   -3.5431   23.3074 N.ar    1  UNL1       -0.2853
     38 C           7.4546   -4.3832   23.7079 C.ar    1  UNL1        0.1326
     39 C           9.0701   -7.3384   23.1305 C.3     1  UNL1        0.0067
     40 C           9.1352   -6.0173   22.4232 C.3     1  UNL1        0.0475
@<TRIPOS>BOND
     1    39    40    1
     2    40    29    1
     3    29    30   ar
     4    30    31   ar
     5    31    32   ar
     6    32    33   ar
     7    33    34    1
     8    33    35   ar
     9    35    36   ar
    10    36    37   ar
    11    37    38   ar
    12    38    25    1
    13    25    26    2
    14    25    27   am
    15    27    24    1
    16    24     1    1
    17     1     2   ar
    18     2     3   ar
    19     3     4   ar
    20     4     7    1
    21     7     8    1
    22     8     9    1
    23     9    10    1
    24    10    13    1
    25    13    14   ar
    26    14    15   ar
    27    15    16   ar
    28    16    19    1
    29    19    20    1
    30    20    21    1
    31    20    22    1
    32    20    23    1
    33    16    17   ar
    34    17    18   ar
    35    10    11    1
    36    11    12    1
    37     4     5   ar
    38     5     6   ar
    39    38    29   ar
    40     6     1   ar
    41    37    31   ar
    42    12     7    1
    43    18    13   ar
    44    27    28    1
@<TRIPOS>MOLECULE
*****
 40 44 0 0 0
SMALL
GASTEIGER

@<TRIPOS>ATOM
      1 C           5.7628   -2.5261   25.5789 C.ar    1  UNL1       -0.0025
      2 C           6.5873   -3.0629   26.7111 C.ar    1  UNL1       -0.0014
      3 C           6.3294   -2.5972   28.1135 C.ar    1  UNL1        0.0142
      4 C           5.2469   -1.5947   28.3837 C.ar    1  UNL1        0.0478
      5 C           4.4223   -1.0579   27.2515 C.ar    1  UNL1        0.0142
      6 C           4.6802   -1.5235   25.8492 C.ar    1  UNL1       -0.0014
      7 N           4.9890   -1.1290   29.7860 N.pl3   1  UNL1       -0.3075
      8 C           6.0404   -1.3074   30.8409 C.3     1  UNL1        0.0911
      9 C           5.7825   -0.8418   32.2432 C.3     1  UNL1        0.0258
     10 C           4.4732   -0.1977   32.5908 C.3     1  UNL1        0.0257
     11 C           3.4217   -0.0192   31.5360 C.3     1  UNL1        0.0258
     12 C           3.6796   -0.4849   30.1336 C.3     1  UNL1        0.0911
     13 C           4.2153    0.2680   33.9931 C.ar    1  UNL1       -0.0222
     14 C           4.8133   -0.4737   35.1517 C.ar    1  UNL1       -0.0012
     15 C           4.5554   -0.0080   36.5540 C.ar    1  UNL1        0.0369
     16 C           3.6994    1.1994   36.7979 C.ar    1  UNL1        0.1468
     17 C           3.1014    1.9411   35.6394 C.ar    1  UNL1        0.0369
     18 C           3.3593    1.4755   34.2370 C.ar    1  UNL1       -0.0012
     19 O           3.4415    1.6651   38.2002 O.3     1  UNL1       -0.4045
     20 C           2.0336    1.8699   38.6755 C.3     1  UNL1        0.5753
     21 F           0.6258    2.0747   39.1508 F       1  UNL1       -0.1328
     22 F           2.2629    3.3517   38.7161 F       1  UNL1       -0.1328
     23 F           1.8044    0.3881   38.6349 F       1  UNL1       -0.1328
     24 C           6.0207   -2.9918   24.1766 C.3     1  UNL1        0.1166
     25 C           4.5669   -2.9887   22.0233 C.2     1  UNL1        0.2635
     26 O           4.3225   -4.4597   22.1863 O.2     1  UNL1       -0.2685
     27 N           5.4160   -2.2548   23.0184 N.am    1  UNL1       -0.2957
     28 H           5.5765   -1.2894   22.9115 H       1  UNL1        0.1501
     29 C           4.2037   -2.5408   19.4132 C.ar    1  UNL1        0.0811
     30 N           3.4007   -1.5640   18.6064 N.ar    1  UNL1       -0.2306
     31 C           2.6630   -0.6712   19.5596 C.ar    1  UNL1        0.1483
     32 C           1.7200    0.4738   19.3368 C.ar    1  UNL1        0.0488
     33 C           1.1242    1.1938   20.5101 C.ar    1  UNL1        0.0622
     34 CL          0.1812    2.3389   20.2873 Cl      1  UNL1       -0.0821
     35 C           1.4713    0.7688   21.9061 C.ar    1  UNL1        0.0305
     36 C           2.4142   -0.3762   22.1289 C.ar    1  UNL1        0.0824
     37 N           3.0101   -1.0962   20.9557 N.ar    1  UNL1       -0.2853
     38 C           3.9623   -2.2517   20.8651 C.ar    1  UNL1        0.1326
     39 C           4.5842   -5.0245   18.7527 C.3     1  UNL1        0.0067
     40 C           5.0922   -3.6176   18.8645 C.3     1  UNL1        0.0475
@<TRIPOS>BOND
     1    39    40    1
     2    40    29    1
     3    29    30   ar
     4    30    31   ar
     5    31    32   ar
     6    32    33   ar
     7    33    34    1
     8    33    35   ar
     9    35    36   ar
    10    36    37   ar
    11    37    38   ar
    12    38    25    1
    13    25    26    2
    14    25    27   am
    15    27    24    1
    16    24     1    1
    17     1     2   ar
    18     2     3   ar
    19     3     4   ar
    20     4     7    1
    21     7     8    1
    22     8     9    1
    23     9    10    1
    24    10    13    1
    25    13    14   ar
    26    14    15   ar
    27    15    16   ar
    28    16    19    1
    29    19    20    1
    30    20    21    1
    31    20    22    1
    32    20    23    1
    33    16    17   ar
    34    17    18   ar
    35    10    11    1
    36    11    12    1
    37     4     5   ar
    38     5     6   ar
    39    38    29   ar
    40     6     1   ar
    41    37    31   ar
    42    12     7    1
    43    18    13   ar
    44    27    28    1
@<TRIPOS>MOLECULE
*****
 40 44 0 0 0
SMALL
GASTEIGER

@<TRIPOS>ATOM
      1 C          -3.7652    4.3589   24.4218 C.ar    1  UNL1       -0.0025
      2 C          -2.3937    3.9183   24.0039 C.ar    1  UNL1       -0.0014
      3 C          -1.4588    3.3189   25.0122 C.ar    1  UNL1        0.0142
      4 C          -1.8953    3.1601   26.4384 C.ar    1  UNL1        0.0478
      5 C          -3.2669    3.6007   26.8563 C.ar    1  UNL1        0.0142
      6 C          -4.2018    4.2001   25.8481 C.ar    1  UNL1       -0.0014
      7 N          -0.9604    2.5608   27.4467 N.pl3   1  UNL1       -0.3075
      8 C          -1.0060    1.0884   27.7295 C.3     1  UNL1        0.0911
      9 C          -0.0711    0.4890   28.7377 C.3     1  UNL1        0.0258
     10 C           0.9095    1.3620   29.4632 C.3     1  UNL1        0.0257
     11 C           0.9551    2.8344   29.1805 C.3     1  UNL1        0.0258
     12 C           0.0202    3.4338   28.1722 C.3     1  UNL1        0.0911
     13 C           1.8445    0.7627   30.4715 C.ar    1  UNL1       -0.0222
     14 C           2.5189   -0.5459   30.1841 C.ar    1  UNL1       -0.0012
     15 C           3.4538   -1.1453   31.1923 C.ar    1  UNL1        0.0369
     16 C           3.7144   -0.4361   32.4881 C.ar    1  UNL1        0.1468
     17 C           3.0400    0.8726   32.7756 C.ar    1  UNL1        0.0369
     18 C           2.1050    1.4719   31.7673 C.ar    1  UNL1       -0.0012
     19 O           4.6493   -1.0354   33.4964 O.3     1  UNL1       -0.4045
     20 C           5.3052   -2.3556   33.2191 C.3     1  UNL1        0.5753
     21 F           5.9611   -3.6758   32.9419 F       1  UNL1       -0.1328
     22 F           4.1051   -3.0674   33.7695 F       1  UNL1       -0.1328
     23 F           6.5054   -1.6438   32.6688 F       1  UNL1       -0.1328
     24 C          -4.7002    4.9582   23.4135 C.3     1  UNL1        0.1166
     25 C          -4.2777    3.8314   21.1110 C.2     1  UNL1        0.2635
     26 O          -4.6795    2.5055   21.6862 O.2     1  UNL1       -0.2685
     27 N          -4.2881    5.0577   21.9747 N.am    1  UNL1       -0.2957
     28 H          -4.0244    5.9278   21.5972 H       1  UNL1        0.1501
     29 C          -4.7505    3.6982   18.4835 C.ar    1  UNL1        0.0811
     30 N          -3.9279    3.9039   17.2461 N.ar    1  UNL1       -0.2306
     31 C          -2.5348    4.2636   17.6700 C.ar    1  UNL1        0.1483
     32 C          -1.2963    4.5782   16.8844 C.ar    1  UNL1        0.0488
     33 C          -0.0193    4.9094   17.5982 C.ar    1  UNL1        0.0622
     34 CL          1.2192    5.2239   16.8126 Cl      1  UNL1       -0.0821
     35 C           0.0192    4.9260   19.0976 C.ar    1  UNL1        0.0305
     36 C          -1.2192    4.6114   19.8832 C.ar    1  UNL1        0.0824
     37 N          -2.4962    4.2802   19.1694 N.ar    1  UNL1       -0.2853
     38 C          -3.8656    3.9308   19.6722 C.ar    1  UNL1        0.1326
     39 C          -7.2375    4.3713   18.8172 C.3     1  UNL1        0.0067
     40 C          -6.2028    3.3254   18.5250 C.3     1  UNL1        0.0475
@<TRIPOS>BOND
     1    39    40    1
     2    40    29    1
     3    29    30   ar
     4    30    31   ar
     5    31    32   ar
     6    32    33   ar
     7    33    34    1
     8    33    35   ar
     9    35    36   ar
    10    36    37   ar
    11    37    38   ar
    12    38    25    1
    13    25    26    2
    14    25    27   am
    15    27    24    1
    16    24     1    1
    17     1     2   ar
    18     2     3   ar
    19     3     4   ar
    20     4     7    1
    21     7     8    1
    22     8     9    1
    23     9    10    1
    24    10    13    1
    25    13    14   ar
    26    14    15   ar
    27    15    16   ar
    28    16    19    1
    29    19    20    1
    30    20    21    1
    31    20    22    1
    32    20    23    1
    33    16    17   ar
    34    17    18   ar
    35    10    11    1
    36    11    12    1
    37     4     5   ar
    38     5     6   ar
    39    38    29   ar
    40     6     1   ar
    41    37    31   ar
    42    12     7    1
    43    18    13   ar
    44    27    28    1
@<TRIPOS>MOLECULE
*****
 40 44 0 0 0
SMALL
GASTEIGER

@<TRIPOS>ATOM
      1 C           3.0960    3.0836   30.8018 C.ar    1  UNL1       -0.0025
      2 C           4.4072    2.9041   30.0957 C.ar    1  UNL1       -0.0014
      3 C           4.4543    2.2116   28.7659 C.ar    1  UNL1        0.0142
      4 C           3.1903    1.6985   28.1422 C.ar    1  UNL1        0.0478
      5 C           1.8792    1.8780   28.8483 C.ar    1  UNL1        0.0142
      6 C           1.8320    2.5705   30.1781 C.ar    1  UNL1       -0.0014
      7 N           3.2375    1.0060   26.8125 N.pl3   1  UNL1       -0.3075
      8 C           3.7439   -0.4027   26.7181 C.3     1  UNL1        0.0911
      9 C           3.7911   -1.0952   25.3884 C.3     1  UNL1        0.0258
     10 C           3.3318   -0.3790   24.1530 C.3     1  UNL1        0.0257
     11 C           2.8254    1.0298   24.2474 C.3     1  UNL1        0.0258
     12 C           2.7782    1.7223   25.5772 C.3     1  UNL1        0.0911
     13 C           3.3790   -1.0715   22.8233 C.ar    1  UNL1       -0.0222
     14 C           4.2957   -2.2410   22.6188 C.ar    1  UNL1       -0.0012
     15 C           4.3428   -2.9335   21.2891 C.ar    1  UNL1        0.0369
     16 C           3.4733   -2.4565   20.1638 C.ar    1  UNL1        0.1468
     17 C           2.5567   -1.2869   20.3682 C.ar    1  UNL1        0.0369
     18 C           2.5095   -0.5944   21.6980 C.ar    1  UNL1       -0.0012
     19 O           3.5205   -3.1490   18.8340 O.3     1  UNL1       -0.4045
     20 C           4.1169   -4.5209   18.7236 C.3     1  UNL1        0.5753
     21 F           4.7133   -5.8928   18.6133 F       1  UNL1       -0.1328
     22 F           5.3680   -3.9303   18.1441 F       1  UNL1       -0.1328
     23 F           2.8657   -5.1114   19.3031 F       1  UNL1       -0.1328
     24 C           3.0489    3.7761   32.1315 C.3     1  UNL1        0.1166
     25 C           4.1916    2.7566   34.2302 C.2     1  UNL1        0.2635
     26 O           5.5025    3.3483   33.8038 O.2     1  UNL1       -0.2685
     27 N           2.9649    2.9705   33.3941 N.am    1  UNL1       -0.2957
     28 H           2.1046    2.5822   33.6739 H       1  UNL1        0.1501
     29 C           4.9484    0.7567   35.8342 C.ar    1  UNL1        0.0811
     30 N           4.5285    0.2660   37.1880 N.ar    1  UNL1       -0.2306
     31 C           3.4283    1.1571   37.6834 C.ar    1  UNL1        0.1483
     32 C           2.6297    1.1548   38.9531 C.ar    1  UNL1        0.0488
     33 C           1.5710    2.1939   39.1751 C.ar    1  UNL1        0.0622
     34 CL          0.7723    2.1916   40.4449 Cl      1  UNL1       -0.0821
     35 C           1.3109    3.2354   38.1274 C.ar    1  UNL1        0.0305
     36 C           2.1095    3.2377   36.8577 C.ar    1  UNL1        0.0824
     37 N           3.1681    2.1986   36.6357 N.ar    1  UNL1       -0.2853
     38 C           4.1076    1.9511   35.4928 C.ar    1  UNL1        0.1326
     39 C           5.6524   -0.5704   33.7145 C.3     1  UNL1        0.0067
     40 C           6.0207    0.1580   34.9729 C.3     1  UNL1        0.0475
@<TRIPOS>BOND
     1    39    40    1
     2    40    29    1
     3    29    30   ar
     4    30    31   ar
     5    31    32   ar
     6    32    33   ar
     7    33    34    1
     8    33    35   ar
     9    35    36   ar
    10    36    37   ar
    11    37    38   ar
    12    38    25    1
    13    25    26    2
    14    25    27   am
    15    27    24    1
    16    24     1    1
    17     1     2   ar
    18     2     3   ar
    19     3     4   ar
    20     4     7    1
    21     7     8    1
    22     8     9    1
    23     9    10    1
    24    10    13    1
    25    13    14   ar
    26    14    15   ar
    27    15    16   ar
    28    16    19    1
    29    19    20    1
    30    20    21    1
    31    20    22    1
    32    20    23    1
    33    16    17   ar
    34    17    18   ar
    35    10    11    1
    36    11    12    1
    37     4     5   ar
    38     5     6   ar
    39    38    29   ar
    40     6     1   ar
    41    37    31   ar
    42    12     7    1
    43    18    13   ar
    44    27    28    1
@<TRIPOS>MOLECULE
*****
 40 44 0 0 0
SMALL
GASTEIGER

@<TRIPOS>ATOM
      1 C           5.7413   -0.1286   32.4704 C.ar    1  UNL1       -0.0025
      2 C           4.9491    0.8069   31.6059 C.ar    1  UNL1       -0.0014
      3 C           4.7256    0.4828   30.1585 C.ar    1  UNL1        0.0142
      4 C           5.2942   -0.7769   29.5755 C.ar    1  UNL1        0.0478
      5 C           6.0864   -1.7124   30.4399 C.ar    1  UNL1        0.0142
      6 C           6.3099   -1.3883   31.8873 C.ar    1  UNL1       -0.0014
      7 N           5.0707   -1.1010   28.1281 N.pl3   1  UNL1       -0.3075
      8 C           6.0900   -1.9012   27.3726 C.3     1  UNL1        0.0911
      9 C           5.8665   -2.2252   25.9252 C.3     1  UNL1        0.0258
     10 C           4.6236   -1.7491   25.2333 C.3     1  UNL1        0.0257
     11 C           3.6044   -0.9490   25.9888 C.3     1  UNL1        0.0258
     12 C           3.8279   -0.6249   27.4362 C.3     1  UNL1        0.0911
     13 C           4.4001   -2.0732   23.7859 C.ar    1  UNL1       -0.0222
     14 C           3.5968   -1.1444   22.9247 C.ar    1  UNL1       -0.0012
     15 C           3.3732   -1.4685   21.4773 C.ar    1  UNL1        0.0369
     16 C           3.9531   -2.7215   20.8910 C.ar    1  UNL1        0.1468
     17 C           4.7564   -3.6504   21.7523 C.ar    1  UNL1        0.0369
     18 C           4.9800   -3.3263   23.1997 C.ar    1  UNL1       -0.0012
     19 O           3.7295   -3.0456   19.4436 O.3     1  UNL1       -0.4045
     20 C           4.2393   -4.3375   18.8770 C.3     1  UNL1        0.5753
     21 F           4.7490   -5.6294   18.3103 F       1  UNL1       -0.1328
     22 F           2.9753   -5.0233   19.3035 F       1  UNL1       -0.1328
     23 F           5.5033   -3.6517   18.4504 F       1  UNL1       -0.1328
     24 C           5.9648    0.1955   33.9178 C.3     1  UNL1        0.1166
     25 C           4.4225    1.1191   35.7935 C.2     1  UNL1        0.2635
     26 O           4.3431   -0.2496   36.4021 O.2     1  UNL1       -0.2685
     27 N           5.2334    1.3416   34.5514 N.am    1  UNL1       -0.2957
     28 H           5.2855    2.2399   34.1519 H       1  UNL1        0.1501
     29 C           3.7956    2.6931   37.8609 C.ar    1  UNL1        0.0811
     30 N           2.8958    3.8770   38.0580 N.ar    1  UNL1       -0.2306
     31 C           2.2353    4.1808   36.7460 C.ar    1  UNL1        0.1483
     32 C           1.2498    5.2358   36.3389 C.ar    1  UNL1        0.0488
     33 C           0.7558    5.2946   34.9238 C.ar    1  UNL1        0.0622
     34 CL         -0.2298    6.3496   34.5167 Cl      1  UNL1       -0.0821
     35 C           1.2473    4.2984   33.9158 C.ar    1  UNL1        0.0305
     36 C           2.2328    3.2435   34.3229 C.ar    1  UNL1        0.0824
     37 N           2.7268    3.1847   35.7380 N.ar    1  UNL1       -0.2853
     38 C           3.6911    2.2652   36.4271 C.ar    1  UNL1        0.1326
     39 C           6.0682    2.4986   39.1048 C.3     1  UNL1        0.0067
     40 C           4.6498    2.0501   38.9130 C.3     1  UNL1        0.0475
@<TRIPOS>BOND
     1    39    40    1
     2    40    29    1
     3    29    30   ar
     4    30    31   ar
     5    31    32   ar
     6    32    33   ar
     7    33    34    1
     8    33    35   ar
     9    35    36   ar
    10    36    37   ar
    11    37    38   ar
    12    38    25    1
    13    25    26    2
    14    25    27   am
    15    27    24    1
    16    24     1    1
    17     1     2   ar
    18     2     3   ar
    19     3     4   ar
    20     4     7    1
    21     7     8    1
    22     8     9    1
    23     9    10    1
    24    10    13    1
    25    13    14   ar
    26    14    15   ar
    27    15    16   ar
    28    16    19    1
    29    19    20    1
    30    20    21    1
    31    20    22    1
    32    20    23    1
    33    16    17   ar
    34    17    18   ar
    35    10    11    1
    36    11    12    1
    37     4     5   ar
    38     5     6   ar
    39    38    29   ar
    40     6     1   ar
    41    37    31   ar
    42    12     7    1
    43    18    13   ar
    44    27    28    1
@<TRIPOS>MOLECULE
*****
 40 44 0 0 0
SMALL
GASTEIGER

@<TRIPOS>ATOM
      1 C           6.1853   -3.1450   25.3174 C.ar    1  UNL1       -0.0025
      2 C           5.3232   -1.9338   25.5171 C.ar    1  UNL1       -0.0014
      3 C           5.0659   -1.4162   26.9012 C.ar    1  UNL1        0.0142
      4 C           5.6706   -2.1098   28.0858 C.ar    1  UNL1        0.0478
      5 C           6.5327   -3.3209   27.8862 C.ar    1  UNL1        0.0142
      6 C           6.7901   -3.8385   26.5021 C.ar    1  UNL1       -0.0014
      7 N           5.4133   -1.5921   29.4699 N.pl3   1  UNL1       -0.3075
      8 C           6.2794   -2.0381   30.6105 C.3     1  UNL1        0.0911
      9 C           6.0220   -1.5205   31.9946 C.3     1  UNL1        0.0258
     10 C           4.8986   -0.5569   32.2382 C.3     1  UNL1        0.0257
     11 C           4.0325   -0.1109   31.0976 C.3     1  UNL1        0.0258
     12 C           4.2898   -0.6285   29.7135 C.3     1  UNL1        0.0911
     13 C           4.6412   -0.0393   33.6223 C.ar    1  UNL1       -0.0222
     14 C           5.1829   -0.7759   34.8113 C.ar    1  UNL1       -0.0012
     15 C           4.9255   -0.2583   36.1955 C.ar    1  UNL1        0.0369
     16 C           4.1265    0.9960   36.3906 C.ar    1  UNL1        0.1468
     17 C           3.5848    1.7327   35.2016 C.ar    1  UNL1        0.0369
     18 C           3.8421    1.2151   33.8174 C.ar    1  UNL1       -0.0012
     19 O           3.8691    1.5137   37.7747 O.3     1  UNL1       -0.4045
     20 C           2.4853    1.9334   38.1732 C.3     1  UNL1        0.5753
     21 F           1.1014    2.3531   38.5717 F       1  UNL1       -0.1328
     22 F           2.1211    0.4992   38.4192 F       1  UNL1       -0.1328
     23 F           2.8494    3.3675   37.9272 F       1  UNL1       -0.1328
     24 C           6.4427   -3.6626   23.9333 C.3     1  UNL1        0.1166
     25 C           5.3732   -3.1166   21.6294 C.2     1  UNL1        0.2635
     26 O           4.5937   -4.3969   21.6879 O.2     1  UNL1       -0.2685
     27 N           6.2977   -2.7495   22.7521 N.am    1  UNL1       -0.2957
     28 H           6.8093   -1.9093   22.7137 H       1  UNL1        0.1501
     29 C           6.2827   -1.9169   19.4206 C.ar    1  UNL1        0.0811
     30 N           5.7094   -0.9530   18.4245 N.ar    1  UNL1       -0.2306
     31 C           4.3006   -0.6439   18.8365 C.ar    1  UNL1        0.1483
     32 C           3.2501    0.2415   18.2343 C.ar    1  UNL1        0.0488
     33 C           1.9023    0.3541   18.8829 C.ar    1  UNL1        0.0622
     34 CL          0.8518    1.2395   18.2807 Cl      1  UNL1       -0.0821
     35 C           1.6049   -0.4188   20.1336 C.ar    1  UNL1        0.0305
     36 C           2.6554   -1.3042   20.7357 C.ar    1  UNL1        0.0824
     37 N           4.0032   -1.4167   20.0872 N.ar    1  UNL1       -0.2853
     38 C           5.2282   -2.2035   20.4482 C.ar    1  UNL1        0.1326
     39 C           8.7814   -1.8024   20.1231 C.3     1  UNL1        0.0067
     40 C           7.6674   -2.4931   19.3938 C.3     1  UNL1        0.0475
@<TRIPOS>BOND
     1    39    40    1
     2    40    29    1
     3    29    30   ar
     4    30    31   ar
     5    31    32   ar
     6    32    33   ar
     7    33    34    1
     8    33    35   ar
     9    35    36   ar
    10    36    37   ar
    11    37    38   ar
    12    38    25    1
    13    25    26    2
    14    25    27   am
    15    27    24    1
    16    24     1    1
    17     1     2   ar
    18     2     3   ar
    19     3     4   ar
    20     4     7    1
    21     7     8    1
    22     8     9    1
    23     9    10    1
    24    10    13    1
    25    13    14   ar
    26    14    15   ar
    27    15    16   ar
    28    16    19    1
    29    19    20    1
    30    20    21    1
    31    20    22    1
    32    20    23    1
    33    16    17   ar
    34    17    18   ar
    35    10    11    1
    36    11    12    1
    37     4     5   ar
    38     5     6   ar
    39    38    29   ar
    40     6     1   ar
    41    37    31   ar
    42    12     7    1
    43    18    13   ar
    44    27    28    1
