@<TRIPOS>MOLECULE
*****
 25 27 0 0 0
SMALL
GASTEIGER

@<TRIPOS>ATOM
      1 C         -10.0974  -18.0829   22.9834 C.ar    1  UNL1        0.0366
      2 C         -11.4182  -18.5524   23.5174 C.ar    1  UNL1        0.0074
      3 C         -12.6246  -17.6665   23.4189 C.ar    1  UNL1        0.0345
      4 BR        -13.9454  -18.1359   23.9530 Br      1  UNL1       -0.0490
      5 C         -12.5102  -16.3112   22.7865 C.ar    1  UNL1        0.0098
      6 C         -11.1895  -15.8417   22.2525 C.ar    1  UNL1        0.0372
      7 C          -9.9831  -16.7276   22.3509 C.ar    1  UNL1        0.1369
      8 C          -8.8909  -18.9688   23.0819 C.3     1  UNL1        0.1564
      9 C          -9.8701  -19.6118   20.0360 C.3     1  UNL1        0.0518
     10 C          -8.4494  -19.4525   20.4903 C.ar    1  UNL1        0.0579
     11 C          -7.2295  -19.5608   19.6243 C.ar    1  UNL1        0.0363
     12 C          -6.0254  -19.3322   20.4891 C.ar    1  UNL1        0.1160
     13 N          -6.5012  -19.0826   21.8896 N.ar    1  UNL1       -0.1681
     14 N          -7.9994  -19.1569   21.8903 N.ar    1  UNL1       -0.2503
     15 C          -4.5964  -19.3500   20.0335 C.2     1  UNL1        0.0922
     16 O          -4.0239  -18.1651   19.3137 O.co2   1  UNL1       -0.5430
     17 O          -3.7399  -20.5528   20.2978 O.co2   1  UNL1       -0.5430
     18 O          -8.6622  -16.2582   21.8169 O.3     1  UNL1       -0.4709
     19 C          -7.9306  -15.1417   22.5012 C.3     1  UNL1        0.2320
     20 C          -7.4860  -15.2982   23.9252 C.ar    1  UNL1        0.0212
     21 C          -6.0234  -15.3658   24.2510 C.ar    1  UNL1       -0.0007
     22 C          -5.5787  -15.5223   25.6751 C.ar    1  UNL1       -0.0002
     23 C          -6.5967  -15.6111   26.7732 C.ar    1  UNL1       -0.0000
     24 C          -8.0593  -15.5435   26.4473 C.ar    1  UNL1       -0.0002
     25 C          -8.5040  -15.3870   25.0233 C.ar    1  UNL1       -0.0007
@<TRIPOS>UNITY_ATOM_ATTR
16 1
charge -1
@<TRIPOS>BOND
     1     9    10    1
     2    10    11   ar
     3    11    12   ar
     4    12    15    1
     5    15    16   ar
     6    15    17   ar
     7    12    13   ar
     8    13    14   ar
     9    14     8    1
    10     8     1    1
    11     1     2   ar
    12     2     3   ar
    13     3     4    1
    14     3     5   ar
    15     5     6   ar
    16     6     7   ar
    17     7    18    1
    18    18    19    1
    19    19    20    1
    20    20    21   ar
    21    21    22   ar
    22    22    23   ar
    23    23    24   ar
    24    24    25   ar
    25    14    10   ar
    26     7     1   ar
    27    25    20   ar
@<TRIPOS>MOLECULE
*****
 25 27 0 0 0
SMALL
GASTEIGER

@<TRIPOS>ATOM
      1 C          -3.6585  -18.4148   21.8930 C.ar    1  UNL1        0.0366
      2 C          -2.8656  -18.7249   20.6581 C.ar    1  UNL1        0.0074
      3 C          -1.7923  -17.7827   20.1997 C.ar    1  UNL1        0.0345
      4 BR         -0.9994  -18.0928   18.9647 Br      1  UNL1       -0.0490
      5 C          -1.5119  -16.5303   20.9762 C.ar    1  UNL1        0.0098
      6 C          -2.3048  -16.2202   22.2111 C.ar    1  UNL1        0.0372
      7 C          -3.3781  -17.1625   22.6696 C.ar    1  UNL1        0.1369
      8 C          -4.7319  -19.3571   22.3515 C.3     1  UNL1        0.1564
      9 C          -6.1481  -21.1481   20.0199 C.3     1  UNL1        0.0518
     10 C          -6.7865  -20.0205   20.7756 C.ar    1  UNL1        0.0579
     11 C          -8.1880  -19.5183   20.5923 C.ar    1  UNL1        0.0363
     12 C          -8.4033  -18.3847   21.5507 C.ar    1  UNL1        0.1160
     13 N          -7.1348  -18.1863   22.3263 N.ar    1  UNL1       -0.1681
     14 N          -6.1356  -19.1973   21.8473 N.ar    1  UNL1       -0.2503
     15 C          -9.6653  -17.5891   21.7062 C.2     1  UNL1        0.0922
     16 O         -10.2789  -16.9156   20.5147 O.co2   1  UNL1       -0.5430
     17 O         -10.3138  -17.4672   23.0533 O.co2   1  UNL1       -0.5430
     18 O          -4.1711  -16.8524   23.9046 O.3     1  UNL1       -0.4709
     19 C          -5.0601  -15.6448   23.9415 C.3     1  UNL1        0.2320
     20 C          -6.1548  -15.5503   24.9626 C.ar    1  UNL1        0.0212
     21 C          -5.8155  -15.4903   26.4225 C.ar    1  UNL1       -0.0007
     22 C          -6.9102  -15.3958   27.4436 C.ar    1  UNL1       -0.0002
     23 C          -8.3442  -15.3612   27.0048 C.ar    1  UNL1       -0.0000
     24 C          -8.6835  -15.4212   25.5449 C.ar    1  UNL1       -0.0002
     25 C          -7.5888  -15.5157   24.5238 C.ar    1  UNL1       -0.0007
@<TRIPOS>UNITY_ATOM_ATTR
16 1
charge -1
@<TRIPOS>BOND
     1     9    10    1
     2    10    11   ar
     3    11    12   ar
     4    12    15    1
     5    15    16   ar
     6    15    17   ar
     7    12    13   ar
     8    13    14   ar
     9    14     8    1
    10     8     1    1
    11     1     2   ar
    12     2     3   ar
    13     3     4    1
    14     3     5   ar
    15     5     6   ar
    16     6     7   ar
    17     7    18    1
    18    18    19    1
    19    19    20    1
    20    20    21   ar
    21    21    22   ar
    22    22    23   ar
    23    23    24   ar
    24    24    25   ar
    25    14    10   ar
    26     7     1   ar
    27    25    20   ar
@<TRIPOS>MOLECULE
*****
 25 27 0 0 0
SMALL
GASTEIGER

@<TRIPOS>ATOM
      1 C          -6.9414  -15.4770   24.0427 C.ar    1  UNL1        0.0366
      2 C          -7.9774  -15.2776   25.1089 C.ar    1  UNL1        0.0074
      3 C          -7.5877  -15.3480   26.5557 C.ar    1  UNL1        0.0345
      4 BR         -8.6237  -15.1487   27.6220 Br      1  UNL1       -0.0490
      5 C          -6.1621  -15.6178   26.9362 C.ar    1  UNL1        0.0098
      6 C          -5.1261  -15.8171   25.8699 C.ar    1  UNL1        0.0372
      7 C          -5.5157  -15.7467   24.4232 C.ar    1  UNL1        0.1369
      8 C          -7.3310  -15.4066   22.5958 C.3     1  UNL1        0.1564
      9 C          -7.1235  -18.6405   22.2102 C.3     1  UNL1        0.0518
     10 C          -8.3156  -17.7889   21.8883 C.ar    1  UNL1        0.0579
     11 C          -9.6216  -18.2742   21.3325 C.ar    1  UNL1        0.0363
     12 C         -10.5241  -17.0877   21.1663 C.ar    1  UNL1        0.1160
     13 N          -9.7759  -15.8691   21.6193 N.ar    1  UNL1       -0.1681
     14 N          -8.4110  -16.3024   22.0655 N.ar    1  UNL1       -0.2503
     15 C         -11.9283  -17.1150   20.6396 C.2     1  UNL1        0.0922
     16 O         -12.2638  -16.4056   19.3613 O.co2   1  UNL1       -0.5430
     17 O         -12.9970  -17.8518   21.3913 O.co2   1  UNL1       -0.5430
     18 O          -4.4797  -15.9461   23.3568 O.3     1  UNL1       -0.4709
     19 C          -3.7638  -17.2593   23.2429 C.3     1  UNL1        0.2320
     20 C          -2.8156  -17.5004   22.1060 C.ar    1  UNL1        0.0212
     21 C          -1.9592  -16.3807   21.5933 C.ar    1  UNL1       -0.0007
     22 C          -1.0109  -16.6218   20.4563 C.ar    1  UNL1       -0.0002
     23 C          -0.9190  -17.9826   19.8320 C.ar    1  UNL1       -0.0000
     24 C          -1.7754  -19.1024   20.3448 C.ar    1  UNL1       -0.0002
     25 C          -2.7236  -18.8613   21.4817 C.ar    1  UNL1       -0.0007
@<TRIPOS>UNITY_ATOM_ATTR
16 1
charge -1
@<TRIPOS>BOND
     1     9    10    1
     2    10    11   ar
     3    11    12   ar
     4    12    15    1
     5    15    16   ar
     6    15    17   ar
     7    12    13   ar
     8    13    14   ar
     9    14     8    1
    10     8     1    1
    11     1     2   ar
    12     2     3   ar
    13     3     4    1
    14     3     5   ar
    15     5     6   ar
    16     6     7   ar
    17     7    18    1
    18    18    19    1
    19    19    20    1
    20    20    21   ar
    21    21    22   ar
    22    22    23   ar
    23    23    24   ar
    24    24    25   ar
    25    14    10   ar
    26     7     1   ar
    27    25    20   ar
@<TRIPOS>MOLECULE
*****
 25 27 0 0 0
SMALL
GASTEIGER

@<TRIPOS>ATOM
      1 C          -7.2159  -15.5274   24.1112 C.ar    1  UNL1        0.0366
      2 C          -8.1674  -15.2635   25.2403 C.ar    1  UNL1        0.0074
      3 C          -7.6752  -15.2878   26.6570 C.ar    1  UNL1        0.0345
      4 BR         -8.6267  -15.0239   27.7862 Br      1  UNL1       -0.0490
      5 C          -6.2315  -15.5761   26.9446 C.ar    1  UNL1        0.0098
      6 C          -5.2800  -15.8400   25.8154 C.ar    1  UNL1        0.0372
      7 C          -5.7723  -15.8157   24.3987 C.ar    1  UNL1        0.1369
      8 C          -7.7081  -15.5030   22.6944 C.3     1  UNL1        0.1564
      9 C         -10.6984  -16.7909   22.9165 C.3     1  UNL1        0.0518
     10 C          -9.5476  -17.3622   22.1422 C.ar    1  UNL1        0.0579
     11 C          -9.5694  -18.6257   21.3341 C.ar    1  UNL1        0.0363
     12 C          -8.2084  -18.8146   20.7325 C.ar    1  UNL1        0.1160
     13 N          -7.3455  -17.6679   21.1689 N.ar    1  UNL1       -0.1681
     14 N          -8.1732  -16.7702   22.0401 N.ar    1  UNL1       -0.2503
     15 C          -7.7846  -19.9508   19.8496 C.2     1  UNL1        0.0922
     16 O          -6.4812  -20.6494   20.1001 O.co2   1  UNL1       -0.5430
     17 O          -8.6644  -20.3882   18.7162 O.co2   1  UNL1       -0.5430
     18 O          -4.8208  -16.0796   23.2695 O.3     1  UNL1       -0.4709
     19 C          -3.9217  -17.2796   23.3113 C.3     1  UNL1        0.2320
     20 C          -2.9522  -17.5296   22.1943 C.ar    1  UNL1        0.0212
     21 C          -2.8510  -18.8946   21.5806 C.ar    1  UNL1       -0.0007
     22 C          -1.8815  -19.1447   20.4636 C.ar    1  UNL1       -0.0002
     23 C          -1.0133  -18.0298   19.9603 C.ar    1  UNL1       -0.0000
     24 C          -1.1146  -16.6648   20.5740 C.ar    1  UNL1       -0.0002
     25 C          -2.0841  -16.4147   21.6910 C.ar    1  UNL1       -0.0007
@<TRIPOS>UNITY_ATOM_ATTR
16 1
charge -1
@<TRIPOS>BOND
     1     9    10    1
     2    10    11   ar
     3    11    12   ar
     4    12    15    1
     5    15    16   ar
     6    15    17   ar
     7    12    13   ar
     8    13    14   ar
     9    14     8    1
    10     8     1    1
    11     1     2   ar
    12     2     3   ar
    13     3     4    1
    14     3     5   ar
    15     5     6   ar
    16     6     7   ar
    17     7    18    1
    18    18    19    1
    19    19    20    1
    20    20    21   ar
    21    21    22   ar
    22    22    23   ar
    23    23    24   ar
    24    24    25   ar
    25    14    10   ar
    26     7     1   ar
    27    25    20   ar
@<TRIPOS>MOLECULE
*****
 25 27 0 0 0
SMALL
GASTEIGER

@<TRIPOS>ATOM
      1 C          -7.2468  -19.6468   21.2093 C.ar    1  UNL1        0.0366
      2 C          -6.1476  -20.2798   20.4089 C.ar    1  UNL1        0.0074
      3 C          -4.7216  -19.8787   20.6446 C.ar    1  UNL1        0.0345
      4 BR         -3.6222  -20.5117   19.8441 Br      1  UNL1       -0.0490
      5 C          -4.3949  -18.8445   21.6808 C.ar    1  UNL1        0.0098
      6 C          -5.4941  -18.2115   22.4813 C.ar    1  UNL1        0.0372
      7 C          -6.9201  -18.6126   22.2456 C.ar    1  UNL1        0.1369
      8 C          -8.6729  -20.0479   20.9736 C.3     1  UNL1        0.1564
      9 C         -11.1228  -19.8024   23.1154 C.3     1  UNL1        0.0518
     10 C         -10.8789  -18.8940   21.9470 C.ar    1  UNL1        0.0579
     11 C         -11.7182  -17.7133   21.5578 C.ar    1  UNL1        0.0363
     12 C         -11.1109  -17.0964   20.3329 C.ar    1  UNL1        0.1160
     13 N          -9.8962  -17.8959   19.9650 N.ar    1  UNL1       -0.1681
     14 N          -9.7528  -19.0069   20.9625 N.ar    1  UNL1       -0.2503
     15 C         -11.6275  -15.8916   19.6038 C.2     1  UNL1        0.0922
     16 O         -10.6719  -14.9726   18.9024 O.co2   1  UNL1       -0.5430
     17 O         -13.0998  -15.6059   19.5763 O.co2   1  UNL1       -0.5430
     18 O          -8.0195  -17.9796   23.0461 O.3     1  UNL1       -0.4709
     19 C          -7.9819  -16.5092   23.3403 C.3     1  UNL1        0.2320
     20 C          -7.5338  -16.0251   24.6874 C.ar    1  UNL1        0.0212
     21 C          -6.1133  -15.5894   24.8934 C.ar    1  UNL1       -0.0007
     22 C          -5.6652  -15.1053   26.2406 C.ar    1  UNL1       -0.0002
     23 C          -6.6376  -15.0568   27.3817 C.ar    1  UNL1       -0.0000
     24 C          -8.0581  -15.4924   27.1757 C.ar    1  UNL1       -0.0002
     25 C          -8.5062  -15.9765   25.8285 C.ar    1  UNL1       -0.0007
@<TRIPOS>UNITY_ATOM_ATTR
16 1
charge -1
@<TRIPOS>BOND
     1     9    10    1
     2    10    11   ar
     3    11    12   ar
     4    12    15    1
     5    15    16   ar
     6    15    17   ar
     7    12    13   ar
     8    13    14   ar
     9    14     8    1
    10     8     1    1
    11     1     2   ar
    12     2     3   ar
    13     3     4    1
    14     3     5   ar
    15     5     6   ar
    16     6     7   ar
    17     7    18    1
    18    18    19    1
    19    19    20    1
    20    20    21   ar
    21    21    22   ar
    22    22    23   ar
    23    23    24   ar
    24    24    25   ar
    25    14    10   ar
    26     7     1   ar
    27    25    20   ar
@<TRIPOS>MOLECULE
*****
 25 27 0 0 0
SMALL
GASTEIGER

@<TRIPOS>ATOM
      1 C          -7.7206  -18.4271   22.2433 C.ar    1  UNL1        0.0366
      2 C          -8.7504  -19.4894   21.9967 C.ar    1  UNL1        0.0074
      3 C         -10.1336  -19.1064   21.5608 C.ar    1  UNL1        0.0345
      4 BR        -11.1635  -20.1688   21.3141 Br      1  UNL1       -0.0490
      5 C         -10.4870  -17.6609   21.3716 C.ar    1  UNL1        0.0098
      6 C          -9.4572  -16.5985   21.6183 C.ar    1  UNL1        0.0372
      7 C          -8.0741  -16.9816   22.0541 C.ar    1  UNL1        0.1369
      8 C          -6.3374  -18.8101   22.6792 C.3     1  UNL1        0.1564
      9 C          -6.0751  -21.0225   20.2946 C.3     1  UNL1        0.0518
     10 C          -5.1089  -19.9100   20.5753 C.ar    1  UNL1        0.0579
     11 C          -3.8526  -19.6191   19.8092 C.ar    1  UNL1        0.0363
     12 C          -3.1966  -18.4223   20.4318 C.ar    1  UNL1        0.1160
     13 N          -4.0476  -17.9737   21.5826 N.ar    1  UNL1       -0.1681
     14 N          -5.2295  -18.8931   21.6714 N.ar    1  UNL1       -0.2503
     15 C          -1.9148  -17.7860   19.9824 C.2     1  UNL1        0.0922
     16 O          -1.3953  -16.5675   20.6861 O.co2   1  UNL1       -0.5430
     17 O          -1.1525  -18.3683   18.8292 O.co2   1  UNL1       -0.5430
     18 O          -7.0442  -15.9192   22.3008 O.3     1  UNL1       -0.4709
     19 C          -7.2854  -14.8687   23.3440 C.3     1  UNL1        0.2320
     20 C          -7.2154  -15.2265   24.7990 C.ar    1  UNL1        0.0212
     21 C          -5.8841  -15.3337   25.4817 C.ar    1  UNL1       -0.0007
     22 C          -5.8141  -15.6915   26.9368 C.ar    1  UNL1       -0.0002
     23 C          -7.0753  -15.9421   27.7090 C.ar    1  UNL1       -0.0000
     24 C          -8.4066  -15.8350   27.0263 C.ar    1  UNL1       -0.0002
     25 C          -8.4767  -15.4772   25.5713 C.ar    1  UNL1       -0.0007
@<TRIPOS>UNITY_ATOM_ATTR
16 1
charge -1
@<TRIPOS>BOND
     1     9    10    1
     2    10    11   ar
     3    11    12   ar
     4    12    15    1
     5    15    16   ar
     6    15    17   ar
     7    12    13   ar
     8    13    14   ar
     9    14     8    1
    10     8     1    1
    11     1     2   ar
    12     2     3   ar
    13     3     4    1
    14     3     5   ar
    15     5     6   ar
    16     6     7   ar
    17     7    18    1
    18    18    19    1
    19    19    20    1
    20    20    21   ar
    21    21    22   ar
    22    22    23   ar
    23    23    24   ar
    24    24    25   ar
    25    14    10   ar
    26     7     1   ar
    27    25    20   ar
@<TRIPOS>MOLECULE
*****
 25 27 0 0 0
SMALL
GASTEIGER

@<TRIPOS>ATOM
      1 C          -9.9554  -17.0995   22.6165 C.ar    1  UNL1        0.0366
      2 C         -10.9065  -16.2975   21.7785 C.ar    1  UNL1        0.0074
      3 C         -11.2908  -16.7794   20.4110 C.ar    1  UNL1        0.0345
      4 BR        -12.2419  -15.9774   19.5730 Br      1  UNL1       -0.0490
      5 C         -10.7240  -18.0633   19.8815 C.ar    1  UNL1        0.0098
      6 C          -9.7729  -18.8652   20.7195 C.ar    1  UNL1        0.0372
      7 C          -9.3886  -18.3833   22.0870 C.ar    1  UNL1        0.1369
      8 C          -9.5711  -16.6176   23.9840 C.3     1  UNL1        0.1564
      9 C          -8.4071  -15.5744   26.8488 C.3     1  UNL1        0.0518
     10 C          -7.6256  -15.7079   25.5754 C.ar    1  UNL1        0.0579
     11 C          -6.1717  -15.3855   25.3954 C.ar    1  UNL1        0.0363
     12 C          -5.8082  -15.6657   23.9673 C.ar    1  UNL1        0.1160
     13 N          -7.0374  -16.1613   23.2649 N.ar    1  UNL1       -0.1681
     14 N          -8.1606  -16.1874   24.2587 N.ar    1  UNL1       -0.2503
     15 C          -4.4534  -15.4824   23.3501 C.2     1  UNL1        0.0922
     16 O          -4.1398  -14.2292   22.5881 O.co2   1  UNL1       -0.5430
     17 O          -3.4124  -16.5526   23.4951 O.co2   1  UNL1       -0.5430
     18 O          -8.4375  -19.1853   22.9250 O.3     1  UNL1       -0.4709
     19 C          -7.7222  -20.3618   22.3298 C.3     1  UNL1        0.2320
     20 C          -6.3693  -20.1808   21.7078 C.ar    1  UNL1        0.0212
     21 C          -5.3925  -19.2121   22.3057 C.ar    1  UNL1       -0.0007
     22 C          -4.0395  -19.0311   21.6837 C.ar    1  UNL1       -0.0002
     23 C          -3.6635  -19.8188   20.4638 C.ar    1  UNL1       -0.0000
     24 C          -4.6403  -20.7875   19.8659 C.ar    1  UNL1       -0.0002
     25 C          -5.9932  -20.9685   20.4879 C.ar    1  UNL1       -0.0007
@<TRIPOS>UNITY_ATOM_ATTR
16 1
charge -1
@<TRIPOS>BOND
     1     9    10    1
     2    10    11   ar
     3    11    12   ar
     4    12    15    1
     5    15    16   ar
     6    15    17   ar
     7    12    13   ar
     8    13    14   ar
     9    14     8    1
    10     8     1    1
    11     1     2   ar
    12     2     3   ar
    13     3     4    1
    14     3     5   ar
    15     5     6   ar
    16     6     7   ar
    17     7    18    1
    18    18    19    1
    19    19    20    1
    20    20    21   ar
    21    21    22   ar
    22    22    23   ar
    23    23    24   ar
    24    24    25   ar
    25    14    10   ar
    26     7     1   ar
    27    25    20   ar
@<TRIPOS>MOLECULE
*****
 25 27 0 0 0
SMALL
GASTEIGER

@<TRIPOS>ATOM
      1 C          -9.0616  -17.0346   21.8847 C.ar    1  UNL1        0.0366
      2 C         -10.4928  -16.9029   22.3140 C.ar    1  UNL1        0.0074
      3 C         -11.4830  -17.9729   21.9614 C.ar    1  UNL1        0.0345
      4 BR        -12.9143  -17.8412   22.3907 Br      1  UNL1       -0.0490
      5 C         -11.0421  -19.1747   21.1796 C.ar    1  UNL1        0.0098
      6 C          -9.6110  -19.3065   20.7503 C.ar    1  UNL1        0.0372
      7 C          -8.6207  -18.2364   21.1028 C.ar    1  UNL1        0.1369
      8 C          -8.0713  -15.9645   22.2372 C.3     1  UNL1        0.1564
      9 C          -5.0587  -15.3360   23.3229 C.3     1  UNL1        0.0518
     10 C          -6.2920  -15.4609   24.1675 C.ar    1  UNL1        0.0579
     11 C          -6.3571  -15.3189   25.6593 C.ar    1  UNL1        0.0363
     12 C          -7.7821  -15.5201   26.0823 C.ar    1  UNL1        0.1160
     13 N          -8.5977  -15.7864   24.8519 N.ar    1  UNL1       -0.1681
     14 N          -7.6767  -15.7499   23.6684 N.ar    1  UNL1       -0.2503
     15 C          -8.3006  -15.4646   27.4888 C.2     1  UNL1        0.0922
     16 O          -8.8082  -16.7112   28.1506 O.co2   1  UNL1       -0.5430
     17 O          -8.3113  -14.1625   28.2332 O.co2   1  UNL1       -0.5430
     18 O          -7.1894  -18.3681   20.6735 O.3     1  UNL1       -0.4709
     19 C          -6.1980  -19.0515   21.5680 C.3     1  UNL1        0.2320
     20 C          -4.7383  -19.0309   21.2235 C.ar    1  UNL1        0.0212
     21 C          -3.7100  -19.0215   22.3155 C.ar    1  UNL1       -0.0007
     22 C          -2.2502  -19.0009   21.9709 C.ar    1  UNL1       -0.0002
     23 C          -1.8188  -18.9899   20.5344 C.ar    1  UNL1       -0.0000
     24 C          -2.8471  -18.9994   19.4424 C.ar    1  UNL1       -0.0002
     25 C          -4.3068  -19.0199   19.7869 C.ar    1  UNL1       -0.0007
@<TRIPOS>UNITY_ATOM_ATTR
16 1
charge -1
@<TRIPOS>BOND
     1     9    10    1
     2    10    11   ar
     3    11    12   ar
     4    12    15    1
     5    15    16   ar
     6    15    17   ar
     7    12    13   ar
     8    13    14   ar
     9    14     8    1
    10     8     1    1
    11     1     2   ar
    12     2     3   ar
    13     3     4    1
    14     3     5   ar
    15     5     6   ar
    16     6     7   ar
    17     7    18    1
    18    18    19    1
    19    19    20    1
    20    20    21   ar
    21    21    22   ar
    22    22    23   ar
    23    23    24   ar
    24    24    25   ar
    25    14    10   ar
    26     7     1   ar
    27    25    20   ar
@<TRIPOS>MOLECULE
*****
 25 27 0 0 0
SMALL
GASTEIGER

@<TRIPOS>ATOM
      1 C          -7.0888  -16.3170   24.0766 C.ar    1  UNL1        0.0366
      2 C          -8.0200  -16.0462   25.2209 C.ar    1  UNL1        0.0074
      3 C          -7.4934  -15.4452   26.4903 C.ar    1  UNL1        0.0345
      4 BR         -8.4246  -15.1743   27.6347 Br      1  UNL1       -0.0490
      5 C          -6.0355  -15.1150   26.6154 C.ar    1  UNL1        0.0098
      6 C          -5.1043  -15.3858   25.4711 C.ar    1  UNL1        0.0372
      7 C          -5.6310  -15.9868   24.2017 C.ar    1  UNL1        0.1369
      8 C          -7.6155  -16.9181   22.8072 C.3     1  UNL1        0.1564
      9 C          -8.9004  -14.6100   20.8911 C.3     1  UNL1        0.0518
     10 C          -9.6565  -15.7115   21.5730 C.ar    1  UNL1        0.0579
     11 C         -11.1361  -15.9454   21.4938 C.ar    1  UNL1        0.0363
     12 C         -11.4599  -17.1509   22.3256 C.ar    1  UNL1        0.1160
     13 N         -10.1805  -17.6620   22.9188 N.ar    1  UNL1       -0.1681
     14 N          -9.0659  -16.7724   22.4537 N.ar    1  UNL1       -0.2503
     15 C         -12.8236  -17.7416   22.5286 C.2     1  UNL1        0.0922
     16 O         -13.2684  -18.1471   23.9025 O.co2   1  UNL1       -0.5430
     17 O         -13.7426  -17.9267   21.3575 O.co2   1  UNL1       -0.5430
     18 O          -4.6998  -16.2576   23.0573 O.3     1  UNL1       -0.4709
     19 C          -3.4699  -17.0892   23.2718 C.3     1  UNL1        0.2320
     20 C          -2.6192  -17.4856   22.1018 C.ar    1  UNL1        0.0212
     21 C          -2.6852  -18.8853   21.5664 C.ar    1  UNL1       -0.0007
     22 C          -1.8344  -19.2817   20.3964 C.ar    1  UNL1       -0.0002
     23 C          -0.9175  -18.2784   19.7617 C.ar    1  UNL1       -0.0000
     24 C          -0.8515  -16.8788   20.2970 C.ar    1  UNL1       -0.0002
     25 C          -1.7023  -16.4824   21.4670 C.ar    1  UNL1       -0.0007
@<TRIPOS>UNITY_ATOM_ATTR
16 1
charge -1
@<TRIPOS>BOND
     1     9    10    1
     2    10    11   ar
     3    11    12   ar
     4    12    15    1
     5    15    16   ar
     6    15    17   ar
     7    12    13   ar
     8    13    14   ar
     9    14     8    1
    10     8     1    1
    11     1     2   ar
    12     2     3   ar
    13     3     4    1
    14     3     5   ar
    15     5     6   ar
    16     6     7   ar
    17     7    18    1
    18    18    19    1
    19    19    20    1
    20    20    21   ar
    21    21    22   ar
    22    22    23   ar
    23    23    24   ar
    24    24    25   ar
    25    14    10   ar
    26     7     1   ar
    27    25    20   ar
