@<TRIPOS>MOLECULE
*****
 43 49 0 0 0
SMALL
GASTEIGER

@<TRIPOS>ATOM
      1 N           3.2025    0.1944   31.5604 N.am    1  UNL1       -0.2222
      2 C           2.5216    0.3184   30.2295 C.2     1  UNL1        0.3219
      3 O           2.8058   -0.5119   29.0130 O.2     1  UNL1       -0.2512
      4 N           1.5067    1.4185   30.3288 N.am    1  UNL1       -0.1907
      5 C           1.5603    1.9744   31.7209 C.2     1  UNL1        0.2529
      6 O           0.7145    3.0908   32.2577 O.2     1  UNL1       -0.2724
      7 C           2.6084    1.2179   32.4822 C.3     1  UNL1        0.1391
      8 C           3.6803    0.3787   33.1120 C.3     1  UNL1        0.0449
      9 C           4.0664    0.6058   34.5435 C.3     1  UNL1        0.0746
     10 N           3.3806    1.6720   35.3452 N.3     1  UNL1       -0.2676
     11 C           2.3086    2.5112   34.7154 C.3     1  UNL1        0.0746
     12 C           1.9225    2.2841   33.2839 C.3     1  UNL1        0.0449
     13 C           6.7998   -1.4416   31.9245 C.ar    1  UNL1        0.2293
     14 C           5.7153   -0.4655   31.5765 C.ar    1  UNL1        0.0924
     15 C           4.2870   -0.7816   31.9084 C.ar    1  UNL1        0.1453
     16 N           3.9433   -2.0738   32.5882 N.ar    1  UNL1       -0.2084
     17 C           5.0277   -3.0499   32.9362 C.ar    1  UNL1        0.2027
     18 N           6.4560   -2.7338   32.6044 N.ar    1  UNL1       -0.1892
     19 C           9.3364   -1.9228   32.2141 C.3     1  UNL1        0.2542
     20 O           8.2280   -1.1256   31.5927 O.3     1  UNL1       -0.4560
     21 C           0.5979    1.8814   29.2290 C.ar    1  UNL1        0.0622
     22 C           0.7248    3.2745   28.6876 C.ar    1  UNL1        0.0154
     23 C          -0.1841    3.7374   27.5877 C.ar    1  UNL1        0.0010
     24 C          -1.2200    2.8072   27.0294 C.ar    1  UNL1       -0.0035
     25 C          -1.3470    1.4141   27.5708 C.ar    1  UNL1        0.0010
     26 C          -0.4380    0.9513   28.6707 C.ar    1  UNL1        0.0154
     27 C          -2.1289    3.2702   25.9295 C.2     1  UNL1       -0.0161
     28 C          -1.6107    3.3846   24.5266 C.2     1  UNL1       -0.0023
     29 C          -2.5196    3.8476   23.4267 C.2     1  UNL1        0.0201
     30 C          -3.9468    4.1960   23.7300 C.2     1  UNL1        0.0969
     31 N          -5.0693    4.6768   22.8590 N.2     1  UNL1       -0.2228
     32 C          -6.2814    4.8595   23.7237 C.2     1  UNL1        0.1986
     33 N          -5.9079    4.4916   25.1290 N.2     1  UNL1       -0.2265
     34 C          -4.4650    4.0815   25.1330 C.2     1  UNL1        0.0827
     35 C          -3.5561    3.6186   26.2327 C.3     1  UNL1        0.0737
     36 C           3.7667    1.8991   36.7768 C.3     1  UNL1        0.1183
     37 C           2.7387    1.7662   37.8610 C.ar    1  UNL1        0.0712
     38 N           2.4369    0.4189   38.4474 N.ar    1  UNL1       -0.2471
     39 C           1.4089    0.2861   39.5316 C.ar    1  UNL1        0.0985
     40 C           0.6827    1.5004   40.0295 C.ar    1  UNL1        0.0203
     41 C           0.9845    2.8477   39.4432 C.ar    1  UNL1       -0.0015
     42 C           2.0125    2.9806   38.3590 C.ar    1  UNL1       -0.0069
     43 C           2.3143    4.3279   37.7726 C.3     1  UNL1        0.0323
@<TRIPOS>BOND
     1    19    20    1
     2    20    13    1
     3    13    14   ar
     4    14    15   ar
     5    15     1    1
     6     1     2   am
     7     2     3    2
     8     2     4   am
     9     4    21    1
    10    21    22   ar
    11    22    23   ar
    12    23    24   ar
    13    24    27    1
    14    27    28    2
    15    28    29    1
    16    29    30    2
    17    30    31    1
    18    31    32    2
    19    32    33    1
    20    33    34    2
    21    34    35    1
    22    24    25   ar
    23    25    26   ar
    24     4     5   am
    25     5     6    2
    26     5     7    1
    27     7     8    1
    28     8     9    1
    29     9    10    1
    30    10    36    1
    31    36    37    1
    32    37    38   ar
    33    38    39   ar
    34    39    40   ar
    35    40    41   ar
    36    41    42   ar
    37    42    43    1
    38    10    11    1
    39    11    12    1
    40    15    16   ar
    41    16    17   ar
    42    17    18   ar
    43    18    13   ar
    44     7     1    1
    45    42    37   ar
    46    26    21   ar
    47    12     7    1
    48    35    27    1
    49    34    30    1
@<TRIPOS>MOLECULE
*****
 43 49 0 0 0
SMALL
GASTEIGER

@<TRIPOS>ATOM
      1 N           2.8895    0.8698   31.4948 N.am    1  UNL1       -0.2222
      2 C           2.3372    0.8294   30.1007 C.2     1  UNL1        0.3219
      3 O           2.7341   -0.1352   29.0227 O.2     1  UNL1       -0.2512
      4 N           1.3183    1.9230   29.9739 N.am    1  UNL1       -0.1907
      5 C           1.2409    2.6392   31.2896 C.2     1  UNL1        0.2529
      6 O           0.3491    3.8021   31.6093 O.2     1  UNL1       -0.2724
      7 C           2.2120    1.9883   32.2296 C.3     1  UNL1        0.1391
      8 C           3.2191    1.2402   33.0516 C.3     1  UNL1        0.0449
      9 C           3.4688    1.6380   34.4762 C.3     1  UNL1        0.0746
     10 N           2.7113    2.7839   35.0787 N.3     1  UNL1       -0.2676
     11 C           1.7041    3.5320   34.2566 C.3     1  UNL1        0.0746
     12 C           1.4544    3.1342   32.8321 C.3     1  UNL1        0.0449
     13 C           6.4271   -0.5650   32.5793 C.ar    1  UNL1        0.2293
     14 C           5.3810    0.3521   32.0185 C.ar    1  UNL1        0.0924
     15 C           3.9356   -0.0473   32.0556 C.ar    1  UNL1        0.1453
     16 N           3.5364   -1.3639   32.6534 N.ar    1  UNL1       -0.2084
     17 C           4.5825   -2.2810   33.2142 C.ar    1  UNL1        0.2027
     18 N           6.0279   -1.8815   33.1771 N.ar    1  UNL1       -0.1892
     19 C           8.8419   -0.7674   33.5160 C.3     1  UNL1        0.2542
     20 O           7.8725   -0.1657   32.5423 O.3     1  UNL1       -0.4560
     21 C           0.5175    2.2439   28.7469 C.ar    1  UNL1        0.0622
     22 C          -0.1699    1.1454   27.9914 C.ar    1  UNL1        0.0154
     23 C          -0.9708    1.4664   26.7643 C.ar    1  UNL1        0.0010
     24 C          -1.0843    2.8859   26.2929 C.ar    1  UNL1       -0.0035
     25 C          -0.3969    3.9844   27.0484 C.ar    1  UNL1        0.0010
     26 C           0.4040    3.6633   28.2754 C.ar    1  UNL1        0.0154
     27 C          -1.8851    3.2068   25.0658 C.2     1  UNL1       -0.0161
     28 C          -1.1989    3.3579   23.7406 C.2     1  UNL1       -0.0023
     29 C          -1.9998    3.6789   22.5135 C.2     1  UNL1        0.0201
     30 C          -3.4869    3.8488   22.6119 C.2     1  UNL1        0.0969
     31 N          -4.5311    4.1650   21.5825 N.2     1  UNL1       -0.2228
     32 C          -5.8628    4.2094   22.2715 C.2     1  UNL1        0.1986
     33 N          -5.6416    3.9206   23.7267 N.2     1  UNL1       -0.2265
     34 C          -4.1731    3.6977   23.9371 C.2     1  UNL1        0.0827
     35 C          -3.3723    3.3768   25.1641 C.3     1  UNL1        0.0737
     36 C           2.9610    3.1817   36.5033 C.3     1  UNL1        0.1183
     37 C           2.1980    2.5191   37.6117 C.ar    1  UNL1        0.0712
     38 N           0.9207    3.1269   38.1109 N.ar    1  UNL1       -0.2471
     39 C           0.1577    2.4642   39.2194 C.ar    1  UNL1        0.0985
     40 C           0.6719    1.1937   39.8287 C.ar    1  UNL1        0.0203
     41 C           1.9492    0.5859   39.3296 C.ar    1  UNL1       -0.0015
     42 C           2.7122    1.2485   38.2211 C.ar    1  UNL1       -0.0069
     43 C           3.9894    0.6406   37.7220 C.3     1  UNL1        0.0323
@<TRIPOS>BOND
     1    19    20    1
     2    20    13    1
     3    13    14   ar
     4    14    15   ar
     5    15     1    1
     6     1     2   am
     7     2     3    2
     8     2     4   am
     9     4    21    1
    10    21    22   ar
    11    22    23   ar
    12    23    24   ar
    13    24    27    1
    14    27    28    2
    15    28    29    1
    16    29    30    2
    17    30    31    1
    18    31    32    2
    19    32    33    1
    20    33    34    2
    21    34    35    1
    22    24    25   ar
    23    25    26   ar
    24     4     5   am
    25     5     6    2
    26     5     7    1
    27     7     8    1
    28     8     9    1
    29     9    10    1
    30    10    36    1
    31    36    37    1
    32    37    38   ar
    33    38    39   ar
    34    39    40   ar
    35    40    41   ar
    36    41    42   ar
    37    42    43    1
    38    10    11    1
    39    11    12    1
    40    15    16   ar
    41    16    17   ar
    42    17    18   ar
    43    18    13   ar
    44     7     1    1
    45    42    37   ar
    46    26    21   ar
    47    12     7    1
    48    35    27    1
    49    34    30    1
@<TRIPOS>MOLECULE
*****
 43 49 0 0 0
SMALL
GASTEIGER

@<TRIPOS>ATOM
      1 N           3.5339   -1.2800   21.7317 N.am    1  UNL1       -0.2222
      2 C           2.3203   -0.4001   21.7890 C.2     1  UNL1        0.3219
      3 O           1.4191   -0.0650   20.6377 O.2     1  UNL1       -0.2512
      4 N           2.1663    0.0858   23.1998 N.am    1  UNL1       -0.1907
      5 C           3.2846   -0.4937   24.0143 C.2     1  UNL1        0.2529
      6 O           3.5169   -0.2688   25.4790 O.2     1  UNL1       -0.2724
      7 C           4.1299   -1.3379   23.1070 C.3     1  UNL1        0.1391
      8 C           4.8762   -2.1422   22.0843 C.3     1  UNL1        0.0449
      9 C           6.1021   -2.9095   22.4825 C.3     1  UNL1        0.0746
     10 N           6.5816   -2.8723   23.9033 N.3     1  UNL1       -0.2676
     11 C           5.8353   -2.0679   24.9259 C.3     1  UNL1        0.0746
     12 C           4.6094   -1.3007   24.5278 C.3     1  UNL1        0.0449
     13 C           5.5538   -1.9791   18.3879 C.ar    1  UNL1        0.2293
     14 C           5.0284   -1.2799   19.6065 C.ar    1  UNL1        0.0924
     15 C           4.0592   -1.9791   20.5130 C.ar    1  UNL1        0.1453
     16 N           3.6154   -3.3775   20.2008 N.ar    1  UNL1       -0.2084
     17 C           4.1406   -4.0768   18.9822 C.ar    1  UNL1        0.2027
     18 N           5.1099   -3.3775   18.0757 N.ar    1  UNL1       -0.1892
     19 C           6.3115    0.1620   17.1266 C.3     1  UNL1        0.2542
     20 O           6.5230   -1.2800   17.4814 O.3     1  UNL1       -0.4560
     21 C           1.0840    0.9921   23.7069 C.ar    1  UNL1        0.0622
     22 C           0.5358    0.8045   25.0904 C.ar    1  UNL1        0.0154
     23 C          -0.5465    1.7108   25.5976 C.ar    1  UNL1        0.0010
     24 C          -1.0806    2.8047   24.7211 C.ar    1  UNL1       -0.0035
     25 C          -0.5324    2.9923   23.3375 C.ar    1  UNL1        0.0010
     26 C           0.5499    2.0860   22.8305 C.ar    1  UNL1        0.0154
     27 C          -2.1630    3.7110   25.2283 C.2     1  UNL1       -0.0161
     28 C          -1.8497    4.7433   26.2704 C.2     1  UNL1       -0.0023
     29 C          -2.9320    5.6497   26.7776 C.2     1  UNL1        0.0201
     30 C          -4.3276    5.5236   26.2424 C.2     1  UNL1        0.0969
     31 N          -5.5914    6.2711   26.5492 N.2     1  UNL1       -0.2228
     32 C          -6.6859    5.7007   25.6966 C.2     1  UNL1        0.1986
     33 N          -6.0985    4.6007   24.8629 N.2     1  UNL1       -0.2265
     34 C          -4.6409    4.4913   25.2003 C.2     1  UNL1        0.0827
     35 C          -3.5587    3.5850   24.6932 C.3     1  UNL1        0.0737
     36 C           7.8076   -3.6396   24.3014 C.3     1  UNL1        0.1183
     37 C           7.6740   -5.0069   24.9034 C.ar    1  UNL1        0.0712
     38 N           7.0444   -5.1732   26.2547 N.ar    1  UNL1       -0.2471
     39 C           6.9108   -6.5406   26.8568 C.ar    1  UNL1        0.0985
     40 C           7.4068   -7.7417   26.1075 C.ar    1  UNL1        0.0203
     41 C           8.0364   -7.5754   24.7562 C.ar    1  UNL1       -0.0015
     42 C           8.1700   -6.2081   24.1542 C.ar    1  UNL1       -0.0069
     43 C           8.7995   -6.0418   22.8029 C.3     1  UNL1        0.0323
@<TRIPOS>BOND
     1    19    20    1
     2    20    13    1
     3    13    14   ar
     4    14    15   ar
     5    15     1    1
     6     1     2   am
     7     2     3    2
     8     2     4   am
     9     4    21    1
    10    21    22   ar
    11    22    23   ar
    12    23    24   ar
    13    24    27    1
    14    27    28    2
    15    28    29    1
    16    29    30    2
    17    30    31    1
    18    31    32    2
    19    32    33    1
    20    33    34    2
    21    34    35    1
    22    24    25   ar
    23    25    26   ar
    24     4     5   am
    25     5     6    2
    26     5     7    1
    27     7     8    1
    28     8     9    1
    29     9    10    1
    30    10    36    1
    31    36    37    1
    32    37    38   ar
    33    38    39   ar
    34    39    40   ar
    35    40    41   ar
    36    41    42   ar
    37    42    43    1
    38    10    11    1
    39    11    12    1
    40    15    16   ar
    41    16    17   ar
    42    17    18   ar
    43    18    13   ar
    44     7     1    1
    45    42    37   ar
    46    26    21   ar
    47    12     7    1
    48    35    27    1
    49    34    30    1
@<TRIPOS>MOLECULE
*****
 43 49 0 0 0
SMALL
GASTEIGER

@<TRIPOS>ATOM
      1 N           1.5783    1.8174   24.2856 N.am    1  UNL1       -0.2222
      2 C           1.6983    1.9770   25.7723 C.2     1  UNL1        0.3219
      3 O           1.1272    3.0991   26.5876 O.2     1  UNL1       -0.2512
      4 N           2.4896    0.8173   26.3006 N.am    1  UNL1       -0.1907
      5 C           2.8587   -0.0589   25.1404 C.2     1  UNL1        0.2529
      6 O           3.6517   -1.3301   25.2128 O.2     1  UNL1       -0.2724
      7 C           2.2954    0.5591   23.8951 C.3     1  UNL1        0.1391
      8 C           1.6756    1.2911   22.7418 C.3     1  UNL1        0.0449
      9 C           1.8066    0.7466   21.3504 C.3     1  UNL1        0.0746
     10 N           2.5573   -0.5300   21.1121 N.3     1  UNL1       -0.2676
     11 C           3.1772   -1.2620   22.2653 C.3     1  UNL1        0.0746
     12 C           3.0462   -0.7174   23.6568 C.3     1  UNL1        0.0449
     13 C          -1.2983    3.4748   22.1112 C.ar    1  UNL1        0.2293
     14 C          -0.5862    2.5402   23.0436 C.ar    1  UNL1        0.0924
     15 C           0.8662    2.7520   23.3532 C.ar    1  UNL1        0.1453
     16 N           1.6064    3.8984   22.7304 N.ar    1  UNL1       -0.2084
     17 C           0.8943    4.8330   21.7980 C.ar    1  UNL1        0.2027
     18 N          -0.5581    4.6212   21.4884 N.ar    1  UNL1       -0.1892
     19 C          -3.2179    3.2402   20.3764 C.3     1  UNL1        0.2542
     20 O          -2.7506    3.2630   21.8015 O.3     1  UNL1       -0.4560
     21 C           2.8488    0.5762   27.7368 C.ar    1  UNL1        0.0622
     22 C           1.9941   -0.3196   28.5835 C.ar    1  UNL1        0.0154
     23 C           2.3534   -0.5607   30.0197 C.ar    1  UNL1        0.0010
     24 C           3.5673    0.0941   30.6093 C.ar    1  UNL1       -0.0035
     25 C           4.4220    0.9900   29.7626 C.ar    1  UNL1        0.0010
     26 C           4.0627    1.2310   28.3264 C.ar    1  UNL1        0.0154
     27 C           3.9265   -0.1470   32.0456 C.2     1  UNL1       -0.0161
     28 C           4.2852   -1.5283   32.5073 C.2     1  UNL1       -0.0023
     29 C           4.6444   -1.7694   33.9436 C.2     1  UNL1        0.0201
     30 C           4.6449   -0.6290   34.9181 C.2     1  UNL1        0.0969
     31 N           4.9533   -0.5622   36.3845 N.2     1  UNL1       -0.2228
     32 C           4.7852    0.8606   36.8292 C.2     1  UNL1        0.1986
     33 N           4.3729    1.6730   35.6375 N.2     1  UNL1       -0.2265
     34 C           4.2862    0.7523   34.4564 C.2     1  UNL1        0.0827
     35 C           3.9270    0.9934   33.0202 C.3     1  UNL1        0.0737
     36 C           2.6882   -1.0745   19.7205 C.3     1  UNL1        0.1183
     37 C           4.0420   -1.4192   19.1743 C.ar    1  UNL1        0.0712
     38 N           5.0360   -0.3319   18.8921 N.ar    1  UNL1       -0.2471
     39 C           6.3899   -0.6767   18.3458 C.ar    1  UNL1        0.0985
     40 C           6.7497   -2.1087   18.0819 C.ar    1  UNL1        0.0203
     41 C           5.7557   -3.1961   18.3641 C.ar    1  UNL1       -0.0015
     42 C           4.4019   -2.8514   18.9103 C.ar    1  UNL1       -0.0069
     43 C           3.4079   -3.9387   19.1926 C.3     1  UNL1        0.0323
@<TRIPOS>BOND
     1    19    20    1
     2    20    13    1
     3    13    14   ar
     4    14    15   ar
     5    15     1    1
     6     1     2   am
     7     2     3    2
     8     2     4   am
     9     4    21    1
    10    21    22   ar
    11    22    23   ar
    12    23    24   ar
    13    24    27    1
    14    27    28    2
    15    28    29    1
    16    29    30    2
    17    30    31    1
    18    31    32    2
    19    32    33    1
    20    33    34    2
    21    34    35    1
    22    24    25   ar
    23    25    26   ar
    24     4     5   am
    25     5     6    2
    26     5     7    1
    27     7     8    1
    28     8     9    1
    29     9    10    1
    30    10    36    1
    31    36    37    1
    32    37    38   ar
    33    38    39   ar
    34    39    40   ar
    35    40    41   ar
    36    41    42   ar
    37    42    43    1
    38    10    11    1
    39    11    12    1
    40    15    16   ar
    41    16    17   ar
    42    17    18   ar
    43    18    13   ar
    44     7     1    1
    45    42    37   ar
    46    26    21   ar
    47    12     7    1
    48    35    27    1
    49    34    30    1
@<TRIPOS>MOLECULE
*****
 43 49 0 0 0
SMALL
GASTEIGER

@<TRIPOS>ATOM
      1 N           3.3353   -0.4720   22.1229 N.am    1  UNL1       -0.2222
      2 C           2.0774    0.3432   22.1801 C.2     1  UNL1        0.3219
      3 O           1.2399    0.7557   21.0061 O.2     1  UNL1       -0.2512
      4 N           1.8040    0.6734   23.6176 N.am    1  UNL1       -0.1907
      5 C           2.8929    0.0623   24.4488 C.2     1  UNL1        0.2529
      6 O           3.0143    0.1446   25.9416 O.2     1  UNL1       -0.2724
      7 C           3.8394   -0.6456   23.5250 C.3     1  UNL1        0.1391
      8 C           4.6930   -1.3065   22.4836 C.3     1  UNL1        0.0449
      9 C           5.9267   -2.0563   22.8905 C.3     1  UNL1        0.0746
     10 N           6.3069   -2.1452   24.3388 N.3     1  UNL1       -0.2676
     11 C           5.4533   -1.4844   25.3802 C.3     1  UNL1        0.0746
     12 C           4.2195   -0.7346   24.9733 C.3     1  UNL1        0.0449
     13 C           4.1987   -2.9007   19.1053 C.ar    1  UNL1        0.2293
     14 C           3.5574   -2.3550   20.3467 C.ar    1  UNL1        0.0924
     15 C           3.9766   -1.0177   20.8816 C.ar    1  UNL1        0.1453
     16 N           5.0370   -0.2262   20.1751 N.ar    1  UNL1       -0.2084
     17 C           5.6782   -0.7719   18.9338 C.ar    1  UNL1        0.2027
     18 N           5.2591   -2.1092   18.3988 N.ar    1  UNL1       -0.1892
     19 C           4.6325   -5.4463   18.8201 C.3     1  UNL1        0.2542
     20 O           3.7796   -4.2379   18.5704 O.3     1  UNL1       -0.4560
     21 C           0.6453    1.4740   24.1333 C.ar    1  UNL1        0.0622
     22 C           0.0132    2.5225   23.2667 C.ar    1  UNL1        0.0154
     23 C          -1.1457    3.3232   23.7824 C.ar    1  UNL1        0.0010
     24 C          -1.6724    3.0754   25.1649 C.ar    1  UNL1       -0.0035
     25 C          -1.0403    2.0269   26.0316 C.ar    1  UNL1        0.0010
     26 C           0.1185    1.2262   25.5158 C.ar    1  UNL1        0.0154
     27 C          -2.8313    3.8761   25.6806 C.2     1  UNL1       -0.0161
     28 C          -4.2013    3.6683   25.1063 C.2     1  UNL1       -0.0023
     29 C          -5.3601    4.4690   25.6221 C.2     1  UNL1        0.0201
     30 C          -5.1488    5.4775   26.7122 C.2     1  UNL1        0.0969
     31 N          -6.0926    6.4067   27.4164 N.2     1  UNL1       -0.2228
     32 C          -5.3058    7.1889   28.4260 C.2     1  UNL1        0.1986
     33 N          -3.8758    6.7431   28.3457 N.2     1  UNL1       -0.2265
     34 C          -3.7788    5.6853   27.2865 C.2     1  UNL1        0.0827
     35 C          -2.6200    4.8847   26.7707 C.3     1  UNL1        0.0737
     36 C           7.5407   -2.8951   24.7456 C.3     1  UNL1        0.1183
     37 C           7.4403   -4.3301   25.1705 C.ar    1  UNL1        0.0712
     38 N           6.7896   -4.6823   26.4753 N.ar    1  UNL1       -0.2471
     39 C           6.6892   -6.1174   26.9001 C.ar    1  UNL1        0.0985
     40 C           7.2395   -7.2003   26.0201 C.ar    1  UNL1        0.0203
     41 C           7.8902   -6.8482   24.7153 C.ar    1  UNL1       -0.0015
     42 C           7.9906   -5.4131   24.2905 C.ar    1  UNL1       -0.0069
     43 C           8.6413   -5.0610   22.9856 C.3     1  UNL1        0.0323
@<TRIPOS>BOND
     1    19    20    1
     2    20    13    1
     3    13    14   ar
     4    14    15   ar
     5    15     1    1
     6     1     2   am
     7     2     3    2
     8     2     4   am
     9     4    21    1
    10    21    22   ar
    11    22    23   ar
    12    23    24   ar
    13    24    27    1
    14    27    28    2
    15    28    29    1
    16    29    30    2
    17    30    31    1
    18    31    32    2
    19    32    33    1
    20    33    34    2
    21    34    35    1
    22    24    25   ar
    23    25    26   ar
    24     4     5   am
    25     5     6    2
    26     5     7    1
    27     7     8    1
    28     8     9    1
    29     9    10    1
    30    10    36    1
    31    36    37    1
    32    37    38   ar
    33    38    39   ar
    34    39    40   ar
    35    40    41   ar
    36    41    42   ar
    37    42    43    1
    38    10    11    1
    39    11    12    1
    40    15    16   ar
    41    16    17   ar
    42    17    18   ar
    43    18    13   ar
    44     7     1    1
    45    42    37   ar
    46    26    21   ar
    47    12     7    1
    48    35    27    1
    49    34    30    1
@<TRIPOS>MOLECULE
*****
 43 49 0 0 0
SMALL
GASTEIGER

@<TRIPOS>ATOM
      1 N           5.6149   -0.4357   32.6826 N.am    1  UNL1       -0.2222
      2 C           6.0713    0.0056   34.0417 C.2     1  UNL1        0.3219
      3 O           7.3701   -0.3597   34.6973 O.2     1  UNL1       -0.2512
      4 N           5.0009    0.8763   34.6301 N.am    1  UNL1       -0.1907
      5 C           3.8829    0.9731   33.6347 C.2     1  UNL1        0.2529
      6 O           2.6091    1.7451   33.8117 O.2     1  UNL1       -0.2724
      7 C           4.2624    0.1622   32.4311 C.3     1  UNL1        0.1391
      8 C           4.7755   -0.6823   31.3027 C.3     1  UNL1        0.0449
      9 C           3.9478   -0.8634   30.0649 C.3     1  UNL1        0.0746
     10 N           2.6070   -0.2000   29.9556 N.3     1  UNL1       -0.2676
     11 C           2.0938    0.6446   31.0840 C.3     1  UNL1        0.0746
     12 C           2.9215    0.8257   32.3217 C.3     1  UNL1        0.0449
     13 C           6.9578   -3.6917   30.8537 C.ar    1  UNL1        0.2293
     14 C           6.1955   -2.8077   31.7958 C.ar    1  UNL1        0.0924
     15 C           6.3771   -1.3197   31.7406 C.ar    1  UNL1        0.1453
     16 N           7.3209   -0.7158   30.7433 N.ar    1  UNL1       -0.2084
     17 C           8.0832   -1.5997   29.8013 C.ar    1  UNL1        0.2027
     18 N           7.9016   -3.0877   29.8565 N.ar    1  UNL1       -0.1892
     19 C           7.4746   -6.0576   29.9131 C.3     1  UNL1        0.2542
     20 O           6.7763   -5.1796   30.9088 O.3     1  UNL1       -0.4560
     21 C           5.0413    1.5345   35.9773 C.ar    1  UNL1        0.0622
     22 C           4.2352    0.9731   37.1108 C.ar    1  UNL1        0.0154
     23 C           4.2756    1.6314   38.4581 C.ar    1  UNL1        0.0010
     24 C           5.1222    2.8511   38.6717 C.ar    1  UNL1       -0.0035
     25 C           5.9284    3.4126   37.5381 C.ar    1  UNL1        0.0010
     26 C           5.8879    2.7542   36.1909 C.ar    1  UNL1        0.0154
     27 C           5.1626    3.5094   40.0190 C.2     1  UNL1       -0.0161
     28 C           6.3441    3.3025   40.9197 C.2     1  UNL1       -0.0023
     29 C           6.3846    3.9608   42.2669 C.2     1  UNL1        0.0201
     30 C           5.2434    4.8260   42.7134 C.2     1  UNL1        0.0969
     31 N           5.0043    5.5986   43.9767 N.2     1  UNL1       -0.2228
     32 C           3.6748    6.2830   43.8567 C.2     1  UNL1        0.1986
     33 N           3.0925    5.9334   42.5194 N.2     1  UNL1       -0.2265
     34 C           4.0619    5.0329   41.8127 C.2     1  UNL1        0.0827
     35 C           4.0215    4.3747   40.4655 C.3     1  UNL1        0.0737
     36 C           1.7793   -0.3811   28.7177 C.3     1  UNL1        0.1183
     37 C           1.0199    0.7796   28.1468 C.ar    1  UNL1        0.0712
     38 N           1.7604    1.9562   27.5835 N.ar    1  UNL1       -0.2471
     39 C           1.0009    3.1170   27.0125 C.ar    1  UNL1        0.0985
     40 C          -0.4990    3.1011   27.0049 C.ar    1  UNL1        0.0203
     41 C          -1.2395    1.9245   27.5682 C.ar    1  UNL1       -0.0015
     42 C          -0.4801    0.7638   28.1392 C.ar    1  UNL1       -0.0069
     43 C          -1.2205   -0.4128   28.7025 C.3     1  UNL1        0.0323
@<TRIPOS>BOND
     1    19    20    1
     2    20    13    1
     3    13    14   ar
     4    14    15   ar
     5    15     1    1
     6     1     2   am
     7     2     3    2
     8     2     4   am
     9     4    21    1
    10    21    22   ar
    11    22    23   ar
    12    23    24   ar
    13    24    27    1
    14    27    28    2
    15    28    29    1
    16    29    30    2
    17    30    31    1
    18    31    32    2
    19    32    33    1
    20    33    34    2
    21    34    35    1
    22    24    25   ar
    23    25    26   ar
    24     4     5   am
    25     5     6    2
    26     5     7    1
    27     7     8    1
    28     8     9    1
    29     9    10    1
    30    10    36    1
    31    36    37    1
    32    37    38   ar
    33    38    39   ar
    34    39    40   ar
    35    40    41   ar
    36    41    42   ar
    37    42    43    1
    38    10    11    1
    39    11    12    1
    40    15    16   ar
    41    16    17   ar
    42    17    18   ar
    43    18    13   ar
    44     7     1    1
    45    42    37   ar
    46    26    21   ar
    47    12     7    1
    48    35    27    1
    49    34    30    1
@<TRIPOS>MOLECULE
*****
 43 49 0 0 0
SMALL
GASTEIGER

@<TRIPOS>ATOM
      1 N           4.2647   -0.0732   31.3502 N.am    1  UNL1       -0.2222
      2 C           3.5165    0.1501   30.0694 C.2     1  UNL1        0.3219
      3 O           3.8620   -0.4365   28.7328 O.2     1  UNL1       -0.2512
      4 N           2.3621    1.0629   30.3600 N.am    1  UNL1       -0.1907
      5 C           2.3969    1.4037   31.8203 C.2     1  UNL1        0.2529
      6 O           1.4264    2.2909   32.5420 O.2     1  UNL1       -0.2724
      7 C           3.5728    0.7016   32.4324 C.3     1  UNL1        0.1391
      8 C           4.7783   -0.0579   32.9012 C.3     1  UNL1        0.0449
      9 C           5.1899    0.0040   34.3423 C.3     1  UNL1        0.0746
     10 N           4.3961    0.8254   35.3145 N.3     1  UNL1       -0.2676
     11 C           3.1906    1.5849   34.8456 C.3     1  UNL1        0.0746
     12 C           2.7790    1.5230   33.4045 C.3     1  UNL1        0.0449
     13 C           6.5778   -3.2303   32.0073 C.ar    1  UNL1        0.2293
     14 C           5.3528   -2.3813   31.8383 C.ar    1  UNL1        0.0924
     15 C           5.4898   -0.9221   31.5192 C.ar    1  UNL1        0.1453
     16 N           6.8518   -0.3118   31.3691 N.ar    1  UNL1       -0.2084
     17 C           8.0768   -1.1607   31.5380 C.ar    1  UNL1        0.2027
     18 N           7.9398   -2.6200   31.8572 N.ar    1  UNL1       -0.1892
     19 C           7.1243   -5.7122   31.4678 C.3     1  UNL1        0.2542
     20 O           6.4410   -4.6895   32.3264 O.3     1  UNL1       -0.4560
     21 C           1.3507    1.5493   29.3650 C.ar    1  UNL1        0.0622
     22 C           1.4999    2.9078   28.7467 C.ar    1  UNL1        0.0154
     23 C           0.4884    3.3942   27.7517 C.ar    1  UNL1        0.0010
     24 C          -0.6724    2.5222   27.3748 C.ar    1  UNL1       -0.0035
     25 C          -0.8218    1.1636   27.9930 C.ar    1  UNL1        0.0010
     26 C           0.1898    0.6773   28.9881 C.ar    1  UNL1        0.0154
     27 C          -1.6840    3.0087   26.3797 C.2     1  UNL1       -0.0161
     28 C          -3.0437    3.4409   26.8427 C.2     1  UNL1       -0.0023
     29 C          -4.0553    3.9273   25.8476 C.2     1  UNL1        0.0201
     30 C          -3.7070    3.9815   24.3896 C.2     1  UNL1        0.0969
     31 N          -4.4914    4.4120   23.1857 N.2     1  UNL1       -0.2228
     32 C          -3.6165    4.2458   21.9786 C.2     1  UNL1        0.1986
     33 N          -2.2913    3.7127   22.4365 N.2     1  UNL1       -0.2265
     34 C          -2.3472    3.5493   23.9266 C.2     1  UNL1        0.0827
     35 C          -1.3357    3.0629   24.9216 C.3     1  UNL1        0.0737
     36 C           4.8078    0.8872   36.7556 C.3     1  UNL1        0.1183
     37 C           4.5505    2.1291   37.5565 C.ar    1  UNL1        0.0712
     38 N           5.4809    3.3003   37.4440 N.ar    1  UNL1       -0.2471
     39 C           5.2236    4.5423   38.2449 C.ar    1  UNL1        0.0985
     40 C           4.0358    4.6130   39.1582 C.ar    1  UNL1        0.0203
     41 C           3.1054    3.4419   39.2707 C.ar    1  UNL1       -0.0015
     42 C           3.3627    2.1999   38.4698 C.ar    1  UNL1       -0.0069
     43 C           2.4322    1.0288   38.5823 C.3     1  UNL1        0.0323
@<TRIPOS>BOND
     1    19    20    1
     2    20    13    1
     3    13    14   ar
     4    14    15   ar
     5    15     1    1
     6     1     2   am
     7     2     3    2
     8     2     4   am
     9     4    21    1
    10    21    22   ar
    11    22    23   ar
    12    23    24   ar
    13    24    27    1
    14    27    28    2
    15    28    29    1
    16    29    30    2
    17    30    31    1
    18    31    32    2
    19    32    33    1
    20    33    34    2
    21    34    35    1
    22    24    25   ar
    23    25    26   ar
    24     4     5   am
    25     5     6    2
    26     5     7    1
    27     7     8    1
    28     8     9    1
    29     9    10    1
    30    10    36    1
    31    36    37    1
    32    37    38   ar
    33    38    39   ar
    34    39    40   ar
    35    40    41   ar
    36    41    42   ar
    37    42    43    1
    38    10    11    1
    39    11    12    1
    40    15    16   ar
    41    16    17   ar
    42    17    18   ar
    43    18    13   ar
    44     7     1    1
    45    42    37   ar
    46    26    21   ar
    47    12     7    1
    48    35    27    1
    49    34    30    1
@<TRIPOS>MOLECULE
*****
 43 49 0 0 0
SMALL
GASTEIGER

@<TRIPOS>ATOM
      1 N           3.4933   -0.1265   30.5772 N.am    1  UNL1       -0.2222
      2 C           2.2384    0.6533   30.3175 C.2     1  UNL1        0.3219
      3 O           1.3534    1.2717   31.3588 O.2     1  UNL1       -0.2512
      4 N           2.0241    0.7059   28.8338 N.am    1  UNL1       -0.1907
      5 C           3.1464   -0.0412   28.1765 C.2     1  UNL1        0.2529
      6 O           3.3288   -0.2392   26.7009 O.2     1  UNL1       -0.2724
      7 C           4.0545   -0.5557   29.2540 C.3     1  UNL1        0.1391
      8 C           4.8650   -1.0027   30.4343 C.3     1  UNL1        0.0449
      9 C           6.1147   -1.8054   30.2252 C.3     1  UNL1        0.0746
     10 N           6.5540   -2.1611   28.8358 N.3     1  UNL1       -0.2676
     11 C           5.7435   -1.7142   27.6554 C.3     1  UNL1        0.0746
     12 C           4.4937   -0.9115   27.8645 C.3     1  UNL1        0.0449
     13 C           5.6141    0.2549   33.9098 C.ar    1  UNL1        0.2293
     14 C           5.0240    0.5530   32.5634 C.ar    1  UNL1        0.0924
     15 C           4.0834   -0.4246   31.9236 C.ar    1  UNL1        0.1453
     16 N           3.7328   -1.7005   32.6303 N.ar    1  UNL1       -0.2084
     17 C           4.3228   -1.9987   33.9767 C.ar    1  UNL1        0.2027
     18 N           5.2635   -1.0210   34.6165 N.ar    1  UNL1       -0.1892
     19 C           6.0138    2.4301   35.2730 C.3     1  UNL1        0.2542
     20 O           6.5547    1.2325   34.5497 O.3     1  UNL1       -0.4560
     21 C           0.8871    1.3863   28.1309 C.ar    1  UNL1        0.0622
     22 C           1.1590    2.5231   27.1909 C.ar    1  UNL1        0.0154
     23 C           0.0219    3.2035   26.4880 C.ar    1  UNL1        0.0010
     24 C          -1.3871    2.7471   26.7250 C.ar    1  UNL1       -0.0035
     25 C          -1.6592    1.6101   27.6650 C.ar    1  UNL1        0.0010
     26 C          -0.5220    0.9298   28.3679 C.ar    1  UNL1        0.0154
     27 C          -2.5242    3.4274   26.0221 C.2     1  UNL1       -0.0161
     28 C          -2.5563    3.4789   24.5233 C.2     1  UNL1       -0.0023
     29 C          -3.6934    4.1593   23.8204 C.2     1  UNL1        0.0201
     30 C          -4.7984    4.7882   24.6163 C.2     1  UNL1        0.0969
     31 N          -6.0394    5.5230   24.2041 N.2     1  UNL1       -0.2228
     32 C          -6.7744    5.9257   25.4482 C.2     1  UNL1        0.1986
     33 N          -5.9876    5.4398   26.6292 N.2     1  UNL1       -0.2265
     34 C          -4.7663    4.7367   26.1150 C.2     1  UNL1        0.0827
     35 C          -3.6293    4.0564   26.8180 C.3     1  UNL1        0.0737
     36 C           7.8038   -2.9639   28.6267 C.3     1  UNL1        0.1183
     37 C           7.8043   -4.1137   27.6634 C.ar    1  UNL1        0.0712
     38 N           8.2760   -3.9111   26.2540 N.ar    1  UNL1       -0.2471
     39 C           8.2765   -5.0609   25.2907 C.ar    1  UNL1        0.0985
     40 C           7.8054   -6.4133   25.7368 C.ar    1  UNL1        0.0203
     41 C           7.3337   -6.6159   27.1462 C.ar    1  UNL1       -0.0015
     42 C           7.3331   -5.4661   28.1095 C.ar    1  UNL1       -0.0069
     43 C           6.8614   -5.6687   29.5190 C.3     1  UNL1        0.0323
@<TRIPOS>BOND
     1    19    20    1
     2    20    13    1
     3    13    14   ar
     4    14    15   ar
     5    15     1    1
     6     1     2   am
     7     2     3    2
     8     2     4   am
     9     4    21    1
    10    21    22   ar
    11    22    23   ar
    12    23    24   ar
    13    24    27    1
    14    27    28    2
    15    28    29    1
    16    29    30    2
    17    30    31    1
    18    31    32    2
    19    32    33    1
    20    33    34    2
    21    34    35    1
    22    24    25   ar
    23    25    26   ar
    24     4     5   am
    25     5     6    2
    26     5     7    1
    27     7     8    1
    28     8     9    1
    29     9    10    1
    30    10    36    1
    31    36    37    1
    32    37    38   ar
    33    38    39   ar
    34    39    40   ar
    35    40    41   ar
    36    41    42   ar
    37    42    43    1
    38    10    11    1
    39    11    12    1
    40    15    16   ar
    41    16    17   ar
    42    17    18   ar
    43    18    13   ar
    44     7     1    1
    45    42    37   ar
    46    26    21   ar
    47    12     7    1
    48    35    27    1
    49    34    30    1
@<TRIPOS>MOLECULE
*****
 43 49 0 0 0
SMALL
GASTEIGER

@<TRIPOS>ATOM
      1 N           6.0749   -2.1474   26.0102 N.am    1  UNL1       -0.2222
      2 C           6.2181   -1.9633   27.4920 C.2     1  UNL1        0.3219
      3 O           7.3335   -2.4944   28.3427 O.2     1  UNL1       -0.2512
      4 N           5.0500   -1.1547   27.9737 N.am    1  UNL1       -0.1907
      5 C           4.1849   -0.8392   26.7896 C.2     1  UNL1        0.2529
      6 O           2.9103   -0.0489   26.8146 O.2     1  UNL1       -0.2724
      7 C           4.8183   -1.4527   25.5761 C.3     1  UNL1        0.1391
      8 C           5.5648   -2.1183   24.4582 C.3     1  UNL1        0.0449
      9 C           5.0347   -2.0492   23.0568 C.3     1  UNL1        0.0746
     10 N           3.7581   -1.3145   22.7732 N.3     1  UNL1       -0.2676
     11 C           3.0116   -0.6488   23.8910 C.3     1  UNL1        0.0746
     12 C           3.5417   -0.7179   25.2925 C.3     1  UNL1        0.0449
     13 C           7.8148   -5.1232   24.0438 C.ar    1  UNL1        0.2293
     14 C           6.8678   -4.3756   24.9350 C.ar    1  UNL1        0.0924
     15 C           7.0219   -2.8950   25.1190 C.ar    1  UNL1        0.1453
     16 N           8.1231   -2.1619   24.4119 N.ar    1  UNL1       -0.2084
     17 C           9.0702   -2.9094   23.5208 C.ar    1  UNL1        0.2027
     18 N           8.9160   -4.3902   23.3367 N.ar    1  UNL1       -0.1892
     19 C           8.0372   -7.5407   24.9691 C.3     1  UNL1        0.2542
     20 O           7.6608   -6.6039   23.8597 O.3     1  UNL1       -0.4560
     21 C           4.7924   -0.7354   29.3906 C.ar    1  UNL1        0.0622
     22 C           5.8903   -0.1106   30.1993 C.ar    1  UNL1        0.0154
     23 C           5.6326    0.3087   31.6163 C.ar    1  UNL1        0.0010
     24 C           4.2770    0.1033   32.2245 C.ar    1  UNL1       -0.0035
     25 C           3.1789   -0.5215   31.4157 C.ar    1  UNL1        0.0010
     26 C           3.4367   -0.9408   29.9988 C.ar    1  UNL1        0.0154
     27 C           4.0193    0.5226   33.6415 C.2     1  UNL1       -0.0161
     28 C           4.6571   -0.2271   34.7733 C.2     1  UNL1       -0.0023
     29 C           4.3994    0.1922   36.1903 C.2     1  UNL1        0.0201
     30 C           3.5038    1.3614   36.4753 C.2     1  UNL1        0.0969
     31 N           3.0677    2.0018   37.7597 N.2     1  UNL1       -0.2228
     32 C           2.1604    3.1475   37.4216 C.2     1  UNL1        0.1986
     33 N           2.0357    3.2150   35.9283 N.2     1  UNL1       -0.2265
     34 C           2.8660    2.1111   35.3434 C.2     1  UNL1        0.0827
     35 C           3.1237    1.6918   33.9266 C.3     1  UNL1        0.0737
     36 C           3.2279   -1.2454   21.3716 C.3     1  UNL1        0.1183
     37 C           4.1765   -1.2536   20.2097 C.ar    1  UNL1        0.0712
     38 N           4.9653   -0.0219   19.8768 N.ar    1  UNL1       -0.2471
     39 C           5.9139   -0.0301   18.7148 C.ar    1  UNL1        0.0985
     40 C           6.0738   -1.2699   17.8859 C.ar    1  UNL1        0.0203
     41 C           5.2850   -2.5016   18.2188 C.ar    1  UNL1       -0.0015
     42 C           4.3364   -2.4934   19.3807 C.ar    1  UNL1       -0.0069
     43 C           3.5477   -3.7251   19.7136 C.3     1  UNL1        0.0323
@<TRIPOS>BOND
     1    19    20    1
     2    20    13    1
     3    13    14   ar
     4    14    15   ar
     5    15     1    1
     6     1     2   am
     7     2     3    2
     8     2     4   am
     9     4    21    1
    10    21    22   ar
    11    22    23   ar
    12    23    24   ar
    13    24    27    1
    14    27    28    2
    15    28    29    1
    16    29    30    2
    17    30    31    1
    18    31    32    2
    19    32    33    1
    20    33    34    2
    21    34    35    1
    22    24    25   ar
    23    25    26   ar
    24     4     5   am
    25     5     6    2
    26     5     7    1
    27     7     8    1
    28     8     9    1
    29     9    10    1
    30    10    36    1
    31    36    37    1
    32    37    38   ar
    33    38    39   ar
    34    39    40   ar
    35    40    41   ar
    36    41    42   ar
    37    42    43    1
    38    10    11    1
    39    11    12    1
    40    15    16   ar
    41    16    17   ar
    42    17    18   ar
    43    18    13   ar
    44     7     1    1
    45    42    37   ar
    46    26    21   ar
    47    12     7    1
    48    35    27    1
    49    34    30    1
