@<TRIPOS>MOLECULE
*****
 30 33 0 0 0
SMALL
GASTEIGER

@<TRIPOS>ATOM
      1 C           3.2210   -0.8365   28.3457 C.ar    1  UNL1        0.0516
      2 C           1.7999   -0.5076   28.6955 C.ar    1  UNL1        0.0161
      3 C           1.5028    0.3943   29.8567 C.ar    1  UNL1        0.0212
      4 C           2.6269    0.9672   30.6680 C.ar    1  UNL1        0.1223
      5 C           4.0479    0.6383   30.3182 C.ar    1  UNL1        0.0212
      6 C           4.3450   -0.2636   29.1571 C.ar    1  UNL1        0.0161
      7 O           3.8313    0.3367   25.6529 O.2     1  UNL1       -0.2525
      8 C           3.8232   -1.1518   25.8380 C.2     1  UNL1        0.3047
      9 N           4.1202   -2.0536   24.6769 N.am    1  UNL1       -0.2845
     10 N           3.5180   -1.7384   27.1844 N.am    1  UNL1       -0.2683
     11 H           4.1149   -3.0306   24.7984 H       1  UNL1        0.1513
     12 H           3.5127   -2.7154   27.3060 H       1  UNL1        0.1564
     13 C           4.4253   -1.4670   23.3305 C.3     1  UNL1        0.1192
     14 C           4.1936   -2.2769   22.0894 C.ar    1  UNL1        0.0167
     15 C           3.5284   -1.6518   20.8991 C.ar    1  UNL1        0.0005
     16 C           3.2967   -2.4619   19.6581 C.ar    1  UNL1        0.0204
     17 C           3.7301   -3.8970   19.6073 C.ar    1  UNL1        0.0989
     18 N           4.3952   -4.5221   20.7976 N.ar    1  UNL1       -0.2426
     19 C           4.6270   -3.7121   22.0387 C.ar    1  UNL1        0.0962
     20 S           2.3298    1.8691   31.8292 S.O2    1  UNL1        0.0634
     21 O           3.7665    2.2985   31.8633 O.2     1  UNL1       -0.1528
     22 O           0.8930    1.4396   31.7951 O.2     1  UNL1       -0.1528
     23 N           2.0326    2.7710   32.9904 N.3     1  UNL1       -0.1506
     24 C           1.2713    4.0452   32.7748 C.3     1  UNL1        0.1253
     25 C           0.9742    4.9471   33.9360 C.3     1  UNL1        0.1329
     26 C           0.9102    5.5110   35.3245 C.3     1  UNL1        0.0336
     27 C           1.6178    4.5602   36.2439 C.3     1  UNL1        0.0336
     28 C           2.1191    3.4087   35.4237 C.3     1  UNL1        0.1329
     29 C           2.4969    2.3985   34.3673 C.3     1  UNL1        0.1253
     30 O           1.7213    3.6478   33.9973 O.3     1  UNL1       -0.3558
@<TRIPOS>BOND
     1     7     8    2
     2     8     9   am
     3     9    13    1
     4    13    14    1
     5    14    15   ar
     6    15    16   ar
     7    16    17   ar
     8    17    18   ar
     9    18    19   ar
    10     8    10   am
    11    10     1    1
    12     1     2   ar
    13     2     3   ar
    14     3     4   ar
    15     4    20    1
    16    20    21    2
    17    20    22    2
    18    20    23    1
    19    23    24    1
    20    24    25    1
    21    25    26    1
    22    26    27    1
    23    27    28    1
    24    28    29    1
    25    28    30    1
    26     4     5   ar
    27     5     6   ar
    28    19    14   ar
    29     6     1   ar
    30    29    23    1
    31    30    25    1
    32     9    11    1
    33    10    12    1
@<TRIPOS>MOLECULE
*****
 30 33 0 0 0
SMALL
GASTEIGER

@<TRIPOS>ATOM
      1 C           6.1020   -2.8431   32.4026 C.ar    1  UNL1        0.0516
      2 C           4.7221   -2.8114   32.9900 C.ar    1  UNL1        0.0161
      3 C           4.3573   -1.7559   33.9914 C.ar    1  UNL1        0.0212
      4 C           5.3724   -0.7321   34.4053 C.ar    1  UNL1        0.1223
      5 C           6.7522   -0.7638   33.8180 C.ar    1  UNL1        0.0212
      6 C           7.1170   -1.8193   32.8166 C.ar    1  UNL1        0.0161
      7 O           5.9659   -2.2373   29.4675 O.2     1  UNL1       -0.2525
      8 C           6.3987   -3.5958   29.9336 C.2     1  UNL1        0.3047
      9 N           6.7635   -4.6513   28.9323 N.am    1  UNL1       -0.2845
     10 N           6.4668   -3.8987   31.4012 N.am    1  UNL1       -0.2683
     11 H           7.0476   -5.5429   29.2383 H       1  UNL1        0.1513
     12 H           6.7509   -4.7903   31.7071 H       1  UNL1        0.1564
     13 C           6.6954   -4.3483   27.4648 C.3     1  UNL1        0.1192
     14 C           7.1422   -5.3741   26.4657 C.ar    1  UNL1        0.0167
     15 C           7.4393   -6.7753   26.9111 C.ar    1  UNL1        0.0005
     16 C           7.8861   -7.8011   25.9119 C.ar    1  UNL1        0.0204
     17 C           8.0359   -7.4256   24.4674 C.ar    1  UNL1        0.0989
     18 N           7.7388   -6.0244   24.0220 N.ar    1  UNL1       -0.2426
     19 C           7.2920   -4.9986   25.0211 C.ar    1  UNL1        0.0962
     20 S           5.0076    0.3234   35.4067 S.O2    1  UNL1        0.0634
     21 O           4.0920    0.9592   34.4031 O.2     1  UNL1       -0.1528
     22 O           5.9232   -0.3123   36.4104 O.2     1  UNL1       -0.1528
     23 N           4.6428    1.3790   36.4082 N.3     1  UNL1       -0.1506
     24 C           3.5721    1.1110   37.4240 C.3     1  UNL1        0.1253
     25 C           3.2074    2.1665   38.4254 C.3     1  UNL1        0.1329
     26 C           3.1774    3.4543   39.1940 C.3     1  UNL1        0.0336
     27 C           4.2031    4.3731   38.5992 C.3     1  UNL1        0.0336
     28 C           4.8669    3.6532   37.4630 C.3     1  UNL1        0.1329
     29 C           5.3486    2.7024   36.3938 C.3     1  UNL1        0.1253
     30 O           4.2516    2.2894   37.3556 O.3     1  UNL1       -0.3558
@<TRIPOS>BOND
     1     7     8    2
     2     8     9   am
     3     9    13    1
     4    13    14    1
     5    14    15   ar
     6    15    16   ar
     7    16    17   ar
     8    17    18   ar
     9    18    19   ar
    10     8    10   am
    11    10     1    1
    12     1     2   ar
    13     2     3   ar
    14     3     4   ar
    15     4    20    1
    16    20    21    2
    17    20    22    2
    18    20    23    1
    19    23    24    1
    20    24    25    1
    21    25    26    1
    22    26    27    1
    23    27    28    1
    24    28    29    1
    25    28    30    1
    26     4     5   ar
    27     5     6   ar
    28    19    14   ar
    29     6     1   ar
    30    29    23    1
    31    30    25    1
    32     9    11    1
    33    10    12    1
@<TRIPOS>MOLECULE
*****
 30 33 0 0 0
SMALL
GASTEIGER

@<TRIPOS>ATOM
      1 C           2.8811   -0.3852   18.8435 C.ar    1  UNL1        0.0516
      2 C           4.3274   -0.4239   18.4475 C.ar    1  UNL1        0.0161
      3 C           5.2815   -1.3211   19.1787 C.ar    1  UNL1        0.0212
      4 C           4.7892   -2.1796   20.3060 C.ar    1  UNL1        0.1223
      5 C           3.3430   -2.1408   20.7020 C.ar    1  UNL1        0.0212
      6 C           2.3889   -1.2436   19.9708 C.ar    1  UNL1        0.0161
      7 O           1.6205    1.9384   20.2621 O.2     1  UNL1       -0.2525
      8 C           1.2967    1.6739   18.8215 C.2     1  UNL1        0.3047
      9 N           0.3427    2.5711   18.0903 N.am    1  UNL1       -0.2845
     10 N           1.9270    0.5121   18.1122 N.am    1  UNL1       -0.2683
     11 H           0.1302    2.3975   17.1448 H       1  UNL1        0.1513
     12 H           1.7145    0.3385   17.1667 H       1  UNL1        0.1564
     13 C          -0.2875    3.7328   18.7996 C.3     1  UNL1        0.1192
     14 C          -1.7112    3.6454   19.2639 C.ar    1  UNL1        0.0167
     15 C          -2.8207    4.1240   18.3751 C.ar    1  UNL1        0.0005
     16 C          -4.2444    4.0365   18.8395 C.ar    1  UNL1        0.0204
     17 C          -4.5585    3.4704   20.1926 C.ar    1  UNL1        0.0989
     18 N          -3.4490    2.9918   21.0814 N.ar    1  UNL1       -0.2426
     19 C          -2.0253    3.0793   20.6171 C.ar    1  UNL1        0.0962
     20 S           5.7433   -3.0768   21.0372 S.O2    1  UNL1        0.0634
     21 O           4.8841   -4.2607   20.7056 O.2     1  UNL1       -0.1528
     22 O           6.6025   -1.8928   21.3689 O.2     1  UNL1       -0.1528
     23 N           6.6974   -3.9740   21.7685 N.3     1  UNL1       -0.1506
     24 C           6.5124   -4.2296   23.2349 C.3     1  UNL1        0.1253
     25 C           7.4665   -5.1267   23.9661 C.3     1  UNL1        0.1329
     26 C           8.6102   -6.0489   24.2688 C.3     1  UNL1        0.0336
     27 C           9.3748   -6.2717   22.9977 C.3     1  UNL1        0.0336
     28 C           8.7036   -5.4874   21.9094 C.3     1  UNL1        0.1329
     29 C           7.8367   -4.6156   21.0333 C.3     1  UNL1        0.1253
     30 O           7.5242   -4.7797   22.5080 O.3     1  UNL1       -0.3558
@<TRIPOS>BOND
     1     7     8    2
     2     8     9   am
     3     9    13    1
     4    13    14    1
     5    14    15   ar
     6    15    16   ar
     7    16    17   ar
     8    17    18   ar
     9    18    19   ar
    10     8    10   am
    11    10     1    1
    12     1     2   ar
    13     2     3   ar
    14     3     4   ar
    15     4    20    1
    16    20    21    2
    17    20    22    2
    18    20    23    1
    19    23    24    1
    20    24    25    1
    21    25    26    1
    22    26    27    1
    23    27    28    1
    24    28    29    1
    25    28    30    1
    26     4     5   ar
    27     5     6   ar
    28    19    14   ar
    29     6     1   ar
    30    29    23    1
    31    30    25    1
    32     9    11    1
    33    10    12    1
@<TRIPOS>MOLECULE
*****
 30 33 0 0 0
SMALL
GASTEIGER

@<TRIPOS>ATOM
      1 C          -0.4321    2.8560   21.4069 C.ar    1  UNL1        0.0516
      2 C          -1.6340    3.0158   20.5238 C.ar    1  UNL1        0.0161
      3 C          -2.9344    3.4861   21.1049 C.ar    1  UNL1        0.0212
      4 C          -3.0328    3.7967   22.5691 C.ar    1  UNL1        0.1223
      5 C          -1.8310    3.6370   23.4521 C.ar    1  UNL1        0.0212
      6 C          -0.5305    3.1666   22.8710 C.ar    1  UNL1        0.0161
      7 O          -0.0614   -0.0374   20.7063 O.2     1  UNL1       -0.2525
      8 C           1.0537    0.9389   20.4754 C.2     1  UNL1        0.3047
      9 N           2.3541    0.4686   19.8943 N.am    1  UNL1       -0.2845
     10 N           0.8684    2.3857   20.8257 N.am    1  UNL1       -0.2683
     11 H           3.0859    1.1095   19.7428 H       1  UNL1        0.1513
     12 H           1.6003    3.0265   20.6742 H       1  UNL1        0.1564
     13 C           2.5394   -0.9781   19.5441 C.3     1  UNL1        0.1192
     14 C           3.2742   -1.8888   20.4825 C.ar    1  UNL1        0.0167
     15 C           3.5218   -1.4641   21.8996 C.ar    1  UNL1        0.0005
     16 C           4.2567   -2.3749   22.8380 C.ar    1  UNL1        0.0204
     17 C           4.7439   -3.7103   22.3592 C.ar    1  UNL1        0.0989
     18 N           4.4963   -4.1350   20.9421 N.ar    1  UNL1       -0.2426
     19 C           3.7615   -3.2243   20.0037 C.ar    1  UNL1        0.0962
     20 S          -4.3333    4.2670   23.1502 S.O2    1  UNL1        0.0634
     21 O          -4.6221    2.8756   23.6302 O.2     1  UNL1       -0.1528
     22 O          -4.0445    5.6585   22.6701 O.2     1  UNL1       -0.1528
     23 N          -5.6337    4.7374   23.7312 N.3     1  UNL1       -0.1506
     24 C          -5.6389    5.5926   24.9636 C.3     1  UNL1        0.1253
     25 C          -6.9393    6.0630   25.5446 C.3     1  UNL1        0.1329
     26 C          -8.4063    6.2891   25.7612 C.3     1  UNL1        0.0336
     27 C          -9.1511    5.5732   24.6736 C.3     1  UNL1        0.0336
     28 C          -8.1445    4.9046   23.7849 C.3     1  UNL1        0.1329
     29 C          -6.9290    4.3527   23.0799 C.3     1  UNL1        0.1253
     30 O          -6.7775    5.2073   24.3232 O.3     1  UNL1       -0.3558
@<TRIPOS>BOND
     1     7     8    2
     2     8     9   am
     3     9    13    1
     4    13    14    1
     5    14    15   ar
     6    15    16   ar
     7    16    17   ar
     8    17    18   ar
     9    18    19   ar
    10     8    10   am
    11    10     1    1
    12     1     2   ar
    13     2     3   ar
    14     3     4   ar
    15     4    20    1
    16    20    21    2
    17    20    22    2
    18    20    23    1
    19    23    24    1
    20    24    25    1
    21    25    26    1
    22    26    27    1
    23    27    28    1
    24    28    29    1
    25    28    30    1
    26     4     5   ar
    27     5     6   ar
    28    19    14   ar
    29     6     1   ar
    30    29    23    1
    31    30    25    1
    32     9    11    1
    33    10    12    1
@<TRIPOS>MOLECULE
*****
 30 33 0 0 0
SMALL
GASTEIGER

@<TRIPOS>ATOM
      1 C         -15.7520   -0.2624   18.9284 C.ar    1  UNL1        0.0516
      2 C         -15.6453   -1.2512   20.0513 C.ar    1  UNL1        0.0161
      3 C         -14.7206   -2.4261   19.9308 C.ar    1  UNL1        0.0212
      4 C         -13.9026   -2.6121   18.6873 C.ar    1  UNL1        0.1223
      5 C         -14.0093   -1.6234   17.5644 C.ar    1  UNL1        0.0212
      6 C         -14.9340   -0.4485   17.6850 C.ar    1  UNL1        0.0161
      7 O         -14.6408    2.4725   19.4633 O.2     1  UNL1       -0.2525
      8 C         -16.1211    2.2800   19.3165 C.2     1  UNL1        0.3047
      9 N         -17.0458    3.4548   19.4371 N.am    1  UNL1       -0.2845
     10 N         -16.6767    0.9126   19.0490 N.am    1  UNL1       -0.2683
     11 H         -18.0174    3.3284   19.3407 H       1  UNL1        0.1513
     12 H         -17.6483    0.7862   18.9527 H       1  UNL1        0.1564
     13 C         -16.4901    4.8222   19.7045 C.3     1  UNL1        0.1192
     14 C         -15.6128    5.0549   20.8987 C.ar    1  UNL1        0.0167
     15 C         -16.0081    4.5072   22.2380 C.ar    1  UNL1        0.0005
     16 C         -15.1307    4.7399   23.4322 C.ar    1  UNL1        0.0204
     17 C         -13.8579    5.5203   23.2870 C.ar    1  UNL1        0.0989
     18 N         -13.4626    6.0680   21.9477 N.ar    1  UNL1       -0.2426
     19 C         -14.3399    5.8353   20.7535 C.ar    1  UNL1        0.0962
     20 S         -12.9779   -3.7870   18.5667 S.O2    1  UNL1        0.0634
     21 O         -12.4727   -3.2552   17.2584 O.2     1  UNL1       -0.1528
     22 O         -13.4830   -4.3188   19.8751 O.2     1  UNL1       -0.1528
     23 N         -12.0531   -4.9620   18.4462 N.3     1  UNL1       -0.1506
     24 C         -10.7179   -4.9387   19.1292 C.3     1  UNL1        0.1253
     25 C          -9.7932   -6.1136   19.0087 C.3     1  UNL1        0.1329
     26 C          -9.2253   -7.4490   18.6289 C.3     1  UNL1        0.0336
     27 C         -10.2333   -8.1542   17.7707 C.3     1  UNL1        0.0336
     28 C         -11.4242   -7.2547   17.6200 C.3     1  UNL1        0.1329
     29 C         -12.4637   -6.1602   17.6427 C.3     1  UNL1        0.1253
     30 O         -11.1522   -5.9935   18.3852 O.3     1  UNL1       -0.3558
@<TRIPOS>BOND
     1     7     8    2
     2     8     9   am
     3     9    13    1
     4    13    14    1
     5    14    15   ar
     6    15    16   ar
     7    16    17   ar
     8    17    18   ar
     9    18    19   ar
    10     8    10   am
    11    10     1    1
    12     1     2   ar
    13     2     3   ar
    14     3     4   ar
    15     4    20    1
    16    20    21    2
    17    20    22    2
    18    20    23    1
    19    23    24    1
    20    24    25    1
    21    25    26    1
    22    26    27    1
    23    27    28    1
    24    28    29    1
    25    28    30    1
    26     4     5   ar
    27     5     6   ar
    28    19    14   ar
    29     6     1   ar
    30    29    23    1
    31    30    25    1
    32     9    11    1
    33    10    12    1
@<TRIPOS>MOLECULE
*****
 30 33 0 0 0
SMALL
GASTEIGER

@<TRIPOS>ATOM
      1 C          -1.2928    4.0487   19.8190 C.ar    1  UNL1        0.0516
      2 C          -0.6778    3.8079   18.4722 C.ar    1  UNL1        0.0161
      3 C           0.3134    2.6972   18.2880 C.ar    1  UNL1        0.0212
      4 C           0.6897    1.8274   19.4508 C.ar    1  UNL1        0.1223
      5 C           0.0748    2.0682   20.7975 C.ar    1  UNL1        0.0212
      6 C          -0.9165    3.1788   20.9816 C.ar    1  UNL1        0.0161
      7 O          -4.2329    3.4522   19.8093 O.2     1  UNL1       -0.2525
      8 C          -3.7541    4.8611   19.9982 C.2     1  UNL1        0.3047
      9 N          -4.7453    5.9717   20.1823 N.am    1  UNL1       -0.2845
     10 N          -2.2841    5.1594   20.0031 N.am    1  UNL1       -0.2683
     11 H          -4.4310    6.8964   20.3063 H       1  UNL1        0.1513
     12 H          -1.9698    6.0841   20.1271 H       1  UNL1        0.1564
     13 C          -6.2153    5.6734   20.1775 C.3     1  UNL1        0.1192
     14 C          -6.9811    5.6546   21.4671 C.ar    1  UNL1        0.0167
     15 C          -6.9272    4.4459   22.3539 C.ar    1  UNL1        0.0005
     16 C          -7.6930    4.4272   23.6436 C.ar    1  UNL1        0.0204
     17 C          -8.5126    5.6171   24.0465 C.ar    1  UNL1        0.0989
     18 N          -8.5665    6.8258   23.1598 N.ar    1  UNL1       -0.2426
     19 C          -7.8007    6.8446   21.8702 C.ar    1  UNL1        0.0962
     20 S           1.6809    0.7168   19.2666 S.O2    1  UNL1        0.0634
     21 O           2.4051    1.1578   20.5039 O.2     1  UNL1       -0.1528
     22 O           0.9568    0.2757   18.0293 O.2     1  UNL1       -0.1528
     23 N           2.6722   -0.3939   19.0824 N.3     1  UNL1       -0.1506
     24 C           2.6177   -1.6025   19.9691 C.3     1  UNL1        0.1253
     25 C           3.6089   -2.7132   19.7848 C.3     1  UNL1        0.1329
     26 C           4.7479   -3.5364   19.2604 C.3     1  UNL1        0.0336
     27 C           5.3831   -2.7819   18.1302 C.3     1  UNL1        0.0336
     28 C           4.6367   -1.4925   17.9561 C.3     1  UNL1        0.1329
     29 C           3.7179   -0.2959   18.0115 C.3     1  UNL1        0.1253
     30 O           3.5402   -1.4500   18.9788 O.3     1  UNL1       -0.3558
@<TRIPOS>BOND
     1     7     8    2
     2     8     9   am
     3     9    13    1
     4    13    14    1
     5    14    15   ar
     6    15    16   ar
     7    16    17   ar
     8    17    18   ar
     9    18    19   ar
    10     8    10   am
    11    10     1    1
    12     1     2   ar
    13     2     3   ar
    14     3     4   ar
    15     4    20    1
    16    20    21    2
    17    20    22    2
    18    20    23    1
    19    23    24    1
    20    24    25    1
    21    25    26    1
    22    26    27    1
    23    27    28    1
    24    28    29    1
    25    28    30    1
    26     4     5   ar
    27     5     6   ar
    28    19    14   ar
    29     6     1   ar
    30    29    23    1
    31    30    25    1
    32     9    11    1
    33    10    12    1
@<TRIPOS>MOLECULE
*****
 30 33 0 0 0
SMALL
GASTEIGER

@<TRIPOS>ATOM
      1 C           7.0682   -1.4318   33.2205 C.ar    1  UNL1        0.0516
      2 C           8.3457   -1.5295   32.4405 C.ar    1  UNL1        0.0161
      3 C           8.4930   -2.5693   31.3696 C.ar    1  UNL1        0.0212
      4 C           7.3627   -3.5116   31.0787 C.ar    1  UNL1        0.1223
      5 C           6.0853   -3.4140   31.8587 C.ar    1  UNL1        0.0212
      6 C           5.9380   -2.3741   32.9296 C.ar    1  UNL1        0.0161
      7 O           4.6306    0.3155   33.2897 O.2     1  UNL1       -0.2525
      8 C           5.7021    0.4818   34.3261 C.2     1  UNL1        0.3047
      9 N           5.5549    1.5216   35.3970 N.am    1  UNL1       -0.2845
     10 N           6.9210   -0.3919   34.2915 N.am    1  UNL1       -0.2683
     11 H           6.2582    1.6307   36.0772 H       1  UNL1        0.1513
     12 H           7.6243   -0.2828   34.9717 H       1  UNL1        0.1564
     13 C           4.3361    2.3953   35.4315 C.3     1  UNL1        0.1192
     14 C           3.3741    2.2956   36.5781 C.ar    1  UNL1        0.0167
     15 C           3.5067    1.1815   37.5737 C.ar    1  UNL1        0.0005
     16 C           2.5446    1.0819   38.7203 C.ar    1  UNL1        0.0204
     17 C           1.4500    2.0963   38.8712 C.ar    1  UNL1        0.0989
     18 N           1.3174    3.2103   37.8756 N.ar    1  UNL1       -0.2426
     19 C           2.2794    3.3100   36.7290 C.ar    1  UNL1        0.0962
     20 S           7.5100   -4.5515   30.0078 S.O2    1  UNL1        0.0634
     21 O           8.2763   -3.5754   29.1652 O.2     1  UNL1       -0.1528
     22 O           6.7437   -5.5277   30.8502 O.2     1  UNL1       -0.1528
     23 N           7.6572   -5.5915   28.9368 N.3     1  UNL1       -0.1506
     24 C           6.7622   -5.5609   27.7335 C.3     1  UNL1        0.1253
     25 C           6.9095   -6.6008   26.6626 C.3     1  UNL1        0.1329
     26 C           7.3952   -7.7863   25.8824 C.3     1  UNL1        0.0336
     27 C           8.5137   -8.4220   26.6536 C.3     1  UNL1        0.0336
     28 C           8.7193   -7.6294   27.9104 C.3     1  UNL1        0.1329
     29 C           8.6996   -6.6620   29.0692 C.3     1  UNL1        0.1253
     30 O           7.7278   -6.5039   27.9160 O.3     1  UNL1       -0.3558
@<TRIPOS>BOND
     1     7     8    2
     2     8     9   am
     3     9    13    1
     4    13    14    1
     5    14    15   ar
     6    15    16   ar
     7    16    17   ar
     8    17    18   ar
     9    18    19   ar
    10     8    10   am
    11    10     1    1
    12     1     2   ar
    13     2     3   ar
    14     3     4   ar
    15     4    20    1
    16    20    21    2
    17    20    22    2
    18    20    23    1
    19    23    24    1
    20    24    25    1
    21    25    26    1
    22    26    27    1
    23    27    28    1
    24    28    29    1
    25    28    30    1
    26     4     5   ar
    27     5     6   ar
    28    19    14   ar
    29     6     1   ar
    30    29    23    1
    31    30    25    1
    32     9    11    1
    33    10    12    1
@<TRIPOS>MOLECULE
*****
 30 33 0 0 0
SMALL
GASTEIGER

@<TRIPOS>ATOM
      1 C           7.7338   -4.1319   30.9509 C.ar    1  UNL1        0.0516
      2 C           8.0940   -2.6768   30.8967 C.ar    1  UNL1        0.0161
      3 C           7.3705   -1.6921   31.7668 C.ar    1  UNL1        0.0212
      4 C           6.2869   -2.1627   32.6911 C.ar    1  UNL1        0.1223
      5 C           5.9267   -3.6177   32.7453 C.ar    1  UNL1        0.0212
      6 C           6.6501   -4.6024   31.8752 C.ar    1  UNL1        0.0161
      7 O           6.3275   -5.3886   28.6179 O.2     1  UNL1       -0.2525
      8 C           7.7541   -5.7449   28.9142 C.2     1  UNL1        0.3047
      9 N           8.4775   -6.7295   28.0442 N.am    1  UNL1       -0.2845
     10 N           8.4572   -5.1166   30.0808 N.am    1  UNL1       -0.2683
     11 H           9.4138   -6.9634   28.2387 H       1  UNL1        0.1513
     12 H           9.3936   -5.3504   30.2753 H       1  UNL1        0.1564
     13 C           7.7743   -7.3579   26.8777 C.3     1  UNL1        0.1192
     14 C           8.0696   -6.8902   25.4833 C.ar    1  UNL1        0.0167
     15 C           8.8864   -7.7470   24.5621 C.ar    1  UNL1        0.0005
     16 C           9.1816   -7.2793   23.1677 C.ar    1  UNL1        0.0204
     17 C           8.6601   -5.9549   22.6946 C.ar    1  UNL1        0.0989
     18 N           7.8433   -5.0981   23.6159 N.ar    1  UNL1       -0.2426
     19 C           7.5480   -5.5657   25.0102 C.ar    1  UNL1        0.0962
     20 S           5.5635   -1.1780   33.5612 S.O2    1  UNL1        0.0634
     21 O           4.4083   -2.1279   33.6759 O.2     1  UNL1       -0.1528
     22 O           6.7186   -0.2280   33.4466 O.2     1  UNL1       -0.1528
     23 N           4.8401   -0.1932   34.4313 N.3     1  UNL1       -0.1506
     24 C           3.9204    0.8186   33.8146 C.3     1  UNL1        0.1253
     25 C           3.1971    1.8033   34.6847 C.3     1  UNL1        0.1329
     26 C           2.7082    2.5544   35.8875 C.3     1  UNL1        0.0336
     27 C           3.3525    1.9545   37.1020 C.3     1  UNL1        0.0336
     28 C           4.2395    0.8326   36.6498 C.3     1  UNL1        0.1329
     29 C           5.0363   -0.2204   35.9182 C.3     1  UNL1        0.1253
     30 O           4.1435    0.7392   35.1558 O.3     1  UNL1       -0.3558
@<TRIPOS>BOND
     1     7     8    2
     2     8     9   am
     3     9    13    1
     4    13    14    1
     5    14    15   ar
     6    15    16   ar
     7    16    17   ar
     8    17    18   ar
     9    18    19   ar
    10     8    10   am
    11    10     1    1
    12     1     2   ar
    13     2     3   ar
    14     3     4   ar
    15     4    20    1
    16    20    21    2
    17    20    22    2
    18    20    23    1
    19    23    24    1
    20    24    25    1
    21    25    26    1
    22    26    27    1
    23    27    28    1
    24    28    29    1
    25    28    30    1
    26     4     5   ar
    27     5     6   ar
    28    19    14   ar
    29     6     1   ar
    30    29    23    1
    31    30    25    1
    32     9    11    1
    33    10    12    1
@<TRIPOS>MOLECULE
*****
 30 33 0 0 0
SMALL
GASTEIGER

@<TRIPOS>ATOM
      1 C           4.6794   -2.2053   19.5307 C.ar    1  UNL1        0.0516
      2 C           4.8174   -1.0602   18.5716 C.ar    1  UNL1        0.0161
      3 C           3.7653    0.0078   18.5222 C.ar    1  UNL1        0.0212
      4 C           2.5751   -0.0695   19.4320 C.ar    1  UNL1        0.1223
      5 C           2.4371   -1.2145   20.3909 C.ar    1  UNL1        0.0212
      6 C           3.4892   -2.2824   20.4403 C.ar    1  UNL1        0.0161
      7 O           6.5797   -2.3328   21.8486 O.2     1  UNL1       -0.2525
      8 C           6.6818   -3.3370   20.7390 C.2     1  UNL1        0.3047
      9 N           7.7339   -4.4049   20.7883 N.am    1  UNL1       -0.2845
     10 N           5.7316   -3.2733   19.5800 N.am    1  UNL1       -0.2683
     11 H           7.8009   -5.0639   20.0601 H       1  UNL1        0.1513
     12 H           5.7986   -3.9323   18.8518 H       1  UNL1        0.1564
     13 C           8.6841   -4.4686   21.9473 C.3     1  UNL1        0.1192
     14 C           8.3519   -5.3095   23.1442 C.ar    1  UNL1        0.0167
     15 C           8.7651   -6.7508   23.1862 C.ar    1  UNL1        0.0005
     16 C           8.4328   -7.5917   24.3831 C.ar    1  UNL1        0.0204
     17 C           7.6874   -6.9912   25.5380 C.ar    1  UNL1        0.0989
     18 N           7.2741   -5.5499   25.4960 N.ar    1  UNL1       -0.2426
     19 C           7.6064   -4.7090   24.2991 C.ar    1  UNL1        0.0962
     20 S           1.5229    0.9985   19.3826 S.O2    1  UNL1        0.0634
     21 O           2.1067    1.6305   20.6112 O.2     1  UNL1       -0.1528
     22 O           0.9391    0.3664   18.1539 O.2     1  UNL1       -0.1528
     23 N           0.4707    2.0665   19.3331 N.3     1  UNL1       -0.1506
     24 C          -0.5273    2.1882   20.4463 C.3     1  UNL1        0.1253
     25 C          -1.5795    3.2561   20.3968 C.3     1  UNL1        0.1329
     26 C          -2.4118    4.4189   19.9438 C.3     1  UNL1        0.0336
     27 C          -1.8668    4.8949   18.6298 C.3     1  UNL1        0.0336
     28 C          -0.6977    4.0263   18.2708 C.3     1  UNL1        0.1329
     29 C           0.4165    3.0127   18.1705 C.3     1  UNL1        0.1253
     30 O          -0.5201    3.0135   19.3629 O.3     1  UNL1       -0.3558
@<TRIPOS>BOND
     1     7     8    2
     2     8     9   am
     3     9    13    1
     4    13    14    1
     5    14    15   ar
     6    15    16   ar
     7    16    17   ar
     8    17    18   ar
     9    18    19   ar
    10     8    10   am
    11    10     1    1
    12     1     2   ar
    13     2     3   ar
    14     3     4   ar
    15     4    20    1
    16    20    21    2
    17    20    22    2
    18    20    23    1
    19    23    24    1
    20    24    25    1
    21    25    26    1
    22    26    27    1
    23    27    28    1
    24    28    29    1
    25    28    30    1
    26     4     5   ar
    27     5     6   ar
    28    19    14   ar
    29     6     1   ar
    30    29    23    1
    31    30    25    1
    32     9    11    1
    33    10    12    1
