@<TRIPOS>MOLECULE
*****
 22 23 0 0 0
SMALL
GASTEIGER

@<TRIPOS>ATOM
      1 C          -7.8731  -16.7198   23.1202 C.2     1  UNL1        0.2406
      2 O          -7.8834  -15.8172   21.9222 O.2     1  UNL1       -0.2733
      3 N          -8.2887  -18.1544   22.9819 N.am    1  UNL1       -0.2833
      4 H          -8.2819  -18.7468   23.7682 H       1  UNL1        0.1549
      5 C          -8.7144  -18.6865   21.6457 C.ar    1  UNL1        0.0423
      6 C          -7.6864  -19.1924   20.6776 C.ar    1  UNL1       -0.0087
      7 C          -6.2325  -19.1663   21.0458 C.3     1  UNL1        0.0323
      8 C          -8.1122  -19.7245   19.3413 C.ar    1  UNL1       -0.0031
      9 C          -9.5661  -19.7506   18.9732 C.ar    1  UNL1       -0.0006
     10 C         -10.5941  -19.2447   19.9412 C.ar    1  UNL1       -0.0031
     11 C         -10.1684  -18.7127   21.2774 C.ar    1  UNL1       -0.0087
     12 C         -11.1964  -18.2067   22.2455 C.3     1  UNL1        0.0323
     13 N          -6.0005  -15.8925   24.7198 N.3     1  UNL1       -0.2666
     14 C          -5.5748  -15.3605   26.0561 C.3     1  UNL1        0.0725
     15 C          -6.5959  -15.1236   27.1290 C.3     1  UNL1        0.0174
     16 C          -8.0428  -15.4188   26.8657 C.3     1  UNL1        0.0033
     17 C          -8.4685  -15.9508   25.5294 C.3     1  UNL1        0.0254
     18 C          -7.4474  -16.1877   24.4565 C.3     1  UNL1        0.1351
     19 C          -4.9793  -16.1294   23.6469 C.3     1  UNL1        0.0725
     20 C          -4.2011  -17.4115   23.6221 C.3     1  UNL1        0.0173
     21 C          -2.4178  -16.3370   22.0679 C.3     1  UNL1        0.0000
     22 C          -3.0156  -17.5517   22.7139 C.3     1  UNL1        0.0014
@<TRIPOS>BOND
     1    21    22    1
     2    22    20    1
     3    20    19    1
     4    19    13    1
     5    13    14    1
     6    14    15    1
     7    15    16    1
     8    16    17    1
     9    17    18    1
    10    18     1    1
    11     1     2    2
    12     1     3   am
    13     3     5    1
    14     5     6   ar
    15     6     7    1
    16     6     8   ar
    17     8     9   ar
    18     9    10   ar
    19    10    11   ar
    20    11    12    1
    21    18    13    1
    22    11     5   ar
    23     3     4    1
@<TRIPOS>MOLECULE
*****
 22 23 0 0 0
SMALL
GASTEIGER

@<TRIPOS>ATOM
      1 C          -7.8496  -16.7455   23.0751 C.2     1  UNL1        0.2406
      2 O          -7.8774  -15.8429   21.8775 O.2     1  UNL1       -0.2733
      3 N          -8.2486  -18.1850   22.9388 N.am    1  UNL1       -0.2833
      4 H          -8.2304  -18.7774   23.7249 H       1  UNL1        0.1549
      5 C          -8.6753  -18.7219   21.6048 C.ar    1  UNL1        0.0423
      6 C         -10.1316  -18.7764   21.2492 C.ar    1  UNL1       -0.0087
      7 C         -11.1611  -18.2939   22.2276 C.3     1  UNL1        0.0323
      8 C         -10.5583  -19.3133   19.9152 C.ar    1  UNL1       -0.0031
      9 C          -9.5288  -19.7958   18.9368 C.ar    1  UNL1       -0.0006
     10 C          -8.0725  -19.7413   19.2924 C.ar    1  UNL1       -0.0031
     11 C          -7.6458  -19.2044   20.6263 C.ar    1  UNL1       -0.0087
     12 C          -6.1896  -19.1500   20.9819 C.3     1  UNL1        0.0323
     13 N          -5.9775  -15.9008   24.6663 N.3     1  UNL1       -0.2666
     14 C          -5.5509  -15.3640   26.0004 C.3     1  UNL1        0.0725
     15 C          -6.5696  -15.1349   27.0773 C.3     1  UNL1        0.0174
     16 C          -8.0149  -15.4426   26.8202 C.3     1  UNL1        0.0033
     17 C          -8.4416  -15.9795   25.4862 C.3     1  UNL1        0.0254
     18 C          -7.4229  -16.2086   24.4092 C.3     1  UNL1        0.1351
     19 C          -4.9588  -16.1300   23.5894 C.3     1  UNL1        0.0725
     20 C          -4.1826  -17.4129   23.5520 C.3     1  UNL1        0.0173
     21 C          -2.3929  -16.2992   22.0331 C.3     1  UNL1        0.0000
     22 C          -2.9522  -17.5205   22.7007 C.3     1  UNL1        0.0014
@<TRIPOS>BOND
     1    21    22    1
     2    22    20    1
     3    20    19    1
     4    19    13    1
     5    13    14    1
     6    14    15    1
     7    15    16    1
     8    16    17    1
     9    17    18    1
    10    18     1    1
    11     1     2    2
    12     1     3   am
    13     3     5    1
    14     5     6   ar
    15     6     7    1
    16     6     8   ar
    17     8     9   ar
    18     9    10   ar
    19    10    11   ar
    20    11    12    1
    21    18    13    1
    22    11     5   ar
    23     3     4    1
@<TRIPOS>MOLECULE
*****
 22 23 0 0 0
SMALL
GASTEIGER

@<TRIPOS>ATOM
      1 C          -6.9797  -18.9757   21.7337 C.2     1  UNL1        0.2406
      2 O          -7.6020  -20.0529   22.5717 O.2     1  UNL1       -0.2733
      3 N          -7.8196  -17.8417   21.2252 N.am    1  UNL1       -0.2833
      4 H          -7.4112  -17.1347   20.6752 H       1  UNL1        0.1549
      5 C          -9.2818  -17.7848   21.5549 C.ar    1  UNL1        0.0423
      6 C         -10.2714  -18.5268   20.7062 C.ar    1  UNL1       -0.0087
      7 C          -9.7987  -19.3256   19.5279 C.3     1  UNL1        0.0323
      8 C         -11.7336  -18.4699   21.0359 C.ar    1  UNL1       -0.0031
      9 C         -12.2063  -17.6711   22.2142 C.ar    1  UNL1       -0.0006
     10 C         -11.2167  -16.9291   23.0629 C.ar    1  UNL1       -0.0031
     11 C          -9.7545  -16.9860   22.7332 C.ar    1  UNL1       -0.0087
     12 C          -8.7649  -16.2440   23.5819 C.3     1  UNL1        0.0323
     13 N          -4.5247  -18.3164   22.2710 N.3     1  UNL1       -0.2666
     14 C          -3.0626  -18.3733   21.9413 C.3     1  UNL1        0.0725
     15 C          -2.5931  -19.1462   20.7446 C.3     1  UNL1        0.0174
     16 C          -3.5857  -19.8623   19.8776 C.3     1  UNL1        0.0033
     17 C          -5.0479  -19.8055   20.2073 C.3     1  UNL1        0.0254
     18 C          -5.5174  -19.0325   21.4040 C.3     1  UNL1        0.1351
     19 C          -4.9942  -17.5435   23.4677 C.3     1  UNL1        0.0725
     20 C          -4.6266  -16.0970   23.6178 C.3     1  UNL1        0.0173
     21 C          -5.4093  -15.5488   26.0338 C.3     1  UNL1        0.0000
     22 C          -5.3897  -15.2241   24.5694 C.3     1  UNL1        0.0014
@<TRIPOS>BOND
     1    21    22    1
     2    22    20    1
     3    20    19    1
     4    19    13    1
     5    13    14    1
     6    14    15    1
     7    15    16    1
     8    16    17    1
     9    17    18    1
    10    18     1    1
    11     1     2    2
    12     1     3   am
    13     3     5    1
    14     5     6   ar
    15     6     7    1
    16     6     8   ar
    17     8     9   ar
    18     9    10   ar
    19    10    11   ar
    20    11    12    1
    21    18    13    1
    22    11     5   ar
    23     3     4    1
@<TRIPOS>MOLECULE
*****
 22 23 0 0 0
SMALL
GASTEIGER

@<TRIPOS>ATOM
      1 C          -6.0542  -19.1205   21.4337 C.2     1  UNL1        0.2406
      2 O          -6.4054  -20.3965   22.1396 O.2     1  UNL1       -0.2733
      3 N          -7.1406  -18.1927   20.9765 N.am    1  UNL1       -0.2833
      4 H          -6.9100  -17.3552   20.5132 H       1  UNL1        0.1549
      5 C          -8.5782  -18.5410   21.2254 C.ar    1  UNL1        0.0423
      6 C          -9.2563  -18.0757   22.4798 C.ar    1  UNL1       -0.0087
      7 C          -8.4969  -17.2621   23.4854 C.3     1  UNL1        0.0323
      8 C         -10.6940  -18.4239   22.7286 C.ar    1  UNL1       -0.0031
      9 C         -11.4535  -19.2375   21.7230 C.ar    1  UNL1       -0.0006
     10 C         -10.7753  -19.7028   20.4685 C.ar    1  UNL1       -0.0031
     11 C          -9.3377  -19.3546   20.2197 C.ar    1  UNL1       -0.0087
     12 C          -8.6596  -19.8199   18.9653 C.3     1  UNL1        0.0323
     13 N          -3.8695  -17.9220   22.1693 N.3     1  UNL1       -0.2666
     14 C          -2.4319  -17.5738   21.9204 C.3     1  UNL1        0.0725
     15 C          -1.7413  -18.0757   20.6871 C.3     1  UNL1        0.0174
     16 C          -2.4883  -18.9259   19.7026 C.3     1  UNL1        0.0033
     17 C          -3.9258  -19.2741   19.9515 C.3     1  UNL1        0.0254
     18 C          -4.6165  -18.7722   21.1848 C.3     1  UNL1        0.1351
     19 C          -4.5602  -17.4201   23.4026 C.3     1  UNL1        0.0725
     20 C          -4.6605  -15.9455   23.6584 C.3     1  UNL1        0.0173
     21 C          -5.4211  -15.5379   26.1091 C.3     1  UNL1        0.0000
     22 C          -5.6713  -15.4207   24.6347 C.3     1  UNL1        0.0014
@<TRIPOS>BOND
     1    21    22    1
     2    22    20    1
     3    20    19    1
     4    19    13    1
     5    13    14    1
     6    14    15    1
     7    15    16    1
     8    16    17    1
     9    17    18    1
    10    18     1    1
    11     1     2    2
    12     1     3   am
    13     3     5    1
    14     5     6   ar
    15     6     7    1
    16     6     8   ar
    17     8     9   ar
    18     9    10   ar
    19    10    11   ar
    20    11    12    1
    21    18    13    1
    22    11     5   ar
    23     3     4    1
@<TRIPOS>MOLECULE
*****
 22 23 0 0 0
SMALL
GASTEIGER

@<TRIPOS>ATOM
      1 C          -7.3996  -18.5496   22.0285 C.2     1  UNL1        0.2406
      2 O          -7.2168  -17.6224   20.8636 O.2     1  UNL1       -0.2733
      3 N          -6.2482  -19.3787   22.5150 N.am    1  UNL1       -0.2833
      4 H          -6.3682  -19.9872   23.2795 H       1  UNL1        0.1549
      5 C          -4.9139  -19.2806   21.8367 C.ar    1  UNL1        0.0423
      6 C          -3.8693  -18.3445   22.3683 C.ar    1  UNL1       -0.0087
      7 C          -4.1590  -17.5065   23.5781 C.3     1  UNL1        0.0323
      8 C          -2.5350  -18.2465   21.6899 C.ar    1  UNL1       -0.0031
      9 C          -2.2454  -19.0845   20.4801 C.ar    1  UNL1       -0.0006
     10 C          -3.2900  -20.0206   19.9485 C.ar    1  UNL1       -0.0031
     11 C          -4.6242  -20.1187   20.6268 C.ar    1  UNL1       -0.0087
     12 C          -5.6688  -21.0547   20.0952 C.3     1  UNL1        0.0323
     13 N          -9.1036  -17.6670   23.7799 N.3     1  UNL1       -0.2666
     14 C         -10.4379  -17.7651   24.4582 C.3     1  UNL1        0.0725
     15 C         -11.4024  -18.8439   24.0634 C.3     1  UNL1        0.0174
     16 C         -11.0327  -19.8246   22.9903 C.3     1  UNL1        0.0033
     17 C          -9.6985  -19.7264   22.3120 C.3     1  UNL1        0.0254
     18 C          -8.7339  -18.6477   22.7068 C.3     1  UNL1        0.1351
     19 C          -8.1391  -16.5882   24.1747 C.3     1  UNL1        0.0725
     20 C          -8.5729  -15.5007   25.1123 C.3     1  UNL1        0.0173
     21 C          -6.8156  -15.5836   27.0242 C.3     1  UNL1        0.0000
     22 C          -8.2462  -15.5955   26.5732 C.3     1  UNL1        0.0014
@<TRIPOS>BOND
     1    21    22    1
     2    22    20    1
     3    20    19    1
     4    19    13    1
     5    13    14    1
     6    14    15    1
     7    15    16    1
     8    16    17    1
     9    17    18    1
    10    18     1    1
    11     1     2    2
    12     1     3   am
    13     3     5    1
    14     5     6   ar
    15     6     7    1
    16     6     8   ar
    17     8     9   ar
    18     9    10   ar
    19    10    11   ar
    20    11    12    1
    21    18    13    1
    22    11     5   ar
    23     3     4    1
@<TRIPOS>MOLECULE
*****
 22 23 0 0 0
SMALL
GASTEIGER

@<TRIPOS>ATOM
      1 C          -7.4352  -17.8845   22.1450 C.2     1  UNL1        0.2406
      2 O          -7.8942  -16.5323   21.6857 O.2     1  UNL1       -0.2733
      3 N          -8.4415  -18.9203   22.5504 N.am    1  UNL1       -0.2833
      4 H          -8.1402  -19.8078   22.8519 H       1  UNL1        0.1549
      5 C          -9.9068  -18.6041   22.4964 C.ar    1  UNL1        0.0423
      6 C         -10.6429  -18.2432   23.7526 C.ar    1  UNL1       -0.0087
      7 C          -9.9138  -18.1986   25.0627 C.3     1  UNL1        0.0323
      8 C         -12.1082  -17.9270   23.6986 C.ar    1  UNL1       -0.0031
      9 C         -12.8374  -17.9716   22.3885 C.ar    1  UNL1       -0.0006
     10 C         -12.1012  -18.3324   21.1324 C.ar    1  UNL1       -0.0031
     11 C         -10.6359  -18.6487   21.1863 C.ar    1  UNL1       -0.0087
     12 C          -9.8998  -19.0095   19.9302 C.3     1  UNL1        0.0323
     13 N          -5.0556  -17.3761   23.0557 N.3     1  UNL1       -0.2666
     14 C          -3.5904  -17.6924   23.1097 C.3     1  UNL1        0.0725
     15 C          -3.0394  -18.8335   22.3069 C.3     1  UNL1        0.0174
     16 C          -3.9536  -19.6581   21.4502 C.3     1  UNL1        0.0033
     17 C          -5.4189  -19.3418   21.3962 C.3     1  UNL1        0.0254
     18 C          -5.9699  -18.2008   22.1990 C.3     1  UNL1        0.1351
     19 C          -5.6066  -16.2351   23.8585 C.3     1  UNL1        0.0725
     20 C          -5.0920  -15.9748   25.2432 C.3     1  UNL1        0.0173
     21 C          -6.8011  -15.7493   27.1869 C.3     1  UNL1        0.0000
     22 C          -5.8799  -15.1155   26.1870 C.3     1  UNL1        0.0014
@<TRIPOS>BOND
     1    21    22    1
     2    22    20    1
     3    20    19    1
     4    19    13    1
     5    13    14    1
     6    14    15    1
     7    15    16    1
     8    16    17    1
     9    17    18    1
    10    18     1    1
    11     1     2    2
    12     1     3   am
    13     3     5    1
    14     5     6   ar
    15     6     7    1
    16     6     8   ar
    17     8     9   ar
    18     9    10   ar
    19    10    11   ar
    20    11    12    1
    21    18    13    1
    22    11     5   ar
    23     3     4    1
@<TRIPOS>MOLECULE
*****
 22 23 0 0 0
SMALL
GASTEIGER

@<TRIPOS>ATOM
      1 C          -7.6881  -18.5914   21.5809 C.2     1  UNL1        0.2406
      2 O          -7.8841  -17.1044   21.5635 O.2     1  UNL1       -0.2733
      3 N          -8.8404  -19.4960   21.9031 N.am    1  UNL1       -0.2833
      4 H          -8.7118  -20.4720   21.9144 H       1  UNL1        0.1549
      5 C         -10.1887  -18.9137   22.2079 C.ar    1  UNL1        0.0423
      6 C         -11.0852  -18.4718   21.0894 C.ar    1  UNL1       -0.0087
      7 C         -10.6334  -18.6123   19.6660 C.3     1  UNL1        0.0323
      8 C         -12.4335  -17.8894   21.3943 C.ar    1  UNL1       -0.0031
      9 C         -12.8853  -17.7489   22.8177 C.ar    1  UNL1       -0.0006
     10 C         -11.9888  -18.1907   23.9363 C.ar    1  UNL1       -0.0031
     11 C         -10.6405  -18.7731   23.6314 C.ar    1  UNL1       -0.0087
     12 C          -9.7441  -19.2150   24.7499 C.3     1  UNL1        0.0323
     13 N          -5.1382  -18.7333   22.0582 N.3     1  UNL1       -0.2666
     14 C          -3.7900  -19.3157   21.7533 C.3     1  UNL1        0.0725
     15 C          -3.6434  -20.3388   20.6662 C.3     1  UNL1        0.0174
     16 C          -4.8450  -20.7793   19.8839 C.3     1  UNL1        0.0033
     17 C          -6.1932  -20.1969   20.1888 C.3     1  UNL1        0.0254
     18 C          -6.3398  -19.1739   21.2760 C.3     1  UNL1        0.1351
     19 C          -5.2848  -17.7103   23.1454 C.3     1  UNL1        0.0725
     20 C          -4.2533  -16.6332   23.3058 C.3     1  UNL1        0.0173
     21 C          -2.1788  -16.1067   21.8328 C.3     1  UNL1        0.0000
     22 C          -2.8259  -16.8996   22.9295 C.3     1  UNL1        0.0014
@<TRIPOS>BOND
     1    21    22    1
     2    22    20    1
     3    20    19    1
     4    19    13    1
     5    13    14    1
     6    14    15    1
     7    15    16    1
     8    16    17    1
     9    17    18    1
    10    18     1    1
    11     1     2    2
    12     1     3   am
    13     3     5    1
    14     5     6   ar
    15     6     7    1
    16     6     8   ar
    17     8     9   ar
    18     9    10   ar
    19    10    11   ar
    20    11    12    1
    21    18    13    1
    22    11     5   ar
    23     3     4    1
@<TRIPOS>MOLECULE
*****
 22 23 0 0 0
SMALL
GASTEIGER

@<TRIPOS>ATOM
      1 C          -7.3487  -19.3234   21.7421 C.2     1  UNL1        0.2406
      2 O          -8.0302  -20.1069   22.8244 O.2     1  UNL1       -0.2733
      3 N          -8.0620  -18.1820   21.0798 N.am    1  UNL1       -0.2833
      4 H          -7.6147  -17.6677   20.3694 H       1  UNL1        0.1549
      5 C          -9.4568  -17.8243   21.4999 C.ar    1  UNL1        0.0423
      6 C          -9.6765  -16.8421   22.6121 C.ar    1  UNL1       -0.0087
      7 C          -8.5014  -16.2176   23.3042 C.3     1  UNL1        0.0323
      8 C         -11.0714  -16.4843   23.0321 C.ar    1  UNL1       -0.0031
      9 C         -12.2465  -17.1088   22.3400 C.ar    1  UNL1       -0.0006
     10 C         -12.0268  -18.0911   21.2278 C.ar    1  UNL1       -0.0031
     11 C         -10.6320  -18.4488   20.8078 C.ar    1  UNL1       -0.0087
     12 C         -10.4123  -19.4310   19.6956 C.3     1  UNL1        0.0323
     13 N          -4.7789  -19.0418   22.0008 N.3     1  UNL1       -0.2666
     14 C          -3.3841  -19.3996   21.5806 C.3     1  UNL1        0.0725
     15 C          -3.1643  -20.3965   20.4817 C.3     1  UNL1        0.0174
     16 C          -4.3392  -21.0358   19.8029 C.3     1  UNL1        0.0033
     17 C          -5.7340  -20.6781   20.2230 C.3     1  UNL1        0.0254
     18 C          -5.9538  -19.6811   21.3219 C.3     1  UNL1        0.1351
     19 C          -4.9988  -18.0448   23.0997 C.3     1  UNL1        0.0725
     20 C          -4.1537  -16.8076   23.1700 C.3     1  UNL1        0.0173
     21 C          -2.0876  -16.0941   21.7657 C.3     1  UNL1        0.0000
     22 C          -2.6820  -16.8876   22.8913 C.3     1  UNL1        0.0014
@<TRIPOS>BOND
     1    21    22    1
     2    22    20    1
     3    20    19    1
     4    19    13    1
     5    13    14    1
     6    14    15    1
     7    15    16    1
     8    16    17    1
     9    17    18    1
    10    18     1    1
    11     1     2    2
    12     1     3   am
    13     3     5    1
    14     5     6   ar
    15     6     7    1
    16     6     8   ar
    17     8     9   ar
    18     9    10   ar
    19    10    11   ar
    20    11    12    1
    21    18    13    1
    22    11     5   ar
    23     3     4    1
@<TRIPOS>MOLECULE
*****
 22 23 0 0 0
SMALL
GASTEIGER

@<TRIPOS>ATOM
      1 C          -7.8014  -18.4780   21.7269 C.2     1  UNL1        0.2406
      2 O          -8.0670  -17.0078   21.5940 O.2     1  UNL1       -0.2733
      3 N          -8.9157  -19.4109   22.0985 N.am    1  UNL1       -0.2833
      4 H          -8.7414  -20.3759   22.1857 H       1  UNL1        0.1549
      5 C         -10.2956  -18.8735   22.3372 C.ar    1  UNL1        0.0423
      6 C         -11.1702  -18.5092   21.1742 C.ar    1  UNL1       -0.0087
      7 C         -10.6648  -18.6823   19.7726 C.3     1  UNL1        0.0323
      8 C         -12.5501  -17.9718   21.4130 C.ar    1  UNL1       -0.0031
      9 C         -13.0555  -17.7987   22.8146 C.ar    1  UNL1       -0.0006
     10 C         -12.1810  -18.1630   23.9775 C.ar    1  UNL1       -0.0031
     11 C         -10.8011  -18.7004   23.7389 C.ar    1  UNL1       -0.0087
     12 C          -9.9265  -19.0648   24.9018 C.3     1  UNL1        0.0323
     13 N          -6.1715  -19.9624   20.3521 N.3     1  UNL1       -0.2666
     14 C          -4.7916  -20.4998   20.1134 C.3     1  UNL1        0.0725
     15 C          -3.6616  -20.0904   21.0110 C.3     1  UNL1        0.0174
     16 C          -3.9116  -19.1435   22.1471 C.3     1  UNL1        0.0033
     17 C          -5.2915  -18.6061   22.3858 C.3     1  UNL1        0.0254
     18 C          -6.4214  -19.0155   21.4882 C.3     1  UNL1        0.1351
     19 C          -7.3014  -20.3718   19.4545 C.3     1  UNL1        0.0725
     20 C          -7.3107  -21.7384   18.8362 C.3     1  UNL1        0.0173
     21 C          -9.0938  -21.2730   17.0048 C.3     1  UNL1        0.0000
     22 C          -8.4925  -22.1887   18.0296 C.3     1  UNL1        0.0014
@<TRIPOS>BOND
     1    21    22    1
     2    22    20    1
     3    20    19    1
     4    19    13    1
     5    13    14    1
     6    14    15    1
     7    15    16    1
     8    16    17    1
     9    17    18    1
    10    18     1    1
    11     1     2    2
    12     1     3   am
    13     3     5    1
    14     5     6   ar
    15     6     7    1
    16     6     8   ar
    17     8     9   ar
    18     9    10   ar
    19    10    11   ar
    20    11    12    1
    21    18    13    1
    22    11     5   ar
    23     3     4    1
