@<TRIPOS>MOLECULE
*****
 40 42 0 0 0
SMALL
GASTEIGER

@<TRIPOS>ATOM
      1 N           6.2178   -2.0690   25.9042 N.ar    1  UNL1       -0.3189
      2 C           4.8900   -1.8548   25.2400 C.ar    1  UNL1        0.0603
      3 C           3.9427   -1.3045   26.2645 C.ar    1  UNL1        0.0186
      4 C           4.6849   -1.1787   27.5619 C.ar    1  UNL1        0.0169
      5 C           4.2621   -0.6949   28.9173 C.ar    1  UNL1       -0.0023
      6 C           5.2454   -0.6837   30.0500 C.ar    1  UNL1       -0.0145
      7 C           6.6515   -1.1562   29.8273 C.ar    1  UNL1       -0.0023
      8 C           7.0743   -1.6400   28.4719 C.ar    1  UNL1        0.0169
      9 C           6.0910   -1.6512   27.3392 C.ar    1  UNL1        0.0602
     10 C           4.5664   -2.1405   23.8034 C.ar    1  UNL1        0.0160
     11 C           3.8284   -1.1237   22.9842 C.ar    1  UNL1        0.0045
     12 C           3.5048   -1.4094   21.5477 C.ar    1  UNL1        0.0372
     13 C           3.9193   -2.7121   20.9304 C.ar    1  UNL1        0.1468
     14 C           4.6573   -3.7290   21.7496 C.ar    1  UNL1        0.0372
     15 C           4.9809   -3.4432   23.1861 C.ar    1  UNL1        0.0045
     16 O           3.5957   -2.9979   19.4938 O.3     1  UNL1       -0.4045
     17 C           4.1183   -4.2430   18.8407 C.3     1  UNL1        0.5753
     18 F           4.6409   -5.4882   18.1875 F       1  UNL1       -0.1328
     19 F           5.3777   -3.5187   18.4676 F       1  UNL1       -0.1328
     20 F           2.8589   -4.9673   19.2137 F       1  UNL1       -0.1328
     21 C           4.8226   -0.1999   31.4055 C.3     1  UNL1        0.0876
     22 C           6.2011    0.3419   31.6422 C.3     1  UNL1        0.0135
     23 C           3.4440   -0.7417   31.1688 C.3     1  UNL1        0.0135
     24 C           4.3997    0.2839   32.7609 C.2     1  UNL1        0.2252
     25 O           2.9588    0.6045   33.0270 O.2     1  UNL1       -0.2748
     26 N           5.4179    0.4470   33.8503 N.am    1  UNL1       -0.3072
     27 H           6.3637    0.2366   33.6757 H       1  UNL1        0.1493
     28 C           4.9951    0.9308   35.2057 C.3     1  UNL1        0.0569
     29 C           4.7626   -0.4863   35.6390 C.3     1  UNL1        0.0196
     30 C           5.2275    2.3479   34.7725 C.3     1  UNL1        0.0196
     31 C           4.5723    1.4145   36.5611 C.3     1  UNL1        0.0196
     32 C           7.4551   -2.6068   25.2485 C.3     1  UNL1        0.1917
     33 N           7.0624   -5.1731   25.3473 N.am    1  UNL1       -0.3059
     34 C           7.9448   -3.9838   25.5859 C.2     1  UNL1        0.2455
     35 O           9.3169   -4.1716   26.1622 O.2     1  UNL1       -0.2730
     36 H           6.1618   -5.0499   24.9691 H       1  UNL1        0.1494
     37 C           8.0559   -6.7149   24.2815 C.3     1  UNL1        0.0196
     38 C           7.5522   -6.5501   25.6848 C.3     1  UNL1        0.0569
     39 C           7.0485   -6.3853   27.0880 C.3     1  UNL1        0.0196
     40 C           8.0420   -7.9271   26.0223 C.3     1  UNL1        0.0196
@<TRIPOS>BOND
     1    37    38    1
     2    38    39    1
     3    38    40    1
     4    38    33    1
     5    33    34   am
     6    34    35    2
     7    34    32    1
     8    32     1    1
     9     1     2   ar
    10     2    10    1
    11    10    11   ar
    12    11    12   ar
    13    12    13   ar
    14    13    16    1
    15    16    17    1
    16    17    18    1
    17    17    19    1
    18    17    20    1
    19    13    14   ar
    20    14    15   ar
    21     2     3   ar
    22     3     4   ar
    23     4     5   ar
    24     5     6   ar
    25     6    21    1
    26    21    22    1
    27    21    23    1
    28    21    24    1
    29    24    25    2
    30    24    26   am
    31    26    28    1
    32    28    29    1
    33    28    30    1
    34    28    31    1
    35     6     7   ar
    36     7     8   ar
    37     8     9   ar
    38     9     1   ar
    39    15    10   ar
    40     9     4   ar
    41    33    36    1
    42    26    27    1
@<TRIPOS>MOLECULE
*****
 40 42 0 0 0
SMALL
GASTEIGER

@<TRIPOS>ATOM
      1 N           4.3510    0.3114   31.8952 N.ar    1  UNL1       -0.3189
      2 C           4.6114   -0.1911   33.2843 C.ar    1  UNL1        0.0603
      3 C           5.4052   -1.4594   33.1772 C.ar    1  UNL1        0.0186
      4 C           5.6353   -1.7407   31.7219 C.ar    1  UNL1        0.0169
      5 C           6.3539   -2.8521   31.0159 C.ar    1  UNL1       -0.0023
      6 C           6.4210   -2.8690   29.5175 C.ar    1  UNL1       -0.0145
      7 C           5.7695   -1.7746   28.7252 C.ar    1  UNL1       -0.0023
      8 C           5.0509   -0.6632   29.4312 C.ar    1  UNL1        0.0169
      9 C           4.9838   -0.6463   30.9296 C.ar    1  UNL1        0.0602
     10 C           4.1578    0.4603   34.5571 C.ar    1  UNL1        0.0160
     11 C           4.6128   -0.0807   35.8800 C.ar    1  UNL1        0.0045
     12 C           4.1591    0.5707   37.1528 C.ar    1  UNL1        0.0372
     13 C           3.2505    1.7631   37.1025 C.ar    1  UNL1        0.1468
     14 C           2.7955    2.3041   35.7796 C.ar    1  UNL1        0.0372
     15 C           3.2492    1.6527   34.5068 C.ar    1  UNL1        0.0045
     16 O           2.7969    2.4145   38.3753 O.3     1  UNL1       -0.4045
     17 C           1.3664    2.2951   38.8105 C.3     1  UNL1        0.5753
     18 F          -0.0642    2.1757   39.2456 F       1  UNL1       -0.1328
     19 F           1.6910    1.0181   39.5271 F       1  UNL1       -0.1328
     20 F           1.0417    3.5722   38.0938 F       1  UNL1       -0.1328
     21 C           7.1397   -3.9803   28.8114 C.3     1  UNL1        0.0876
     22 C           7.4634   -4.6109   30.1333 C.3     1  UNL1        0.0135
     23 C           6.8159   -3.3497   27.4895 C.3     1  UNL1        0.0135
     24 C           7.8582   -5.0916   28.1053 C.2     1  UNL1        0.2252
     25 O           9.0297   -4.7842   27.2204 O.2     1  UNL1       -0.2748
     26 N           7.4053   -6.5104   28.2841 N.am    1  UNL1       -0.3072
     27 H           6.6365   -6.7123   28.8649 H       1  UNL1        0.1493
     28 C           8.1239   -7.6217   27.5780 C.3     1  UNL1        0.0569
     29 C           7.1920   -7.4828   26.4109 C.3     1  UNL1        0.0196
     30 C           9.0559   -7.7607   28.7451 C.3     1  UNL1        0.0196
     31 C           8.8425   -8.7330   26.8719 C.3     1  UNL1        0.0196
     32 C           3.5912    1.5535   31.5349 C.3     1  UNL1        0.1917
     33 N           2.0626    1.3735   29.4418 N.am    1  UNL1       -0.3059
     34 C           2.2222    1.4468   30.9315 C.2     1  UNL1        0.2455
     35 O           1.0124    1.4135   31.8179 O.2     1  UNL1       -0.2730
     36 H           2.8566    1.3954   28.8601 H       1  UNL1        0.1494
     37 C           0.6137    2.7623   28.7551 C.3     1  UNL1        0.0196
     38 C           0.6935    1.2668   28.8385 C.3     1  UNL1        0.0569
     39 C           0.7733   -0.2288   28.9219 C.3     1  UNL1        0.0196
     40 C          -0.6757    1.1601   28.2352 C.3     1  UNL1        0.0196
@<TRIPOS>BOND
     1    37    38    1
     2    38    39    1
     3    38    40    1
     4    38    33    1
     5    33    34   am
     6    34    35    2
     7    34    32    1
     8    32     1    1
     9     1     2   ar
    10     2    10    1
    11    10    11   ar
    12    11    12   ar
    13    12    13   ar
    14    13    16    1
    15    16    17    1
    16    17    18    1
    17    17    19    1
    18    17    20    1
    19    13    14   ar
    20    14    15   ar
    21     2     3   ar
    22     3     4   ar
    23     4     5   ar
    24     5     6   ar
    25     6    21    1
    26    21    22    1
    27    21    23    1
    28    21    24    1
    29    24    25    2
    30    24    26   am
    31    26    28    1
    32    28    29    1
    33    28    30    1
    34    28    31    1
    35     6     7   ar
    36     7     8   ar
    37     8     9   ar
    38     9     1   ar
    39    15    10   ar
    40     9     4   ar
    41    33    36    1
    42    26    27    1
@<TRIPOS>MOLECULE
*****
 40 42 0 0 0
SMALL
GASTEIGER

@<TRIPOS>ATOM
      1 N          -0.8507    3.2532   23.1944 N.ar    1  UNL1       -0.3189
      2 C          -1.1310    3.0264   24.6504 C.ar    1  UNL1        0.0603
      3 C          -0.2606    1.8986   25.1198 C.ar    1  UNL1        0.0186
      4 C           0.5577    1.4284   23.9540 C.ar    1  UNL1        0.0169
      5 C           1.5878    0.3460   23.8222 C.ar    1  UNL1       -0.0023
      6 C           2.2532    0.1009   22.5004 C.ar    1  UNL1       -0.0145
      7 C           1.8884    0.9380   21.3104 C.ar    1  UNL1       -0.0023
      8 C           0.8583    2.0204   21.4422 C.ar    1  UNL1        0.0169
      9 C           0.1930    2.2655   22.7640 C.ar    1  UNL1        0.0602
     10 C          -2.1099    3.7929   25.4897 C.ar    1  UNL1        0.0160
     11 C          -1.6227    4.8628   26.4213 C.ar    1  UNL1        0.0045
     12 C          -2.6016    5.6293   27.2605 C.ar    1  UNL1        0.0372
     13 C          -4.0677    5.3258   27.1681 C.ar    1  UNL1        0.1468
     14 C          -4.5548    4.2559   26.2366 C.ar    1  UNL1        0.0372
     15 C          -3.5759    3.4894   25.3973 C.ar    1  UNL1        0.0045
     16 O          -5.0466    6.0923   28.0074 O.3     1  UNL1       -0.4045
     17 C          -6.3390    6.5638   27.4098 C.3     1  UNL1        0.5753
     18 F          -7.6316    7.0353   26.8121 F       1  UNL1       -0.1328
     19 F          -5.5781    7.3951   26.4200 F       1  UNL1       -0.1328
     20 F          -7.1000    5.7324   28.3995 F       1  UNL1       -0.1328
     21 C           3.2833   -0.9815   22.3686 C.3     1  UNL1        0.0876
     22 C           3.5591   -0.8985   23.8406 C.3     1  UNL1        0.0135
     23 C           3.0076   -1.0646   20.8965 C.3     1  UNL1        0.0135
     24 C           4.3134   -2.0639   22.2367 C.2     1  UNL1        0.2252
     25 O           4.3098   -3.2227   23.1891 O.2     1  UNL1       -0.2748
     26 N           5.3471   -1.9874   21.1524 N.am    1  UNL1       -0.3072
     27 H           5.3494   -1.2268   20.5273 H       1  UNL1        0.1493
     28 C           6.3772   -3.0697   21.0205 C.3     1  UNL1        0.0569
     29 C           5.4666   -3.8239   20.0975 C.3     1  UNL1        0.0196
     30 C           7.2878   -2.3156   21.9435 C.3     1  UNL1        0.0196
     31 C           7.4073   -4.1521   20.8886 C.3     1  UNL1        0.0196
     32 C          -1.5001    4.2862   22.3220 C.3     1  UNL1        0.1917
     33 N          -3.9741    4.9102   21.8323 N.am    1  UNL1       -0.3059
     34 C          -2.8068    3.9860   21.6496 C.2     1  UNL1        0.2455
     35 O          -2.9465    2.7616   20.7944 O.2     1  UNL1       -0.2730
     36 H          -3.8825    5.7139   22.3936 H       1  UNL1        0.1494
     37 C          -5.7247    3.8383   22.3672 C.3     1  UNL1        0.0196
     38 C          -5.2809    4.6100   21.1599 C.3     1  UNL1        0.0569
     39 C          -4.8370    5.3817   19.9527 C.3     1  UNL1        0.0196
     40 C          -6.5877    4.3098   20.4875 C.3     1  UNL1        0.0196
@<TRIPOS>BOND
     1    37    38    1
     2    38    39    1
     3    38    40    1
     4    38    33    1
     5    33    34   am
     6    34    35    2
     7    34    32    1
     8    32     1    1
     9     1     2   ar
    10     2    10    1
    11    10    11   ar
    12    11    12   ar
    13    12    13   ar
    14    13    16    1
    15    16    17    1
    16    17    18    1
    17    17    19    1
    18    17    20    1
    19    13    14   ar
    20    14    15   ar
    21     2     3   ar
    22     3     4   ar
    23     4     5   ar
    24     5     6   ar
    25     6    21    1
    26    21    22    1
    27    21    23    1
    28    21    24    1
    29    24    25    2
    30    24    26   am
    31    26    28    1
    32    28    29    1
    33    28    30    1
    34    28    31    1
    35     6     7   ar
    36     7     8   ar
    37     8     9   ar
    38     9     1   ar
    39    15    10   ar
    40     9     4   ar
    41    33    36    1
    42    26    27    1
@<TRIPOS>MOLECULE
*****
 40 42 0 0 0
SMALL
GASTEIGER

@<TRIPOS>ATOM
      1 N           2.4836    0.4768   31.2532 N.ar    1  UNL1       -0.3189
      2 C           1.5005    1.5877   31.0315 C.ar    1  UNL1        0.0603
      3 C           1.4212    2.3951   32.2931 C.ar    1  UNL1        0.0186
      4 C           2.3553    1.7832   33.2946 C.ar    1  UNL1        0.0169
      5 C           2.6928    2.1524   34.7087 C.ar    1  UNL1       -0.0023
      6 C           3.6869    1.3360   35.4801 C.ar    1  UNL1       -0.0145
      7 C           4.3436    0.1503   34.8373 C.ar    1  UNL1       -0.0023
      8 C           4.0061   -0.2189   33.4232 C.ar    1  UNL1        0.0169
      9 C           3.0119    0.5976   32.6519 C.ar    1  UNL1        0.0602
     10 C           0.7316    1.8460   29.7696 C.ar    1  UNL1        0.0160
     11 C           0.9794    3.0992   28.9836 C.ar    1  UNL1        0.0045
     12 C           0.2105    3.3574   27.7217 C.ar    1  UNL1        0.0372
     13 C          -0.8061    2.3624   27.2460 C.ar    1  UNL1        0.1468
     14 C          -1.0539    1.1091   28.0321 C.ar    1  UNL1        0.0372
     15 C          -0.2850    0.8509   29.2939 C.ar    1  UNL1        0.0045
     16 O          -1.5750    2.6206   25.9842 O.3     1  UNL1       -0.4045
     17 C          -0.8448    2.8351   24.6916 C.3     1  UNL1        0.5753
     18 F          -0.1146    3.0498   23.3990 F       1  UNL1       -0.1328
     19 F          -0.3647    1.4145   24.7270 F       1  UNL1       -0.1328
     20 F          -1.3249    4.2558   24.6562 F       1  UNL1       -0.1328
     21 C           4.0245    1.7052   36.8943 C.3     1  UNL1        0.0876
     22 C           3.0986    2.8821   36.8081 C.3     1  UNL1        0.0135
     23 C           4.9504    0.5282   36.9804 C.3     1  UNL1        0.0135
     24 C           4.3621    2.0743   38.3084 C.2     1  UNL1        0.2252
     25 O           3.8319    1.2517   39.4452 O.2     1  UNL1       -0.2748
     26 N           5.2298    3.2660   38.5857 N.am    1  UNL1       -0.3072
     27 H           5.5778    3.8059   37.8396 H       1  UNL1        0.1493
     28 C           5.5674    3.6351   39.9998 C.3     1  UNL1        0.0569
     29 C           6.8308    2.8319   39.9079 C.3     1  UNL1        0.0196
     30 C           4.3039    4.4383   40.0918 C.3     1  UNL1        0.0196
     31 C           5.9050    4.0043   41.4139 C.3     1  UNL1        0.0196
     32 C           2.8706   -0.5710   30.2520 C.3     1  UNL1        0.1917
     33 N           2.8427   -0.7485   27.6602 N.am    1  UNL1       -0.3059
     34 C           3.4195   -0.1658   28.9163 C.2     1  UNL1        0.2455
     35 O           4.5453    0.8223   28.8365 O.2     1  UNL1       -0.2730
     36 H           2.1038   -1.3969   27.7125 H       1  UNL1        0.1494
     37 C           4.3746   -1.4746   26.3850 C.3     1  UNL1        0.0196
     38 C           3.3917   -0.3431   26.3244 C.3     1  UNL1        0.0569
     39 C           2.4088    0.7883   26.2638 C.3     1  UNL1        0.0196
     40 C           3.9407    0.0622   24.9886 C.3     1  UNL1        0.0196
@<TRIPOS>BOND
     1    37    38    1
     2    38    39    1
     3    38    40    1
     4    38    33    1
     5    33    34   am
     6    34    35    2
     7    34    32    1
     8    32     1    1
     9     1     2   ar
    10     2    10    1
    11    10    11   ar
    12    11    12   ar
    13    12    13   ar
    14    13    16    1
    15    16    17    1
    16    17    18    1
    17    17    19    1
    18    17    20    1
    19    13    14   ar
    20    14    15   ar
    21     2     3   ar
    22     3     4   ar
    23     4     5   ar
    24     5     6   ar
    25     6    21    1
    26    21    22    1
    27    21    23    1
    28    21    24    1
    29    24    25    2
    30    24    26   am
    31    26    28    1
    32    28    29    1
    33    28    30    1
    34    28    31    1
    35     6     7   ar
    36     7     8   ar
    37     8     9   ar
    38     9     1   ar
    39    15    10   ar
    40     9     4   ar
    41    33    36    1
    42    26    27    1
@<TRIPOS>MOLECULE
*****
 40 42 0 0 0
SMALL
GASTEIGER

@<TRIPOS>ATOM
      1 N           5.3642   -1.2588   25.6909 N.ar    1  UNL1       -0.3189
      2 C           4.1363   -1.2036   24.8311 C.ar    1  UNL1        0.0603
      3 C           3.0322   -0.5887   25.6389 C.ar    1  UNL1        0.0186
      4 C           3.5776   -0.2638   26.9979 C.ar    1  UNL1        0.0169
      5 C           2.9480    0.3556   28.2103 C.ar    1  UNL1       -0.0023
      6 C           3.7598    0.5608   29.4548 C.ar    1  UNL1       -0.0145
      7 C           5.2011    0.1467   29.4870 C.ar    1  UNL1       -0.0023
      8 C           5.8307   -0.4727   28.2746 C.ar    1  UNL1        0.0169
      9 C           5.0189   -0.6780   27.0301 C.ar    1  UNL1        0.0602
     10 C           4.0311   -1.6797   23.4125 C.ar    1  UNL1        0.0160
     11 C           3.3473   -0.8282   22.3844 C.ar    1  UNL1        0.0045
     12 C           3.2420   -1.3043   20.9658 C.ar    1  UNL1        0.0372
     13 C           3.8207   -2.6320   20.5755 C.ar    1  UNL1        0.1468
     14 C           4.5046   -3.4835   21.6036 C.ar    1  UNL1        0.0372
     15 C           4.6098   -3.0074   23.0222 C.ar    1  UNL1        0.0045
     16 O           3.7155   -3.1081   19.1569 O.3     1  UNL1       -0.4045
     17 C           4.2675   -4.4489   18.7730 C.3     1  UNL1        0.5753
     18 F           4.8195   -5.7898   18.3890 F       1  UNL1       -0.1328
     19 F           2.9945   -5.1020   19.2236 F       1  UNL1       -0.1328
     20 F           5.5404   -3.7958   18.3224 F       1  UNL1       -0.1328
     21 C           3.1303    1.1803   30.6673 C.3     1  UNL1        0.0876
     22 C           2.9409   -0.1823   31.2652 C.3     1  UNL1        0.0135
     23 C           3.3196    2.5429   30.0695 C.3     1  UNL1        0.0135
     24 C           2.5008    1.7997   31.8797 C.2     1  UNL1        0.2252
     25 O           1.0298    1.6394   32.1258 O.2     1  UNL1       -0.2748
     26 N           3.3422    2.5796   32.8461 N.am    1  UNL1       -0.3072
     27 H           4.3077    2.6848   32.6846 H       1  UNL1        0.1493
     28 C           2.7127    3.1990   34.0585 C.3     1  UNL1        0.0569
     29 C           2.4455    4.4525   33.2793 C.3     1  UNL1        0.0196
     30 C           2.9800    1.9455   34.8378 C.3     1  UNL1        0.0196
     31 C           2.0832    3.8185   35.2709 C.3     1  UNL1        0.0196
     32 C           6.7025   -1.7998   25.2831 C.3     1  UNL1        0.1917
     33 N           6.4083   -4.3252   25.8174 N.am    1  UNL1       -0.3059
     34 C           7.2191   -3.0659   25.8993 C.2     1  UNL1        0.2455
     35 O           8.5467   -3.0729   26.5977 O.2     1  UNL1       -0.2730
     36 H           5.5370   -4.3207   25.3590 H       1  UNL1        0.1494
     37 C           7.5889   -5.9513   25.1377 C.3     1  UNL1        0.0196
     38 C           6.9250   -5.5914   26.4337 C.3     1  UNL1        0.0569
     39 C           6.2610   -5.2315   27.7297 C.3     1  UNL1        0.0196
     40 C           7.4416   -6.8576   27.0500 C.3     1  UNL1        0.0196
@<TRIPOS>BOND
     1    37    38    1
     2    38    39    1
     3    38    40    1
     4    38    33    1
     5    33    34   am
     6    34    35    2
     7    34    32    1
     8    32     1    1
     9     1     2   ar
    10     2    10    1
    11    10    11   ar
    12    11    12   ar
    13    12    13   ar
    14    13    16    1
    15    16    17    1
    16    17    18    1
    17    17    19    1
    18    17    20    1
    19    13    14   ar
    20    14    15   ar
    21     2     3   ar
    22     3     4   ar
    23     4     5   ar
    24     5     6   ar
    25     6    21    1
    26    21    22    1
    27    21    23    1
    28    21    24    1
    29    24    25    2
    30    24    26   am
    31    26    28    1
    32    28    29    1
    33    28    30    1
    34    28    31    1
    35     6     7   ar
    36     7     8   ar
    37     8     9   ar
    38     9     1   ar
    39    15    10   ar
    40     9     4   ar
    41    33    36    1
    42    26    27    1
@<TRIPOS>MOLECULE
*****
 40 42 0 0 0
SMALL
GASTEIGER

@<TRIPOS>ATOM
      1 N           4.0873   -1.3040   19.7634 N.ar    1  UNL1       -0.3189
      2 C           4.3342   -1.4929   21.2309 C.ar    1  UNL1        0.0603
      3 C           3.3337   -0.6633   21.9797 C.ar    1  UNL1        0.0186
      4 C           2.4684    0.0382   20.9751 C.ar    1  UNL1        0.0169
      5 C           1.3166    0.9864   21.1307 C.ar    1  UNL1       -0.0023
      6 C           0.6306    1.5387   19.9165 C.ar    1  UNL1       -0.0145
      7 C           1.0964    1.1427   18.5467 C.ar    1  UNL1       -0.0023
      8 C           2.2481    0.1945   18.3912 C.ar    1  UNL1        0.0169
      9 C           2.9342   -0.3577   19.6054 C.ar    1  UNL1        0.0602
     10 C           5.3953   -2.3592   21.8421 C.ar    1  UNL1        0.0160
     11 C           6.8415   -2.0984   21.5415 C.ar    1  UNL1        0.0045
     12 C           7.9026   -2.9647   22.1527 C.ar    1  UNL1        0.0372
     13 C           7.5175   -4.0918   23.0645 C.ar    1  UNL1        0.1468
     14 C           6.0712   -4.3525   23.3651 C.ar    1  UNL1        0.0372
     15 C           5.0102   -3.4862   22.7539 C.ar    1  UNL1        0.0045
     16 O           8.5786   -4.9581   23.6758 O.3     1  UNL1       -0.4045
     17 C           8.2831   -6.3937   23.9947 C.3     1  UNL1        0.5753
     18 F           7.9875   -7.8293   24.3136 F       1  UNL1       -0.1328
     19 F           8.6331   -6.7782   22.5877 F       1  UNL1       -0.1328
     20 F           7.9330   -6.0091   25.4016 F       1  UNL1       -0.1328
     21 C          -0.5212    2.4869   20.0720 C.3     1  UNL1        0.0876
     22 C          -0.4994    2.7555   18.5965 C.3     1  UNL1        0.0135
     23 C          -0.5430    2.2184   21.5476 C.3     1  UNL1        0.0135
     24 C          -1.6730    3.4351   20.2276 C.2     1  UNL1        0.2252
     25 O          -1.4418    4.9152   20.1503 O.2     1  UNL1       -0.2748
     26 N          -3.0562    2.9033   20.4605 N.am    1  UNL1       -0.3072
     27 H          -3.2080    1.9319   20.5112 H       1  UNL1        0.1493
     28 C          -4.2080    3.8515   20.6160 C.3     1  UNL1        0.0569
     29 C          -4.4380    3.8152   19.1342 C.3     1  UNL1        0.0196
     30 C          -3.9779    3.8878   22.0978 C.3     1  UNL1        0.0196
     31 C          -5.3597    4.7997   20.7716 C.3     1  UNL1        0.0196
     32 C           4.8581   -1.9483   18.6495 C.3     1  UNL1        0.1917
     33 N           6.1224    0.2577   18.1157 N.am    1  UNL1       -0.3059
     34 C           6.0290   -1.2374   18.0386 C.2     1  UNL1        0.2455
     35 O           7.1069   -2.0215   17.3505 O.2     1  UNL1       -0.2730
     36 H           5.4150    0.7724   18.5674 H       1  UNL1        0.1494
     37 C           6.5406    1.0993   16.2140 C.3     1  UNL1        0.0196
     38 C           7.2934    0.9686   17.5048 C.3     1  UNL1        0.0569
     39 C           8.0462    0.8379   18.7956 C.3     1  UNL1        0.0196
     40 C           8.4644    1.6795   16.8938 C.3     1  UNL1        0.0196
@<TRIPOS>BOND
     1    37    38    1
     2    38    39    1
     3    38    40    1
     4    38    33    1
     5    33    34   am
     6    34    35    2
     7    34    32    1
     8    32     1    1
     9     1     2   ar
    10     2    10    1
    11    10    11   ar
    12    11    12   ar
    13    12    13   ar
    14    13    16    1
    15    16    17    1
    16    17    18    1
    17    17    19    1
    18    17    20    1
    19    13    14   ar
    20    14    15   ar
    21     2     3   ar
    22     3     4   ar
    23     4     5   ar
    24     5     6   ar
    25     6    21    1
    26    21    22    1
    27    21    23    1
    28    21    24    1
    29    24    25    2
    30    24    26   am
    31    26    28    1
    32    28    29    1
    33    28    30    1
    34    28    31    1
    35     6     7   ar
    36     7     8   ar
    37     8     9   ar
    38     9     1   ar
    39    15    10   ar
    40     9     4   ar
    41    33    36    1
    42    26    27    1
@<TRIPOS>MOLECULE
*****
 40 42 0 0 0
SMALL
GASTEIGER

@<TRIPOS>ATOM
      1 N           6.6086   -2.5977   27.9623 N.ar    1  UNL1       -0.3189
      2 C           5.8165   -1.6339   28.7952 C.ar    1  UNL1        0.0603
      3 C           4.8146   -0.9641   27.9021 C.ar    1  UNL1        0.0186
      4 C           4.9876   -1.5139   26.5172 C.ar    1  UNL1        0.0169
      5 C           4.2787   -1.2256   25.2271 C.ar    1  UNL1       -0.0023
      6 C           4.6785   -1.9470   23.9743 C.ar    1  UNL1       -0.0145
      7 C           5.7873   -2.9566   24.0115 C.ar    1  UNL1       -0.0023
      8 C           6.4961   -3.2449   25.3016 C.ar    1  UNL1        0.0169
      9 C           6.0963   -2.5235   26.5544 C.ar    1  UNL1        0.0602
     10 C           5.9949   -1.3838   30.2634 C.ar    1  UNL1        0.0160
     11 C           6.2718    0.0044   30.7596 C.ar    1  UNL1        0.0045
     12 C           6.4502    0.2544   32.2278 C.ar    1  UNL1        0.0372
     13 C           6.3517   -0.8837   33.1998 C.ar    1  UNL1        0.1468
     14 C           6.0749   -2.2719   32.7037 C.ar    1  UNL1        0.0372
     15 C           5.8964   -2.5219   31.2355 C.ar    1  UNL1        0.0045
     16 O           6.5302   -0.6336   34.6680 O.3     1  UNL1       -0.4045
     17 C           5.3316   -0.5537   35.5663 C.3     1  UNL1        0.5753
     18 F           4.1329   -0.4738   36.4646 F       1  UNL1       -0.1328
     19 F           6.2240   -0.6637   36.7669 F       1  UNL1       -0.1328
     20 F           4.4391   -0.4437   34.3657 F       1  UNL1       -0.1328
     21 C           3.9696   -1.6588   22.6841 C.3     1  UNL1        0.0876
     22 C           4.8205   -2.6796   21.9885 C.3     1  UNL1        0.0135
     23 C           3.1188   -0.6379   23.3797 C.3     1  UNL1        0.0135
     24 C           3.2608   -1.3705   21.3940 C.2     1  UNL1        0.2252
     25 O           3.2228   -2.4077   20.3111 O.2     1  UNL1       -0.2748
     26 N           2.5898   -0.0450   21.1868 N.am    1  UNL1       -0.3072
     27 H           2.6147    0.6358   21.8976 H       1  UNL1        0.1493
     28 C           1.8809    0.2432   19.8967 C.3     1  UNL1        0.0569
     29 C           3.1609    0.7586   19.3086 C.3     1  UNL1        0.0196
     30 C           0.6009   -0.2721   20.4849 C.3     1  UNL1        0.0196
     31 C           1.1720    0.5315   18.6067 C.3     1  UNL1        0.0196
     32 C           7.7182   -3.4806   28.4514 C.3     1  UNL1        0.1917
     33 N           8.3863   -5.8011   27.4928 N.am    1  UNL1       -0.3059
     34 C           7.5564   -4.9716   28.4272 C.2     1  UNL1        0.2455
     35 O           6.5645   -5.6332   29.3376 O.2     1  UNL1       -0.2730
     36 H           9.0372   -5.3669   26.8953 H       1  UNL1        0.1494
     37 C           9.2371   -7.4198   28.5679 C.3     1  UNL1        0.0196
     38 C           8.2244   -7.2921   27.4687 C.3     1  UNL1        0.0569
     39 C           7.2117   -7.1644   26.3696 C.3     1  UNL1        0.0196
     40 C           8.0625   -8.7832   27.4446 C.3     1  UNL1        0.0196
@<TRIPOS>BOND
     1    37    38    1
     2    38    39    1
     3    38    40    1
     4    38    33    1
     5    33    34   am
     6    34    35    2
     7    34    32    1
     8    32     1    1
     9     1     2   ar
    10     2    10    1
    11    10    11   ar
    12    11    12   ar
    13    12    13   ar
    14    13    16    1
    15    16    17    1
    16    17    18    1
    17    17    19    1
    18    17    20    1
    19    13    14   ar
    20    14    15   ar
    21     2     3   ar
    22     3     4   ar
    23     4     5   ar
    24     5     6   ar
    25     6    21    1
    26    21    22    1
    27    21    23    1
    28    21    24    1
    29    24    25    2
    30    24    26   am
    31    26    28    1
    32    28    29    1
    33    28    30    1
    34    28    31    1
    35     6     7   ar
    36     7     8   ar
    37     8     9   ar
    38     9     1   ar
    39    15    10   ar
    40     9     4   ar
    41    33    36    1
    42    26    27    1
@<TRIPOS>MOLECULE
*****
 40 42 0 0 0
SMALL
GASTEIGER

@<TRIPOS>ATOM
      1 N           3.8381   -1.6603   20.6358 N.ar    1  UNL1       -0.3189
      2 C           3.1082   -0.7612   21.5891 C.ar    1  UNL1        0.0603
      3 C           3.5835   -1.0736   22.9770 C.ar    1  UNL1        0.0186
      4 C           4.6073   -2.1658   22.8816 C.ar    1  UNL1        0.0169
      5 C           5.4165   -2.8770   23.9253 C.ar    1  UNL1       -0.0023
      6 C           6.3830   -3.9507   23.5220 C.ar    1  UNL1       -0.0145
      7 C           6.5404   -4.3133   22.0750 C.ar    1  UNL1       -0.0023
      8 C           5.7312   -3.6022   21.0313 C.ar    1  UNL1        0.0169
      9 C           4.7646   -2.5284   21.4346 C.ar    1  UNL1        0.0602
     10 C           2.0829    0.2694   21.2193 C.ar    1  UNL1        0.0160
     11 C           0.8232   -0.1439   20.5176 C.ar    1  UNL1        0.0045
     12 C          -0.2021    0.8866   20.1479 C.ar    1  UNL1        0.0372
     13 C           0.0323    2.3305   20.4798 C.ar    1  UNL1        0.1468
     14 C           1.2919    2.7438   21.1815 C.ar    1  UNL1        0.0372
     15 C           2.3172    1.7133   21.5513 C.ar    1  UNL1        0.0045
     16 O          -0.9930    3.3611   20.1101 O.3     1  UNL1       -0.4045
     17 C          -2.4136    3.2024   20.5644 C.3     1  UNL1        0.5753
     18 F          -3.8344    3.0436   21.0187 F       1  UNL1       -0.1328
     19 F          -1.9410    3.0095   21.9748 F       1  UNL1       -0.1328
     20 F          -2.8863    3.3952   19.1539 F       1  UNL1       -0.1328
     21 C           7.1923   -4.6620   24.5657 C.3     1  UNL1        0.0876
     22 C           6.5352   -3.8406   25.6350 C.3     1  UNL1        0.0135
     23 C           7.8494   -5.4834   23.4964 C.3     1  UNL1        0.0135
     24 C           8.0016   -5.3732   25.6093 C.2     1  UNL1        0.2252
     25 O           9.4126   -4.9453   25.8848 O.2     1  UNL1       -0.2748
     26 N           7.3998   -6.5124   26.3776 N.am    1  UNL1       -0.3072
     27 H           6.4737   -6.7933   26.1968 H       1  UNL1        0.1493
     28 C           8.2091   -7.2236   27.4212 C.3     1  UNL1        0.0569
     29 C           7.7100   -6.2651   28.4614 C.3     1  UNL1        0.0196
     30 C           8.7081   -8.1822   26.3810 C.3     1  UNL1        0.0196
     31 C           9.0183   -7.9349   28.4648 C.3     1  UNL1        0.0196
     32 C           3.6710   -1.6867   19.1454 C.3     1  UNL1        0.1917
     33 N           4.8760    0.6082   18.9694 N.am    1  UNL1       -0.3059
     34 C           4.1920   -0.5537   18.3120 C.2     1  UNL1        0.2455
     35 O           4.0291   -0.5824   16.8211 O.2     1  UNL1       -0.2730
     36 H           4.9830    0.6272   19.9478 H       1  UNL1        0.1494
     37 C           6.6960    1.0127   17.9574 C.3     1  UNL1        0.0196
     38 C           5.3971    1.7413   18.1359 C.3     1  UNL1        0.0569
     39 C           4.0982    2.4699   18.3143 C.3     1  UNL1        0.0196
     40 C           5.9182    2.8743   17.3024 C.3     1  UNL1        0.0196
@<TRIPOS>BOND
     1    37    38    1
     2    38    39    1
     3    38    40    1
     4    38    33    1
     5    33    34   am
     6    34    35    2
     7    34    32    1
     8    32     1    1
     9     1     2   ar
    10     2    10    1
    11    10    11   ar
    12    11    12   ar
    13    12    13   ar
    14    13    16    1
    15    16    17    1
    16    17    18    1
    17    17    19    1
    18    17    20    1
    19    13    14   ar
    20    14    15   ar
    21     2     3   ar
    22     3     4   ar
    23     4     5   ar
    24     5     6   ar
    25     6    21    1
    26    21    22    1
    27    21    23    1
    28    21    24    1
    29    24    25    2
    30    24    26   am
    31    26    28    1
    32    28    29    1
    33    28    30    1
    34    28    31    1
    35     6     7   ar
    36     7     8   ar
    37     8     9   ar
    38     9     1   ar
    39    15    10   ar
    40     9     4   ar
    41    33    36    1
    42    26    27    1
@<TRIPOS>MOLECULE
*****
 40 42 0 0 0
SMALL
GASTEIGER

@<TRIPOS>ATOM
      1 N           1.7646    1.9209   27.5975 N.ar    1  UNL1       -0.3189
      2 C           1.1850    1.4076   28.8822 C.ar    1  UNL1        0.0603
      3 C          -0.2988    1.6236   28.8402 C.ar    1  UNL1        0.0186
      4 C          -0.6362    2.2704   27.5296 C.ar    1  UNL1        0.0169
      5 C          -1.9399    2.7158   26.9363 C.ar    1  UNL1       -0.0023
      6 C          -1.9683    3.3450   25.5750 C.ar    1  UNL1       -0.0145
      7 C          -0.6930    3.5288   24.8069 C.ar    1  UNL1       -0.0023
      8 C           0.6107    3.0834   25.4002 C.ar    1  UNL1        0.0169
      9 C           0.6391    2.4542   26.7615 C.ar    1  UNL1        0.0602
     10 C           1.9541    0.7871   30.0108 C.ar    1  UNL1        0.0160
     11 C           2.1406    1.5402   31.2945 C.ar    1  UNL1        0.0045
     12 C           2.9097    0.9198   32.4230 C.ar    1  UNL1        0.0372
     13 C           3.4922   -0.4537   32.2678 C.ar    1  UNL1        0.1468
     14 C           3.3057   -1.2068   30.9841 C.ar    1  UNL1        0.0372
     15 C           2.5366   -0.5863   29.8556 C.ar    1  UNL1        0.0045
     16 O           4.2613   -1.0741   33.3963 O.3     1  UNL1       -0.4045
     17 C           5.0593   -2.3226   33.1630 C.3     1  UNL1        0.5753
     18 F           5.8573   -3.5712   32.9297 F       1  UNL1       -0.1328
     19 F           3.9597   -3.1396   33.7742 F       1  UNL1       -0.1328
     20 F           6.1588   -1.5057   32.5519 F       1  UNL1       -0.1328
     21 C          -3.2720    3.7904   24.9816 C.3     1  UNL1        0.0876
     22 C          -3.8717    3.8640   26.3545 C.3     1  UNL1        0.0135
     23 C          -2.6723    3.7168   23.6088 C.3     1  UNL1        0.0135
     24 C          -4.5756    4.2358   24.3883 C.2     1  UNL1        0.2252
     25 O          -5.8583    3.9904   25.1262 O.2     1  UNL1       -0.2748
     26 N          -4.5966    4.9267   23.0569 N.am    1  UNL1       -0.3072
     27 H          -3.7547    5.0877   22.5726 H       1  UNL1        0.1493
     28 C          -5.9002    5.3721   22.4636 C.3     1  UNL1        0.0569
     29 C          -6.0366    4.0491   21.7700 C.3     1  UNL1        0.0196
     30 C          -5.7639    6.6951   23.1571 C.3     1  UNL1        0.0196
     31 C          -7.2039    5.8175   21.8702 C.3     1  UNL1        0.0196
     32 C           3.2151    1.9040   27.2158 C.3     1  UNL1        0.1917
     33 N           2.8568    0.0096   25.4743 N.am    1  UNL1       -0.3059
     34 C           3.6582    1.1702   25.9850 C.2     1  UNL1        0.2455
     35 O           4.9030    1.5968   25.2647 O.2     1  UNL1       -0.2730
     36 H           2.0398   -0.2704   25.9469 H       1  UNL1        0.1494
     37 C           4.1762   -1.6049   25.0840 C.3     1  UNL1        0.0196
     38 C           3.3000   -0.7242   24.2434 C.3     1  UNL1        0.0569
     39 C           2.4238    0.1565   23.4028 C.3     1  UNL1        0.0196
     40 C           3.7432   -1.4581   23.0126 C.3     1  UNL1        0.0196
@<TRIPOS>BOND
     1    37    38    1
     2    38    39    1
     3    38    40    1
     4    38    33    1
     5    33    34   am
     6    34    35    2
     7    34    32    1
     8    32     1    1
     9     1     2   ar
    10     2    10    1
    11    10    11   ar
    12    11    12   ar
    13    12    13   ar
    14    13    16    1
    15    16    17    1
    16    17    18    1
    17    17    19    1
    18    17    20    1
    19    13    14   ar
    20    14    15   ar
    21     2     3   ar
    22     3     4   ar
    23     4     5   ar
    24     5     6   ar
    25     6    21    1
    26    21    22    1
    27    21    23    1
    28    21    24    1
    29    24    25    2
    30    24    26   am
    31    26    28    1
    32    28    29    1
    33    28    30    1
    34    28    31    1
    35     6     7   ar
    36     7     8   ar
    37     8     9   ar
    38     9     1   ar
    39    15    10   ar
    40     9     4   ar
    41    33    36    1
    42    26    27    1
