@<TRIPOS>MOLECULE
*****
 37 41 0 0 0
SMALL
GASTEIGER

@<TRIPOS>ATOM
      1 C         -10.4296  -18.4040   20.3728 C.ar    1  UNL1        0.0686
      2 C          -9.2657  -18.1020   21.2694 C.ar    1  UNL1        0.0174
      3 C          -7.9843  -18.8669   21.1183 C.ar    1  UNL1        0.0160
      4 C          -7.8667  -19.9339   20.0706 C.ar    1  UNL1        0.0505
      5 C          -9.0307  -20.2359   19.1739 C.ar    1  UNL1        0.0160
      6 C         -10.3122  -19.4710   19.3250 C.ar    1  UNL1        0.0174
      7 N          -6.5853  -20.6988   19.9195 N.pl3   1  UNL1       -0.2825
      8 H          -6.5788  -21.5584   19.4396 H       1  UNL1        0.1551
      9 C          -5.3138  -20.1540   20.4996 C.ar    1  UNL1        0.2220
     10 N          -3.9889  -20.6431   19.9943 N.ar    1  UNL1       -0.2119
     11 C          -2.7174  -20.0983   20.5744 C.ar    1  UNL1        0.1065
     12 C          -2.7709  -19.0644   21.6598 C.ar    1  UNL1        0.0756
     13 C          -1.6925  -18.3487   22.4182 C.ar    1  UNL1        0.1247
     14 N          -2.3510  -17.4173   23.3922 N.ar    1  UNL1       -0.1664
     15 N          -3.8363  -17.5573   23.2358 N.ar    1  UNL1       -0.2359
     16 C          -4.0957  -18.5753   22.1651 C.ar    1  UNL1        0.1652
     17 N          -5.3672  -19.1201   21.5850 N.ar    1  UNL1       -0.1947
     18 C          -4.8790  -16.8105   24.0135 C.3     1  UNL1        0.1068
     19 C          -4.5192  -16.4769   25.4310 C.3     1  UNL1        0.0244
     20 C          -5.3352  -15.7465   26.4560 C.3     1  UNL1        0.0020
     21 C          -6.7126  -15.1691   26.3166 C.3     1  UNL1        0.0001
     22 C          -7.6142  -15.1797   25.1179 C.3     1  UNL1        0.0001
     23 C          -7.3611  -15.7701   23.7625 C.3     1  UNL1        0.0020
     24 C          -6.1438  -16.4959   23.2710 C.3     1  UNL1        0.0244
     25 N         -11.7110  -17.6391   20.5238 N.pl3   1  UNL1       -0.1929
     26 C         -12.1299  -15.0961   18.9884 C.3     1  UNL1        0.1999
     27 S         -11.9205  -16.3676   19.7561 S.O2    1  UNL1        0.0588
     28 O         -10.5577  -16.5114   19.1462 O.2     1  UNL1       -0.1542
     29 O         -13.2833  -16.2238   20.3660 O.2     1  UNL1       -0.1542
     30 C         -12.7830  -18.1457   21.4426 C.3     1  UNL1        0.1327
     31 C         -12.6707  -17.9216   22.9216 C.3     1  UNL1        0.0959
     32 N         -11.5512  -18.5550   23.6932 N.3     1  UNL1       -0.2669
     33 C         -11.2668  -20.0195   23.5364 C.3     1  UNL1        0.1047
     34 C         -10.1472  -20.6529   24.3080 C.3     1  UNL1        0.1595
     35 O          -9.3121  -19.8218   25.2365 O.3     1  UNL1       -0.3508
     36 C          -9.5966  -18.3574   25.3933 C.3     1  UNL1        0.1595
     37 C         -10.7161  -17.7240   24.6217 C.3     1  UNL1        0.1047
@<TRIPOS>BOND
     1    26    27    1
     2    27    28    2
     3    27    29    2
     4    27    25    1
     5    25    30    1
     6    30    31    1
     7    31    32    1
     8    32    33    1
     9    33    34    1
    10    34    35    1
    11    35    36    1
    12    36    37    1
    13    25     1    1
    14     1     2   ar
    15     2     3   ar
    16     3     4   ar
    17     4     7    1
    18     7     9    1
    19     9    10   ar
    20    10    11   ar
    21    11    12   ar
    22    12    13   ar
    23    13    14   ar
    24    14    15   ar
    25    15    18    1
    26    18    19    1
    27    19    20    1
    28    20    21    1
    29    21    22    1
    30    22    23    1
    31    23    24    1
    32    15    16   ar
    33    16    17   ar
    34     4     5   ar
    35     5     6   ar
    36    37    32    1
    37     6     1   ar
    38    17     9   ar
    39    16    12   ar
    40    24    18    1
    41     7     8    1
@<TRIPOS>MOLECULE
*****
 37 41 0 0 0
SMALL
GASTEIGER

@<TRIPOS>ATOM
      1 C           5.1761   -2.1023   21.9843 C.ar    1  UNL1        0.0686
      2 C           4.0438   -2.2283   22.9600 C.ar    1  UNL1        0.0174
      3 C           4.2927   -2.0366   24.4267 C.ar    1  UNL1        0.0160
      4 C           5.6740   -1.7189   24.9178 C.ar    1  UNL1        0.0505
      5 C           6.8064   -1.5929   23.9421 C.ar    1  UNL1        0.0160
      6 C           6.5574   -1.7846   22.4754 C.ar    1  UNL1        0.0174
      7 N           5.9229   -1.5272   26.3845 N.pl3   1  UNL1       -0.2825
      8 H           5.8544   -0.6292   26.7822 H       1  UNL1        0.1551
      9 C           6.2763   -2.7037   27.2454 C.ar    1  UNL1        0.2220
     10 N           6.6313   -4.0164   26.6124 N.ar    1  UNL1       -0.2119
     11 C           6.9847   -5.1928   27.4733 C.ar    1  UNL1        0.1065
     12 C           6.9830   -5.0565   28.9671 C.ar    1  UNL1        0.0756
     13 C           7.2858   -6.0334   30.0644 C.ar    1  UNL1        0.1247
     14 N           7.1179   -5.3244   31.3755 N.ar    1  UNL1       -0.1664
     15 N           6.7113   -3.9093   31.0885 N.ar    1  UNL1       -0.2359
     16 C           6.6279   -3.7438   29.6000 C.ar    1  UNL1        0.1652
     17 N           6.2746   -2.5674   28.7392 N.ar    1  UNL1       -0.1947
     18 C           6.4363   -2.8464   32.1105 C.3     1  UNL1        0.1068
     19 C           7.6045   -1.9812   32.4802 C.3     1  UNL1        0.0244
     20 C           7.6545   -0.8452   33.4584 C.3     1  UNL1        0.0020
     21 C           6.5485   -0.2937   34.3085 C.3     1  UNL1        0.0001
     22 C           5.1194   -0.7421   34.3904 C.3     1  UNL1        0.0001
     23 C           4.4434   -1.8527   33.6424 C.3     1  UNL1        0.0020
     24 C           5.0295   -2.7892   32.6278 C.3     1  UNL1        0.0244
     25 N           4.9272   -2.2940   20.5176 N.pl3   1  UNL1       -0.1929
     26 C           3.8859   -4.9183   19.5033 C.3     1  UNL1        0.1999
     27 S           4.4065   -3.6062   20.0105 S.O2    1  UNL1        0.0588
     28 O           5.6512   -4.2878   20.4963 O.2     1  UNL1       -0.1542
     29 O           3.1619   -2.9245   19.5246 O.2     1  UNL1       -0.1542
     30 C           5.1990   -1.1736   19.5580 C.3     1  UNL1        0.1327
     31 C           4.6192    0.1868   19.8098 C.3     1  UNL1        0.0959
     32 N           3.1387    0.4026   19.7023 N.3     1  UNL1       -0.2669
     33 C           2.2699    0.2606   20.9169 C.3     1  UNL1        0.1047
     34 C           0.7894    0.4764   20.8094 C.3     1  UNL1        0.1595
     35 O           0.1777    0.8344   19.4874 O.3     1  UNL1       -0.3508
     36 C           1.0465    0.9765   18.2729 C.3     1  UNL1        0.1595
     37 C           2.5270    0.7606   18.3804 C.3     1  UNL1        0.1047
@<TRIPOS>BOND
     1    26    27    1
     2    27    28    2
     3    27    29    2
     4    27    25    1
     5    25    30    1
     6    30    31    1
     7    31    32    1
     8    32    33    1
     9    33    34    1
    10    34    35    1
    11    35    36    1
    12    36    37    1
    13    25     1    1
    14     1     2   ar
    15     2     3   ar
    16     3     4   ar
    17     4     7    1
    18     7     9    1
    19     9    10   ar
    20    10    11   ar
    21    11    12   ar
    22    12    13   ar
    23    13    14   ar
    24    14    15   ar
    25    15    18    1
    26    18    19    1
    27    19    20    1
    28    20    21    1
    29    21    22    1
    30    22    23    1
    31    23    24    1
    32    15    16   ar
    33    16    17   ar
    34     4     5   ar
    35     5     6   ar
    36    37    32    1
    37     6     1   ar
    38    17     9   ar
    39    16    12   ar
    40    24    18    1
    41     7     8    1
@<TRIPOS>MOLECULE
*****
 37 41 0 0 0
SMALL
GASTEIGER

@<TRIPOS>ATOM
      1 C           2.8189    0.7240   18.6266 C.ar    1  UNL1        0.0686
      2 C           3.4090    2.1018   18.5679 C.ar    1  UNL1        0.0174
      3 C           2.5133    3.2955   18.4169 C.ar    1  UNL1        0.0160
      4 C           1.0274    3.1113   18.3247 C.ar    1  UNL1        0.0505
      5 C           0.4374    1.7335   18.3834 C.ar    1  UNL1        0.0160
      6 C           1.3332    0.5398   18.5344 C.ar    1  UNL1        0.0174
      7 N           0.1317    4.3050   18.1737 N.pl3   1  UNL1       -0.2825
      8 H           0.5216    5.2033   18.0725 H       1  UNL1        0.1551
      9 C          -1.3581    4.1300   18.1770 C.ar    1  UNL1        0.2220
     10 N          -2.1081    4.0623   16.8798 N.ar    1  UNL1       -0.2119
     11 C          -3.5979    3.8874   16.8831 C.ar    1  UNL1        0.1065
     12 C          -4.3375    3.7800   18.1837 C.ar    1  UNL1        0.0756
     13 C          -5.7935    3.6041   18.4987 C.ar    1  UNL1        0.1247
     14 N          -5.9432    3.5630   19.9907 N.ar    1  UNL1       -0.1664
     15 N          -4.5798    3.7135   20.5976 N.ar    1  UNL1       -0.2359
     16 C          -3.5874    3.8477   19.4809 C.ar    1  UNL1        0.1652
     17 N          -2.0977    4.0226   19.4775 N.ar    1  UNL1       -0.1947
     18 C          -4.2641    3.7275   22.0640 C.3     1  UNL1        0.1068
     19 C          -2.8084    3.6496   22.4172 C.3     1  UNL1        0.0244
     20 C          -2.1749    3.6425   23.7768 C.3     1  UNL1        0.0020
     21 C          -2.8408    3.7115   25.1191 C.3     1  UNL1        0.0001
     22 C          -4.3045    3.8047   25.4333 C.3     1  UNL1        0.0001
     23 C          -5.4640    3.8519   24.4828 C.3     1  UNL1        0.0020
     24 C          -5.4460    3.8175   22.9833 C.3     1  UNL1        0.0244
     25 N           3.7146   -0.4697   18.7776 N.pl3   1  UNL1       -0.1929
     26 C           6.3814   -0.5272   17.4046 C.3     1  UNL1        0.1999
     27 S           5.0481   -0.4984   18.0911 S.O2    1  UNL1        0.0588
     28 O           4.3728   -0.8303   16.7935 O.2     1  UNL1       -0.1542
     29 O           5.7233   -0.1665   19.3887 O.2     1  UNL1       -0.1542
     30 C           3.2770   -1.6347   19.6150 C.3     1  UNL1        0.1327
     31 C           3.9578   -2.9630   19.4663 C.3     1  UNL1        0.0959
     32 N           4.9705   -3.4045   20.4810 N.3     1  UNL1       -0.2669
     33 C           6.3664   -3.7434   20.0490 C.3     1  UNL1        0.1047
     34 C           7.3791   -4.1849   21.0637 C.3     1  UNL1        0.1595
     35 O           6.9958   -4.2875   22.5103 O.3     1  UNL1       -0.3508
     36 C           5.5999   -3.9487   22.9422 C.3     1  UNL1        0.1595
     37 C           4.5872   -3.5072   21.9275 C.3     1  UNL1        0.1047
@<TRIPOS>BOND
     1    26    27    1
     2    27    28    2
     3    27    29    2
     4    27    25    1
     5    25    30    1
     6    30    31    1
     7    31    32    1
     8    32    33    1
     9    33    34    1
    10    34    35    1
    11    35    36    1
    12    36    37    1
    13    25     1    1
    14     1     2   ar
    15     2     3   ar
    16     3     4   ar
    17     4     7    1
    18     7     9    1
    19     9    10   ar
    20    10    11   ar
    21    11    12   ar
    22    12    13   ar
    23    13    14   ar
    24    14    15   ar
    25    15    18    1
    26    18    19    1
    27    19    20    1
    28    20    21    1
    29    21    22    1
    30    22    23    1
    31    23    24    1
    32    15    16   ar
    33    16    17   ar
    34     4     5   ar
    35     5     6   ar
    36    37    32    1
    37     6     1   ar
    38    17     9   ar
    39    16    12   ar
    40    24    18    1
    41     7     8    1
@<TRIPOS>MOLECULE
*****
 37 41 0 0 0
SMALL
GASTEIGER

@<TRIPOS>ATOM
      1 C           2.6834   -0.4945   19.0426 C.ar    1  UNL1        0.0686
      2 C           2.0419    0.6539   18.3217 C.ar    1  UNL1        0.0174
      3 C           0.9045    1.3971   18.9571 C.ar    1  UNL1        0.0160
      4 C           0.4085    0.9919   20.3136 C.ar    1  UNL1        0.0505
      5 C           1.0499   -0.1565   21.0345 C.ar    1  UNL1        0.0160
      6 C           2.1874   -0.8997   20.3990 C.ar    1  UNL1        0.0174
      7 N          -0.7290    1.7351   20.9490 N.pl3   1  UNL1       -0.2825
      8 H          -1.6581    1.4900   20.7346 H       1  UNL1        0.1551
      9 C          -0.4509    2.8519   21.9111 C.ar    1  UNL1        0.2220
     10 N          -0.4269    4.2711   21.4262 N.ar    1  UNL1       -0.2119
     11 C          -0.1488    5.3878   22.3883 C.ar    1  UNL1        0.1065
     12 C           0.1053    5.0852   23.8353 C.ar    1  UNL1        0.0756
     13 C           0.4049    5.9709   25.0083 C.ar    1  UNL1        0.1247
     14 N           0.5661    5.0991   26.2182 N.ar    1  UNL1       -0.1664
     15 N           0.3660    3.6746   25.7929 N.ar    1  UNL1       -0.2359
     16 C           0.0813    3.6660   24.3203 C.ar    1  UNL1        0.1652
     17 N          -0.1968    2.5494   23.3582 N.ar    1  UNL1       -0.1947
     18 C           0.4382    2.4700   26.6839 C.3     1  UNL1        0.1068
     19 C          -0.8610    2.0315   27.2920 C.3     1  UNL1        0.0244
     20 C          -1.1194    0.8779   28.2153 C.3     1  UNL1        0.0020
     21 C          -0.1422   -0.1220   28.7587 C.3     1  UNL1        0.0001
     22 C           1.3345   -0.2154   28.5130 C.3     1  UNL1        0.0001
     23 C           2.1989    0.6681   27.6631 C.3     1  UNL1        0.0020
     24 C           1.8000    1.8632   26.8492 C.3     1  UNL1        0.0244
     25 N           3.8209   -1.2377   18.4072 N.pl3   1  UNL1       -0.1929
     26 C           5.8876    0.2522   16.8232 C.3     1  UNL1        0.1999
     27 S           4.8543   -0.4927   17.6152 S.O2    1  UNL1        0.0588
     28 O           4.2414   -0.9962   16.3421 O.2     1  UNL1       -0.1542
     29 O           5.4671    0.0108   18.8883 O.2     1  UNL1       -0.1542
     30 C           3.9250   -2.7259   18.5637 C.3     1  UNL1        0.1327
     31 C           5.2452   -3.3542   18.8991 C.3     1  UNL1        0.0959
     32 N           5.6363   -3.5576   20.3328 N.3     1  UNL1       -0.2669
     33 C           7.0589   -3.8786   20.6839 C.3     1  UNL1        0.1047
     34 C           7.4500   -4.0820   22.1176 C.3     1  UNL1        0.1595
     35 O           6.4185   -3.9646   23.2003 O.3     1  UNL1       -0.3508
     36 C           4.9959   -3.6437   22.8493 C.3     1  UNL1        0.1595
     37 C           4.6048   -3.4402   21.4155 C.3     1  UNL1        0.1047
@<TRIPOS>BOND
     1    26    27    1
     2    27    28    2
     3    27    29    2
     4    27    25    1
     5    25    30    1
     6    30    31    1
     7    31    32    1
     8    32    33    1
     9    33    34    1
    10    34    35    1
    11    35    36    1
    12    36    37    1
    13    25     1    1
    14     1     2   ar
    15     2     3   ar
    16     3     4   ar
    17     4     7    1
    18     7     9    1
    19     9    10   ar
    20    10    11   ar
    21    11    12   ar
    22    12    13   ar
    23    13    14   ar
    24    14    15   ar
    25    15    18    1
    26    18    19    1
    27    19    20    1
    28    20    21    1
    29    21    22    1
    30    22    23    1
    31    23    24    1
    32    15    16   ar
    33    16    17   ar
    34     4     5   ar
    35     5     6   ar
    36    37    32    1
    37     6     1   ar
    38    17     9   ar
    39    16    12   ar
    40    24    18    1
    41     7     8    1
@<TRIPOS>MOLECULE
*****
 37 41 0 0 0
SMALL
GASTEIGER

@<TRIPOS>ATOM
      1 C          -3.6997  -18.8456   21.2337 C.ar    1  UNL1        0.0686
      2 C          -4.2131  -18.5299   19.8602 C.ar    1  UNL1        0.0174
      3 C          -5.5412  -19.0659   19.4143 C.ar    1  UNL1        0.0160
      4 C          -6.3560  -19.9177   20.3421 C.ar    1  UNL1        0.0505
      5 C          -5.8426  -20.2334   21.7157 C.ar    1  UNL1        0.0160
      6 C          -4.5144  -19.6974   22.1615 C.ar    1  UNL1        0.0174
      7 N          -7.6841  -20.4537   19.8962 N.pl3   1  UNL1       -0.2825
      8 H          -7.7414  -21.3453   19.4827 H       1  UNL1        0.1551
      9 C          -8.9249  -19.6312   20.0804 C.ar    1  UNL1        0.2220
     10 N          -9.9499  -19.5649   18.9872 N.ar    1  UNL1       -0.2119
     11 C         -11.1907  -18.7424   19.1714 C.ar    1  UNL1        0.1065
     12 C         -11.4065  -17.9862   20.4487 C.ar    1  UNL1        0.0756
     13 C         -12.5231  -17.0989   20.9133 C.ar    1  UNL1        0.1247
     14 N         -12.1882  -16.6167   22.2937 N.ar    1  UNL1       -0.1664
     15 N         -10.8647  -17.2061   22.6821 N.ar    1  UNL1       -0.2359
     16 C         -10.3815  -18.0525   21.5418 C.ar    1  UNL1        0.1652
     17 N          -9.1408  -18.8749   21.3577 N.ar    1  UNL1       -0.1947
     18 C         -10.1497  -16.9875   23.9825 C.3     1  UNL1        0.1068
     19 C         -10.0937  -18.1716   24.9016 C.3     1  UNL1        0.0244
     20 C          -9.4595  -18.2743   26.2570 C.3     1  UNL1        0.0020
     21 C          -8.7246  -17.2183   27.0281 C.3     1  UNL1        0.0001
     22 C          -8.4424  -15.7987   26.6343 C.3     1  UNL1        0.0001
     23 C          -8.8254  -15.0845   25.3721 C.3     1  UNL1        0.0020
     24 C          -9.5852  -15.6136   24.1919 C.3     1  UNL1        0.0244
     25 N          -2.3716  -18.3096   21.6796 N.pl3   1  UNL1       -0.1929
     26 C          -0.2120  -17.7864   19.6641 C.3     1  UNL1        0.1999
     27 S          -1.2918  -18.0480   20.6718 S.O2    1  UNL1        0.0588
     28 O          -1.4716  -16.5712   20.8625 O.2     1  UNL1       -0.1542
     29 O          -1.1119  -19.5249   20.4811 O.2     1  UNL1       -0.1542
     30 C          -2.1233  -18.0352   23.1332 C.3     1  UNL1        0.1327
     31 C          -3.2493  -18.1380   24.1189 C.3     1  UNL1        0.0959
     32 N          -4.0936  -16.9355   24.4212 N.3     1  UNL1       -0.2669
     33 C          -4.3690  -16.5511   25.8447 C.3     1  UNL1        0.1047
     34 C          -5.2132  -15.3487   26.1470 C.3     1  UNL1        0.1595
     35 O          -5.7821  -14.5307   25.0257 O.3     1  UNL1       -0.3508
     36 C          -5.5067  -14.9151   23.6022 C.3     1  UNL1        0.1595
     37 C          -4.6625  -16.1175   23.2999 C.3     1  UNL1        0.1047
@<TRIPOS>BOND
     1    26    27    1
     2    27    28    2
     3    27    29    2
     4    27    25    1
     5    25    30    1
     6    30    31    1
     7    31    32    1
     8    32    33    1
     9    33    34    1
    10    34    35    1
    11    35    36    1
    12    36    37    1
    13    25     1    1
    14     1     2   ar
    15     2     3   ar
    16     3     4   ar
    17     4     7    1
    18     7     9    1
    19     9    10   ar
    20    10    11   ar
    21    11    12   ar
    22    12    13   ar
    23    13    14   ar
    24    14    15   ar
    25    15    18    1
    26    18    19    1
    27    19    20    1
    28    20    21    1
    29    21    22    1
    30    22    23    1
    31    23    24    1
    32    15    16   ar
    33    16    17   ar
    34     4     5   ar
    35     5     6   ar
    36    37    32    1
    37     6     1   ar
    38    17     9   ar
    39    16    12   ar
    40    24    18    1
    41     7     8    1
@<TRIPOS>MOLECULE
*****
 37 41 0 0 0
SMALL
GASTEIGER

@<TRIPOS>ATOM
      1 C           2.7073    1.6243   18.7922 C.ar    1  UNL1        0.0686
      2 C           1.2697    1.2134   18.6720 C.ar    1  UNL1        0.0174
      3 C           0.2301    2.2247   18.2892 C.ar    1  UNL1        0.0160
      4 C           0.6281    3.6470   18.0267 C.ar    1  UNL1        0.0505
      5 C           2.0657    4.0579   18.1469 C.ar    1  UNL1        0.0160
      6 C           3.1053    3.0465   18.5297 C.ar    1  UNL1        0.0174
      7 N          -0.4115    4.6582   17.6439 N.pl3   1  UNL1       -0.2825
      8 H          -0.1383    5.5333   17.2850 H       1  UNL1        0.1551
      9 C          -1.8673    4.3361   17.8078 C.ar    1  UNL1        0.2220
     10 N          -2.7469    4.2040   16.6000 N.ar    1  UNL1       -0.2119
     11 C          -4.2027    3.8819   16.7640 C.ar    1  UNL1        0.1065
     12 C          -4.7789    3.6920   18.1358 C.ar    1  UNL1        0.0756
     13 C          -6.1665    3.3701   18.6059 C.ar    1  UNL1        0.1247
     14 N          -6.1445    3.3033   20.1042 N.ar    1  UNL1       -0.1664
     15 N          -4.7433    3.5839   20.5602 N.ar    1  UNL1       -0.2359
     16 C          -3.8993    3.8242   19.3437 C.ar    1  UNL1        0.1652
     17 N          -2.4436    4.1463   19.1797 N.ar    1  UNL1       -0.1947
     18 C          -4.2693    3.6183   21.9829 C.3     1  UNL1        0.1068
     19 C          -5.3457    3.6258   23.0275 C.3     1  UNL1        0.0244
     20 C          -5.2003    3.6574   24.5201 C.3     1  UNL1        0.0020
     21 C          -3.9424    3.6895   25.3367 C.3     1  UNL1        0.0001
     22 C          -2.5194    3.6978   24.8624 C.3     1  UNL1        0.0001
     23 C          -2.0028    3.6761   23.4544 C.3     1  UNL1        0.0020
     24 C          -2.7816    3.6407   22.1729 C.3     1  UNL1        0.0244
     25 N           3.7469    0.6131   19.1750 N.pl3   1  UNL1       -0.1929
     26 C           5.9155   -0.1169   17.2348 C.3     1  UNL1        0.1999
     27 S           4.8312    0.2481   18.2049 S.O2    1  UNL1        0.0588
     28 O           5.8541    0.8514   19.1212 O.2     1  UNL1       -0.1542
     29 O           3.8084   -0.3553   17.2885 O.2     1  UNL1       -0.1542
     30 C           3.7022   -0.0332   20.5279 C.3     1  UNL1        0.1327
     31 C           3.1411   -1.4160   20.6803 C.3     1  UNL1        0.0959
     32 N           3.9720   -2.6079   20.3073 N.3     1  UNL1       -0.2669
     33 C           5.3361   -2.7878   20.9049 C.3     1  UNL1        0.1047
     34 C           6.1669   -3.9797   20.5319 C.3     1  UNL1        0.1595
     35 O           5.6337   -4.9916   19.5614 O.3     1  UNL1       -0.3508
     36 C           4.2697   -4.8116   18.9639 C.3     1  UNL1        0.1595
     37 C           3.4388   -3.6197   19.3369 C.3     1  UNL1        0.1047
@<TRIPOS>BOND
     1    26    27    1
     2    27    28    2
     3    27    29    2
     4    27    25    1
     5    25    30    1
     6    30    31    1
     7    31    32    1
     8    32    33    1
     9    33    34    1
    10    34    35    1
    11    35    36    1
    12    36    37    1
    13    25     1    1
    14     1     2   ar
    15     2     3   ar
    16     3     4   ar
    17     4     7    1
    18     7     9    1
    19     9    10   ar
    20    10    11   ar
    21    11    12   ar
    22    12    13   ar
    23    13    14   ar
    24    14    15   ar
    25    15    18    1
    26    18    19    1
    27    19    20    1
    28    20    21    1
    29    21    22    1
    30    22    23    1
    31    23    24    1
    32    15    16   ar
    33    16    17   ar
    34     4     5   ar
    35     5     6   ar
    36    37    32    1
    37     6     1   ar
    38    17     9   ar
    39    16    12   ar
    40    24    18    1
    41     7     8    1
@<TRIPOS>MOLECULE
*****
 37 41 0 0 0
SMALL
GASTEIGER

@<TRIPOS>ATOM
      1 C           3.0245   -0.2254   28.0415 C.ar    1  UNL1        0.0686
      2 C           2.8389    0.5214   26.7540 C.ar    1  UNL1        0.0174
      3 C           3.8100    0.3269   25.6274 C.ar    1  UNL1        0.0160
      4 C           4.9668   -0.6145   25.7885 C.ar    1  UNL1        0.0505
      5 C           5.1523   -1.3613   27.0760 C.ar    1  UNL1        0.0160
      6 C           4.1811   -1.1668   28.2026 C.ar    1  UNL1        0.0174
      7 N           5.9379   -0.8090   24.6620 N.pl3   1  UNL1       -0.2825
      8 H           6.8016   -0.3366   24.6695 H       1  UNL1        0.1551
      9 C           5.5930   -1.7233   23.5239 C.ar    1  UNL1        0.2220
     10 N           6.1766   -3.1040   23.4676 N.ar    1  UNL1       -0.2119
     11 C           5.8317   -4.0182   22.3296 C.ar    1  UNL1        0.1065
     12 C           4.9032   -3.5517   21.2477 C.ar    1  UNL1        0.0756
     13 C           4.3844   -4.2244   20.0114 C.ar    1  UNL1        0.1247
     14 N           3.4801   -3.2593   19.3035 N.ar    1  UNL1       -0.1664
     15 N           3.4401   -1.9904   20.1024 N.ar    1  UNL1       -0.2359
     16 C           4.3196   -2.1711   21.3040 C.ar    1  UNL1        0.1652
     17 N           4.6645   -1.2569   22.4420 N.ar    1  UNL1       -0.1947
     18 C           2.6579   -0.7572   19.7598 C.3     1  UNL1        0.1068
     19 C           3.3486    0.2219   18.8574 C.3     1  UNL1        0.0244
     20 C           2.8404    1.5338   18.3373 C.3     1  UNL1        0.0020
     21 C           1.5160    2.1907   18.5911 C.3     1  UNL1        0.0001
     22 C           0.3727    1.6980   19.4277 C.3     1  UNL1        0.0001
     23 C           0.2714    0.4266   20.2172 C.3     1  UNL1        0.0020
     24 C           1.2884   -0.6661   20.3650 C.3     1  UNL1        0.0244
     25 N           2.0534   -0.0309   29.1680 N.pl3   1  UNL1       -0.1929
     26 C           3.0517    0.7125   31.8976 C.3     1  UNL1        0.1999
     27 S           2.5525    0.3409   30.5329 S.O2    1  UNL1        0.0588
     28 O           2.2400   -1.0416   31.0237 O.2     1  UNL1       -0.1542
     29 O           2.8651    1.7234   30.0420 O.2     1  UNL1       -0.1542
     30 C           0.5830   -0.2081   28.9298 C.3     1  UNL1        0.1327
     31 C          -0.3304    0.9814   28.9601 C.3     1  UNL1        0.0959
     32 N          -0.2326    2.0295   27.8915 N.3     1  UNL1       -0.2669
     33 C          -0.6881    1.7222   26.4957 C.3     1  UNL1        0.1047
     34 C          -0.5903    2.7703   25.4271 C.3     1  UNL1        0.1595
     35 O          -0.0371    4.1257   25.7542 O.3     1  UNL1       -0.3508
     36 C           0.4183    4.4329   27.1500 C.3     1  UNL1        0.1595
     37 C           0.3205    3.3848   28.2186 C.3     1  UNL1        0.1047
@<TRIPOS>BOND
     1    26    27    1
     2    27    28    2
     3    27    29    2
     4    27    25    1
     5    25    30    1
     6    30    31    1
     7    31    32    1
     8    32    33    1
     9    33    34    1
    10    34    35    1
    11    35    36    1
    12    36    37    1
    13    25     1    1
    14     1     2   ar
    15     2     3   ar
    16     3     4   ar
    17     4     7    1
    18     7     9    1
    19     9    10   ar
    20    10    11   ar
    21    11    12   ar
    22    12    13   ar
    23    13    14   ar
    24    14    15   ar
    25    15    18    1
    26    18    19    1
    27    19    20    1
    28    20    21    1
    29    21    22    1
    30    22    23    1
    31    23    24    1
    32    15    16   ar
    33    16    17   ar
    34     4     5   ar
    35     5     6   ar
    36    37    32    1
    37     6     1   ar
    38    17     9   ar
    39    16    12   ar
    40    24    18    1
    41     7     8    1
@<TRIPOS>MOLECULE
*****
 37 41 0 0 0
SMALL
GASTEIGER

@<TRIPOS>ATOM
      1 C           5.4538   -0.7741   33.9008 C.ar    1  UNL1        0.0686
      2 C           4.4529   -1.8725   33.6962 C.ar    1  UNL1        0.0174
      3 C           4.8695   -3.1533   33.0360 C.ar    1  UNL1        0.0160
      4 C           6.2871   -3.3358   32.5805 C.ar    1  UNL1        0.0505
      5 C           7.2879   -2.2374   32.7851 C.ar    1  UNL1        0.0160
      6 C           6.8712   -0.9565   33.4453 C.ar    1  UNL1        0.0174
      7 N           6.7037   -4.6167   31.9203 N.pl3   1  UNL1       -0.2825
      8 H           6.9198   -5.4053   32.4685 H       1  UNL1        0.1551
      9 C           6.7909   -4.6959   30.4249 C.ar    1  UNL1        0.2220
     10 N           7.3794   -5.9109   29.7713 N.ar    1  UNL1       -0.2119
     11 C           7.4666   -5.9901   28.2759 C.ar    1  UNL1        0.1065
     12 C           6.9653   -4.8542   27.4342 C.ar    1  UNL1        0.0756
     13 C           6.9198   -4.6495   25.9489 C.ar    1  UNL1        0.1247
     14 N           6.3032   -3.3079   25.6846 N.ar    1  UNL1       -0.1664
     15 N           5.9676   -2.6835   27.0065 N.ar    1  UNL1       -0.2359
     16 C           6.3768   -3.6392   28.0878 C.ar    1  UNL1        0.1652
     17 N           6.2896   -3.5600   29.5832 N.ar    1  UNL1       -0.1947
     18 C           5.3341   -1.3394   27.2112 C.3     1  UNL1        0.1068
     19 C           4.0205   -1.1267   26.5189 C.3     1  UNL1        0.0244
     20 C           3.1463    0.0922   26.5255 C.3     1  UNL1        0.0020
     21 C           3.3698    1.3995   27.2262 C.3     1  UNL1        0.0001
     22 C           4.5226    1.8108   28.0932 C.3     1  UNL1        0.0001
     23 C           5.7367    1.0164   28.4738 C.3     1  UNL1        0.0020
     24 C           6.0978   -0.3855   28.0813 C.3     1  UNL1        0.0244
     25 N           5.0372    0.5067   34.5610 N.pl3   1  UNL1       -0.1929
     26 C           6.4894    1.4790   36.9994 C.3     1  UNL1        0.1999
     27 S           5.7633    0.9928   35.7803 S.O2    1  UNL1        0.0588
     28 O           6.3312    2.1326   34.9876 O.2     1  UNL1       -0.1542
     29 O           5.1954   -0.1469   36.5729 O.2     1  UNL1       -0.1542
     30 C           3.8944    1.3015   34.0020 C.3     1  UNL1        0.1327
     31 C           3.9171    1.7409   32.5679 C.3     1  UNL1        0.0959
     32 N           2.8478    1.2761   31.6242 N.3     1  UNL1       -0.2669
     33 C           3.0060   -0.0242   30.8931 C.3     1  UNL1        0.1047
     34 C           1.9368   -0.4889   29.9494 C.3     1  UNL1        0.1595
     35 O           0.7092    0.3466   29.7367 O.3     1  UNL1       -0.3508
     36 C           0.5510    1.6468   30.4677 C.3     1  UNL1        0.1595
     37 C           1.6203    2.1115   31.4114 C.3     1  UNL1        0.1047
@<TRIPOS>BOND
     1    26    27    1
     2    27    28    2
     3    27    29    2
     4    27    25    1
     5    25    30    1
     6    30    31    1
     7    31    32    1
     8    32    33    1
     9    33    34    1
    10    34    35    1
    11    35    36    1
    12    36    37    1
    13    25     1    1
    14     1     2   ar
    15     2     3   ar
    16     3     4   ar
    17     4     7    1
    18     7     9    1
    19     9    10   ar
    20    10    11   ar
    21    11    12   ar
    22    12    13   ar
    23    13    14   ar
    24    14    15   ar
    25    15    18    1
    26    18    19    1
    27    19    20    1
    28    20    21    1
    29    21    22    1
    30    22    23    1
    31    23    24    1
    32    15    16   ar
    33    16    17   ar
    34     4     5   ar
    35     5     6   ar
    36    37    32    1
    37     6     1   ar
    38    17     9   ar
    39    16    12   ar
    40    24    18    1
    41     7     8    1
@<TRIPOS>MOLECULE
*****
 37 41 0 0 0
SMALL
GASTEIGER

@<TRIPOS>ATOM
      1 C           2.9038    0.6691   18.6129 C.ar    1  UNL1        0.0686
      2 C           1.4149    0.5017   18.5414 C.ar    1  UNL1        0.0174
      3 C           0.5284    1.7078   18.4443 C.ar    1  UNL1        0.0160
      4 C           1.1307    3.0813   18.4187 C.ar    1  UNL1        0.0505
      5 C           2.6197    3.2487   18.4901 C.ar    1  UNL1        0.0160
      6 C           3.5062    2.0426   18.5872 C.ar    1  UNL1        0.0174
      7 N           0.2442    4.2874   18.3216 N.pl3   1  UNL1       -0.2825
      8 H           0.6403    5.1881   18.2887 H       1  UNL1        0.1551
      9 C          -1.2459    4.1211   18.2745 C.ar    1  UNL1        0.2220
     10 N          -1.9522    4.0586   16.9527 N.ar    1  UNL1       -0.2119
     11 C          -3.4421    3.8923   16.9057 C.ar    1  UNL1        0.1065
     12 C          -4.2258    3.7886   18.1805 C.ar    1  UNL1        0.0756
     13 C          -5.6926    3.6210   18.4461 C.ar    1  UNL1        0.1247
     14 N          -5.8928    3.5800   19.9321 N.ar    1  UNL1       -0.1664
     15 N          -4.5498    3.7222   20.5849 N.ar    1  UNL1       -0.2359
     16 C          -3.5195    3.8511   19.5023 C.ar    1  UNL1        0.1652
     17 N          -2.0295    4.0174   19.5493 N.ar    1  UNL1       -0.1947
     18 C          -4.2836    3.7335   22.0610 C.3     1  UNL1        0.1068
     19 C          -2.8406    3.6552   22.4628 C.3     1  UNL1        0.0244
     20 C          -2.2533    3.6457   23.8430 C.3     1  UNL1        0.0020
     21 C          -2.9639    3.7121   25.1623 C.3     1  UNL1        0.0001
     22 C          -4.4374    3.8044   25.4272 C.3     1  UNL1        0.0001
     23 C          -5.5642    3.8532   24.4383 C.3     1  UNL1        0.0020
     24 C          -5.4958    3.8216   22.9402 C.3     1  UNL1        0.0244
     25 N           3.7903   -0.5369   18.7100 N.pl3   1  UNL1       -0.1929
     26 C           6.5247   -0.4918   17.4766 C.3     1  UNL1        0.1999
     27 S           5.1576   -0.5143   18.0933 S.O2    1  UNL1        0.0588
     28 O           4.5756   -0.9657   16.7866 O.2     1  UNL1       -0.1542
     29 O           5.7396   -0.0630   19.4000 O.2     1  UNL1       -0.1542
     30 C           3.3097   -1.7655   19.4237 C.3     1  UNL1        0.1327
     31 C           4.0854   -2.3088   20.5871 C.3     1  UNL1        0.0959
     32 N           3.8405   -1.7742   21.9670 N.3     1  UNL1       -0.2669
     33 C           4.5569   -2.3727   23.1412 C.3     1  UNL1        0.1047
     34 C           4.3120   -1.8381   24.5212 C.3     1  UNL1        0.1595
     35 O           3.3507   -0.7051   24.7269 O.3     1  UNL1       -0.3508
     36 C           2.6343   -0.1068   23.5528 C.3     1  UNL1        0.1595
     37 C           2.8792   -0.6413   22.1728 C.3     1  UNL1        0.1047
@<TRIPOS>BOND
     1    26    27    1
     2    27    28    2
     3    27    29    2
     4    27    25    1
     5    25    30    1
     6    30    31    1
     7    31    32    1
     8    32    33    1
     9    33    34    1
    10    34    35    1
    11    35    36    1
    12    36    37    1
    13    25     1    1
    14     1     2   ar
    15     2     3   ar
    16     3     4   ar
    17     4     7    1
    18     7     9    1
    19     9    10   ar
    20    10    11   ar
    21    11    12   ar
    22    12    13   ar
    23    13    14   ar
    24    14    15   ar
    25    15    18    1
    26    18    19    1
    27    19    20    1
    28    20    21    1
    29    21    22    1
    30    22    23    1
    31    23    24    1
    32    15    16   ar
    33    16    17   ar
    34     4     5   ar
    35     5     6   ar
    36    37    32    1
    37     6     1   ar
    38    17     9   ar
    39    16    12   ar
    40    24    18    1
    41     7     8    1
