@<TRIPOS>MOLECULE
*****
 25 27 0 0 0
SMALL
GASTEIGER

@<TRIPOS>ATOM
      1 C          -9.1851  -17.7582   21.8655 C.3     1  UNL1        0.0909
      2 C          -8.5528  -16.9750   22.9777 C.ar    1  UNL1        0.0651
      3 C          -9.1152  -17.0559   24.3659 C.ar    1  UNL1        0.0151
      4 C          -8.4829  -16.2727   25.4781 C.ar    1  UNL1        0.0028
      5 C          -7.2882  -15.4088   25.2020 C.ar    1  UNL1        0.0207
      6 C          -6.7258  -15.3279   23.8137 C.ar    1  UNL1        0.0985
      7 N          -7.3581  -16.1111   22.7016 N.ar    1  UNL1       -0.2478
      8 C         -10.3939  -17.2178   21.1606 C.ar    1  UNL1        0.0603
      9 C         -11.7909  -17.7527   21.2702 C.ar    1  UNL1        0.1135
     10 N         -12.6783  -16.9131   20.3997 N.ar    1  UNL1       -0.2229
     11 C         -11.8296  -15.8593   19.7522 C.ar    1  UNL1        0.1748
     12 N         -10.4178  -16.0476   20.2224 N.ar    1  UNL1       -0.3379
     13 H          -9.6428  -15.4995   19.9612 H       1  UNL1        0.1672
     14 C          -8.6086  -19.0818   21.4582 C.3     1  UNL1        0.0740
     15 S          -7.4037  -19.6251   22.1673 S.3     1  UNL1       -0.1129
     16 C          -3.2759  -18.6083   20.6917 C.ar    1  UNL1       -0.0228
     17 C          -3.6224  -18.4204   22.1390 C.ar    1  UNL1       -0.0038
     18 C          -4.9984  -18.7594   22.6308 C.ar    1  UNL1        0.0058
     19 C          -6.0278  -19.2862   21.6754 C.ar    1  UNL1        0.0252
     20 C          -5.6812  -19.4740   20.2282 C.ar    1  UNL1        0.0058
     21 C          -4.3052  -19.1351   19.7363 C.ar    1  UNL1       -0.0038
     22 C          -1.3566  -18.4662   21.5841 C.3     1  UNL1        0.0044
     23 C          -1.8999  -18.2693   20.1999 C.3     1  UNL1        0.0189
     24 C          -2.4432  -18.0725   18.8157 C.3     1  UNL1        0.0044
     25 C          -0.5240  -17.9304   19.7081 C.3     1  UNL1        0.0044
@<TRIPOS>BOND
     1    22    23    1
     2    23    24    1
     3    23    25    1
     4    23    16    1
     5    16    17   ar
     6    17    18   ar
     7    18    19   ar
     8    19    15    1
     9    15    14    1
    10    14     1    1
    11     1     2    1
    12     2     3   ar
    13     3     4   ar
    14     4     5   ar
    15     5     6   ar
    16     6     7   ar
    17     1     8    1
    18     8     9   ar
    19     9    10   ar
    20    10    11   ar
    21    11    12   ar
    22    19    20   ar
    23    20    21   ar
    24    21    16   ar
    25     7     2   ar
    26    12     8   ar
    27    12    13    1
@<TRIPOS>MOLECULE
*****
 25 27 0 0 0
SMALL
GASTEIGER

@<TRIPOS>ATOM
      1 C          -4.9438  -18.7699   22.0479 C.3     1  UNL1        0.0909
      2 C          -5.3792  -17.5950   22.8726 C.ar    1  UNL1        0.0651
      3 C          -4.4652  -17.0355   23.9222 C.ar    1  UNL1        0.0151
      4 C          -4.9006  -15.8606   24.7469 C.ar    1  UNL1        0.0028
      5 C          -6.2499  -15.2452   24.5219 C.ar    1  UNL1        0.0207
      6 C          -7.1639  -15.8047   23.4723 C.ar    1  UNL1        0.0985
      7 N          -6.7285  -16.9796   22.6477 N.ar    1  UNL1       -0.2478
      8 C          -3.6406  -18.7242   21.3066 C.ar    1  UNL1        0.0603
      9 C          -2.3766  -19.4289   21.7012 C.ar    1  UNL1        0.1135
     10 N          -1.3274  -19.1060   20.6790 N.ar    1  UNL1       -0.2229
     11 C          -1.9430  -18.2018   19.6525 C.ar    1  UNL1        0.1748
     12 N          -3.3727  -17.9659   20.0404 N.ar    1  UNL1       -0.3379
     13 H          -4.0213  -17.4108   19.5501 H       1  UNL1        0.1672
     14 C          -5.8116  -19.9906   21.9646 C.3     1  UNL1        0.0740
     15 S          -7.0136  -19.9964   21.0673 S.3     1  UNL1       -0.1129
     16 C         -11.0210  -18.7174   22.6654 C.ar    1  UNL1       -0.0228
     17 C         -10.6187  -18.3496   21.2680 C.ar    1  UNL1       -0.0038
     18 C          -9.2829  -18.7759   20.7353 C.ar    1  UNL1        0.0058
     19 C          -8.3494  -19.5701   21.6000 C.ar    1  UNL1        0.0252
     20 C          -8.7517  -19.9379   22.9974 C.ar    1  UNL1        0.0058
     21 C         -10.0875  -19.5115   23.5301 C.ar    1  UNL1       -0.0038
     22 C         -12.7741  -17.8748   21.8188 C.3     1  UNL1        0.0044
     23 C         -12.3568  -18.2910   23.1982 C.3     1  UNL1        0.0189
     24 C         -11.9396  -18.7073   24.5775 C.3     1  UNL1        0.0044
     25 C         -13.6927  -17.8646   23.7309 C.3     1  UNL1        0.0044
@<TRIPOS>BOND
     1    22    23    1
     2    23    24    1
     3    23    25    1
     4    23    16    1
     5    16    17   ar
     6    17    18   ar
     7    18    19   ar
     8    19    15    1
     9    15    14    1
    10    14     1    1
    11     1     2    1
    12     2     3   ar
    13     3     4   ar
    14     4     5   ar
    15     5     6   ar
    16     6     7   ar
    17     1     8    1
    18     8     9   ar
    19     9    10   ar
    20    10    11   ar
    21    11    12   ar
    22    19    20   ar
    23    20    21   ar
    24    21    16   ar
    25     7     2   ar
    26    12     8   ar
    27    12    13    1
@<TRIPOS>MOLECULE
*****
 25 27 0 0 0
SMALL
GASTEIGER

@<TRIPOS>ATOM
      1 C          -8.7366  -17.8002   22.8094 C.3     1  UNL1        0.0909
      2 C         -10.0061  -17.3949   22.1206 C.ar    1  UNL1        0.0651
      3 C         -11.3080  -18.0270   22.5147 C.ar    1  UNL1        0.0151
      4 C         -12.5774  -17.6217   21.8258 C.ar    1  UNL1        0.0028
      5 C         -12.5448  -16.5843   20.7429 C.ar    1  UNL1        0.0207
      6 C         -11.2428  -15.9522   20.3488 C.ar    1  UNL1        0.0985
      7 N          -9.9735  -16.3575   21.0376 N.ar    1  UNL1       -0.2478
      8 C          -7.9538  -16.7898   23.5944 C.ar    1  UNL1        0.0603
      9 C          -8.3457  -16.2072   24.9199 C.ar    1  UNL1        0.1135
     10 N          -7.2757  -15.2420   25.3365 N.ar    1  UNL1       -0.2229
     11 C          -6.2225  -15.2281   24.2684 C.ar    1  UNL1        0.1748
     12 N          -6.6416  -16.1847   23.1918 N.ar    1  UNL1       -0.3379
     13 H          -6.1430  -16.3810   22.3659 H       1  UNL1        0.1672
     14 C          -8.2501  -19.2158   22.7131 C.3     1  UNL1        0.0740
     15 S          -7.5855  -19.6967   21.4574 S.3     1  UNL1       -0.1129
     16 C          -3.2783  -18.6694   20.6559 C.ar    1  UNL1       -0.0228
     17 C          -3.7633  -18.8201   22.0673 C.ar    1  UNL1       -0.0038
     18 C          -5.1991  -19.1625   22.3344 C.ar    1  UNL1        0.0058
     19 C          -6.1498  -19.3543   21.1902 C.ar    1  UNL1        0.0252
     20 C          -5.6648  -19.2036   19.7788 C.ar    1  UNL1        0.0058
     21 C          -4.2290  -18.8612   19.5117 C.ar    1  UNL1       -0.0038
     22 C          -2.1691  -18.0843   18.9450 C.3     1  UNL1        0.0044
     23 C          -1.8426  -18.3270   20.3887 C.3     1  UNL1        0.0189
     24 C          -1.5160  -18.5697   21.8325 C.3     1  UNL1        0.0044
     25 C          -0.4068  -17.9846   20.1216 C.3     1  UNL1        0.0044
@<TRIPOS>BOND
     1    22    23    1
     2    23    24    1
     3    23    25    1
     4    23    16    1
     5    16    17   ar
     6    17    18   ar
     7    18    19   ar
     8    19    15    1
     9    15    14    1
    10    14     1    1
    11     1     2    1
    12     2     3   ar
    13     3     4   ar
    14     4     5   ar
    15     5     6   ar
    16     6     7   ar
    17     1     8    1
    18     8     9   ar
    19     9    10   ar
    20    10    11   ar
    21    11    12   ar
    22    19    20   ar
    23    20    21   ar
    24    21    16   ar
    25     7     2   ar
    26    12     8   ar
    27    12    13    1
@<TRIPOS>MOLECULE
*****
 25 27 0 0 0
SMALL
GASTEIGER

@<TRIPOS>ATOM
      1 C          -8.7250  -17.8155   22.7799 C.3     1  UNL1        0.0909
      2 C          -8.1534  -16.9205   23.8393 C.ar    1  UNL1        0.0651
      3 C          -6.8338  -16.2430   23.6168 C.ar    1  UNL1        0.0151
      4 C          -6.2622  -15.3480   24.6762 C.ar    1  UNL1        0.0028
      5 C          -7.0101  -15.1307   25.9581 C.ar    1  UNL1        0.0207
      6 C          -8.3298  -15.8083   26.1806 C.ar    1  UNL1        0.0985
      7 N          -8.9014  -16.7032   25.1212 N.ar    1  UNL1       -0.2478
      8 C          -9.7176  -17.2727   21.7950 C.ar    1  UNL1        0.0603
      9 C          -9.7340  -15.8809   21.2359 C.ar    1  UNL1        0.1135
     10 N         -10.8946  -15.7743   20.2916 N.ar    1  UNL1       -0.2229
     11 C         -11.5956  -17.1003   20.2671 C.ar    1  UNL1        0.1748
     12 N         -10.8681  -18.0263   21.1962 N.ar    1  UNL1       -0.3379
     13 H         -11.1043  -18.9641   21.3807 H       1  UNL1        0.1672
     14 C          -8.3040  -19.2533   22.7054 C.3     1  UNL1        0.0740
     15 S          -7.6206  -19.7719   21.4750 S.3     1  UNL1       -0.1129
     16 C          -3.3339  -18.6780   20.6519 C.ar    1  UNL1       -0.0228
     17 C          -4.2973  -18.8442   19.5143 C.ar    1  UNL1       -0.0038
     18 C          -5.7262  -19.2088   19.7886 C.ar    1  UNL1        0.0058
     19 C          -6.1917  -19.4073   21.2006 C.ar    1  UNL1        0.0252
     20 C          -5.2284  -19.2412   22.3383 C.ar    1  UNL1        0.0058
     21 C          -3.7995  -18.8765   22.0639 C.ar    1  UNL1       -0.0038
     22 C          -2.2324  -18.1225   18.9262 C.3     1  UNL1        0.0044
     23 C          -1.9050  -18.3134   20.3775 C.3     1  UNL1        0.0189
     24 C          -1.5776  -18.5044   21.8289 C.3     1  UNL1        0.0044
     25 C          -0.4761  -17.9488   20.1032 C.3     1  UNL1        0.0044
@<TRIPOS>BOND
     1    22    23    1
     2    23    24    1
     3    23    25    1
     4    23    16    1
     5    16    17   ar
     6    17    18   ar
     7    18    19   ar
     8    19    15    1
     9    15    14    1
    10    14     1    1
    11     1     2    1
    12     2     3   ar
    13     3     4   ar
    14     4     5   ar
    15     5     6   ar
    16     6     7   ar
    17     1     8    1
    18     8     9   ar
    19     9    10   ar
    20    10    11   ar
    21    11    12   ar
    22    19    20   ar
    23    20    21   ar
    24    21    16   ar
    25     7     2   ar
    26    12     8   ar
    27    12    13    1
@<TRIPOS>MOLECULE
*****
 25 27 0 0 0
SMALL
GASTEIGER

@<TRIPOS>ATOM
      1 C          -5.6954  -19.4655   20.8501 C.3     1  UNL1        0.0909
      2 C          -6.7117  -20.1121   19.9561 C.ar    1  UNL1        0.0651
      3 C          -7.9487  -19.3614   19.5609 C.ar    1  UNL1        0.0151
      4 C          -8.9650  -20.0080   18.6669 C.ar    1  UNL1        0.0028
      5 C          -8.7442  -21.4054   18.1682 C.ar    1  UNL1        0.0207
      6 C          -7.5072  -22.1561   18.5635 C.ar    1  UNL1        0.0985
      7 N          -6.4910  -21.5095   19.4574 N.ar    1  UNL1       -0.2478
      8 C          -4.3516  -19.0832   20.3043 C.ar    1  UNL1        0.0603
      9 C          -3.0264  -19.5957   20.7851 C.ar    1  UNL1        0.1135
     10 N          -1.9528  -18.9505   19.9598 N.ar    1  UNL1       -0.2229
     11 C          -2.6145  -18.0392   18.9690 C.ar    1  UNL1        0.1748
     12 N          -4.0970  -18.1212   19.1819 N.ar    1  UNL1       -0.3379
     13 H          -4.7826  -17.6299   18.6741 H       1  UNL1        0.1672
     14 C          -6.0230  -19.2012   22.2898 C.3     1  UNL1        0.0740
     15 S          -6.7344  -17.9389   22.6776 S.3     1  UNL1       -0.1129
     16 C         -11.1712  -17.9958   23.4268 C.ar    1  UNL1       -0.0228
     17 C         -10.4094  -19.2847   23.3357 C.ar    1  UNL1       -0.0038
     18 C          -8.9305  -19.2658   23.0860 C.ar    1  UNL1        0.0058
     19 C          -8.2134  -17.9579   22.9274 C.ar    1  UNL1        0.0252
     20 C          -8.9752  -16.6690   23.0185 C.ar    1  UNL1        0.0058
     21 C         -10.4541  -16.6880   23.2682 C.ar    1  UNL1       -0.0038
     22 C         -12.8693  -17.1928   22.4411 C.3     1  UNL1        0.0044
     23 C         -12.6502  -18.0148   23.6766 C.3     1  UNL1        0.0189
     24 C         -12.4310  -18.8368   24.9120 C.3     1  UNL1        0.0044
     25 C         -14.1291  -18.0338   23.9263 C.3     1  UNL1        0.0044
@<TRIPOS>BOND
     1    22    23    1
     2    23    24    1
     3    23    25    1
     4    23    16    1
     5    16    17   ar
     6    17    18   ar
     7    18    19   ar
     8    19    15    1
     9    15    14    1
    10    14     1    1
    11     1     2    1
    12     2     3   ar
    13     3     4   ar
    14     4     5   ar
    15     5     6   ar
    16     6     7   ar
    17     1     8    1
    18     8     9   ar
    19     9    10   ar
    20    10    11   ar
    21    11    12   ar
    22    19    20   ar
    23    20    21   ar
    24    21    16   ar
    25     7     2   ar
    26    12     8   ar
    27    12    13    1
@<TRIPOS>MOLECULE
*****
 25 27 0 0 0
SMALL
GASTEIGER

@<TRIPOS>ATOM
      1 C          -4.5431  -18.4678   21.8028 C.3     1  UNL1        0.0909
      2 C          -5.5050  -19.2586   20.9664 C.ar    1  UNL1        0.0651
      3 C          -5.3535  -20.7466   20.8539 C.ar    1  UNL1        0.0151
      4 C          -6.3154  -21.5374   20.0175 C.ar    1  UNL1        0.0028
      5 C          -7.4288  -20.8400   19.2936 C.ar    1  UNL1        0.0207
      6 C          -7.5803  -19.3519   19.4062 C.ar    1  UNL1        0.0985
      7 N          -6.6184  -18.5612   20.2425 N.ar    1  UNL1       -0.2478
      8 C          -3.1600  -18.1889   21.2935 C.ar    1  UNL1        0.0603
      9 C          -2.1021  -19.2134   21.0085 C.ar    1  UNL1        0.1135
     10 N          -0.8803  -18.4942   20.5188 N.ar    1  UNL1       -0.2229
     11 C          -1.1831  -17.0251   20.5010 C.ar    1  UNL1        0.1748
     12 N          -2.5920  -16.8365   20.9799 N.ar    1  UNL1       -0.3379
     13 H          -3.0615  -15.9761   21.0721 H       1  UNL1        0.1672
     14 C          -4.9643  -17.9560   23.1484 C.3     1  UNL1        0.0740
     15 S          -5.8989  -16.7870   23.2473 S.3     1  UNL1       -0.1129
     16 C         -10.3431  -17.4686   23.4313 C.ar    1  UNL1       -0.0228
     17 C          -9.4217  -18.6097   23.1169 C.ar    1  UNL1       -0.0038
     18 C          -7.9403  -18.3825   23.0555 C.ar    1  UNL1        0.0058
     19 C          -7.3803  -17.0142   23.3086 C.ar    1  UNL1        0.0252
     20 C          -8.3017  -15.8731   23.6231 C.ar    1  UNL1        0.0058
     21 C          -9.7831  -16.1004   23.6844 C.ar    1  UNL1       -0.0038
     22 C         -11.6065  -18.8741   24.3950 C.3     1  UNL1        0.0044
     23 C         -11.8246  -17.6959   23.4927 C.3     1  UNL1        0.0189
     24 C         -12.0426  -16.5176   22.5904 C.3     1  UNL1        0.0044
     25 C         -13.3060  -17.9231   23.5541 C.3     1  UNL1        0.0044
@<TRIPOS>BOND
     1    22    23    1
     2    23    24    1
     3    23    25    1
     4    23    16    1
     5    16    17   ar
     6    17    18   ar
     7    18    19   ar
     8    19    15    1
     9    15    14    1
    10    14     1    1
    11     1     2    1
    12     2     3   ar
    13     3     4   ar
    14     4     5   ar
    15     5     6   ar
    16     6     7   ar
    17     1     8    1
    18     8     9   ar
    19     9    10   ar
    20    10    11   ar
    21    11    12   ar
    22    19    20   ar
    23    20    21   ar
    24    21    16   ar
    25     7     2   ar
    26    12     8   ar
    27    12    13    1
@<TRIPOS>MOLECULE
*****
 25 27 0 0 0
SMALL
GASTEIGER

@<TRIPOS>ATOM
      1 C           6.5180   -3.5709   25.0546 C.3     1  UNL1        0.0909
      2 C           7.0164   -4.9834   25.1364 C.ar    1  UNL1        0.0651
      3 C           7.8421   -5.5531   24.0213 C.ar    1  UNL1        0.0151
      4 C           8.3404   -6.9656   24.1030 C.ar    1  UNL1        0.0028
      5 C           8.0130   -7.8083   25.2999 C.ar    1  UNL1        0.0207
      6 C           7.1872   -7.2385   26.4151 C.ar    1  UNL1        0.0985
      7 N           6.6889   -5.8261   26.3333 N.ar    1  UNL1       -0.2478
      8 C           6.3818   -2.7503   26.3028 C.ar    1  UNL1        0.0603
      9 C           6.9739   -1.3916   26.5336 C.ar    1  UNL1        0.1135
     10 N           6.5875   -0.9458   27.9128 N.ar    1  UNL1       -0.2229
     11 C           5.7566   -2.0290   28.5343 C.ar    1  UNL1        0.1748
     12 N           5.6294   -3.1442   27.5392 N.ar    1  UNL1       -0.3379
     13 H           5.1383   -3.9868   27.6740 H       1  UNL1        0.1672
     14 C           6.1560   -2.9792   23.7247 C.3     1  UNL1        0.0740
     15 S           5.0078   -3.5422   22.9408 S.3     1  UNL1       -0.1129
     16 C           2.5982   -0.8659   20.2424 C.ar    1  UNL1       -0.0228
     17 C           2.6935   -0.5631   21.7084 C.ar    1  UNL1       -0.0038
     18 C           3.4967   -1.4552   22.6079 C.ar    1  UNL1        0.0058
     19 C           4.2046   -2.6501   22.0414 C.ar    1  UNL1        0.0252
     20 C           4.1093   -2.9529   20.5754 C.ar    1  UNL1        0.0058
     21 C           3.3061   -2.0609   19.6759 C.ar    1  UNL1       -0.0038
     22 C           2.9638    0.1373   18.4094 C.3     1  UNL1        0.0044
     23 C           1.7950    0.0262   19.3430 C.3     1  UNL1        0.0189
     24 C           0.6261   -0.0849   20.2765 C.3     1  UNL1        0.0044
     25 C           0.9918    0.9183   18.4435 C.3     1  UNL1        0.0044
@<TRIPOS>BOND
     1    22    23    1
     2    23    24    1
     3    23    25    1
     4    23    16    1
     5    16    17   ar
     6    17    18   ar
     7    18    19   ar
     8    19    15    1
     9    15    14    1
    10    14     1    1
    11     1     2    1
    12     2     3   ar
    13     3     4   ar
    14     4     5   ar
    15     5     6   ar
    16     6     7   ar
    17     1     8    1
    18     8     9   ar
    19     9    10   ar
    20    10    11   ar
    21    11    12   ar
    22    19    20   ar
    23    20    21   ar
    24    21    16   ar
    25     7     2   ar
    26    12     8   ar
    27    12    13    1
@<TRIPOS>MOLECULE
*****
 25 27 0 0 0
SMALL
GASTEIGER

@<TRIPOS>ATOM
      1 C          -0.5448    2.8681   20.7422 C.3     1  UNL1        0.0909
      2 C          -0.4316    2.5871   22.2114 C.ar    1  UNL1        0.0651
      3 C           0.5489    1.5654   22.7062 C.ar    1  UNL1        0.0151
      4 C           0.6622    1.2844   24.1753 C.ar    1  UNL1        0.0028
      5 C          -0.2051    2.0251   25.1496 C.ar    1  UNL1        0.0207
      6 C          -1.1856    3.0468   24.6547 C.ar    1  UNL1        0.0985
      7 N          -1.2988    3.3278   23.1856 N.ar    1  UNL1       -0.2478
      8 C          -1.8605    3.2902   20.1586 C.ar    1  UNL1        0.0603
      9 C          -2.0537    4.2516   19.0235 C.ar    1  UNL1        0.1135
     10 N          -3.5266    4.3806   18.7710 N.ar    1  UNL1       -0.2229
     11 C          -4.2438    3.4989   19.7500 C.ar    1  UNL1        0.1748
     12 N          -3.2141    2.8250   20.6075 N.ar    1  UNL1       -0.3379
     13 H          -3.3949    2.1891   21.3370 H       1  UNL1        0.1672
     14 C           0.6577    2.7269   19.8568 C.3     1  UNL1        0.0740
     15 S           0.7024    1.6443   18.8195 S.3     1  UNL1       -0.1129
     16 C           3.5556   -1.8039   19.2875 C.ar    1  UNL1       -0.0228
     17 C           3.6989   -0.8640   18.1273 C.ar    1  UNL1       -0.0038
     18 C           2.7479    0.2854   17.9713 C.ar    1  UNL1        0.0058
     19 C           1.6535    0.4949   18.9755 C.ar    1  UNL1        0.0252
     20 C           1.5101   -0.4450   20.1356 C.ar    1  UNL1        0.0058
     21 C           2.4612   -1.5944   20.2916 C.ar    1  UNL1       -0.0038
     22 C           3.3866   -3.9158   19.1802 C.3     1  UNL1        0.0044
     23 C           4.5066   -2.9534   19.4435 C.3     1  UNL1        0.0189
     24 C           5.6266   -1.9909   19.7067 C.3     1  UNL1        0.0044
     25 C           5.4577   -4.1028   19.5995 C.3     1  UNL1        0.0044
@<TRIPOS>BOND
     1    22    23    1
     2    23    24    1
     3    23    25    1
     4    23    16    1
     5    16    17   ar
     6    17    18   ar
     7    18    19   ar
     8    19    15    1
     9    15    14    1
    10    14     1    1
    11     1     2    1
    12     2     3   ar
    13     3     4   ar
    14     4     5   ar
    15     5     6   ar
    16     6     7   ar
    17     1     8    1
    18     8     9   ar
    19     9    10   ar
    20    10    11   ar
    21    11    12   ar
    22    19    20   ar
    23    20    21   ar
    24    21    16   ar
    25     7     2   ar
    26    12     8   ar
    27    12    13    1
@<TRIPOS>MOLECULE
*****
 25 27 0 0 0
SMALL
GASTEIGER

@<TRIPOS>ATOM
      1 C          -1.3191    3.1416   20.9082 C.3     1  UNL1        0.0909
      2 C          -0.3985    2.1262   20.2985 C.ar    1  UNL1        0.0651
      3 C           0.3134    2.4344   19.0148 C.ar    1  UNL1        0.0151
      4 C           1.2340    1.4190   18.4052 C.ar    1  UNL1        0.0028
      5 C           1.4425    0.0954   19.0793 C.ar    1  UNL1        0.0207
      6 C           0.7305   -0.2128   20.3631 C.ar    1  UNL1        0.0985
      7 N          -0.1900    0.8026   20.9727 N.ar    1  UNL1       -0.2478
      8 C          -2.6958    3.3389   20.3463 C.ar    1  UNL1        0.0603
      9 C          -3.0486    4.1710   19.1492 C.ar    1  UNL1        0.1135
     10 N          -4.5322    4.0851   18.9459 N.ar    1  UNL1       -0.2229
     11 C          -5.0964    3.1997   20.0174 C.ar    1  UNL1        0.1748
     12 N          -3.9614    2.7386   20.8829 N.ar    1  UNL1       -0.3379
     13 H          -4.0343    2.1460   21.6656 H       1  UNL1        0.1672
     14 C          -0.8628    3.9598   22.0797 C.3     1  UNL1        0.0740
     15 S          -1.6511    3.9472   23.3558 S.3     1  UNL1       -0.1129
     16 C          -0.2423    1.4814   26.8465 C.ar    1  UNL1       -0.0228
     17 C           0.4076    1.3211   25.5042 C.ar    1  UNL1       -0.0038
     18 C          -0.0620    2.1431   24.3406 C.ar    1  UNL1        0.0058
     19 C          -1.1815    3.1253   24.5194 C.ar    1  UNL1        0.0252
     20 C          -1.8314    3.2855   25.8617 C.ar    1  UNL1        0.0058
     21 C          -1.3618    2.4636   27.0253 C.ar    1  UNL1       -0.0038
     22 C           1.6441    0.8008   27.5382 C.3     1  UNL1        0.0044
     23 C           0.2273    0.6594   28.0101 C.3     1  UNL1        0.0189
     24 C          -1.1895    0.5181   28.4820 C.3     1  UNL1        0.0044
     25 C           0.6969   -0.1625   29.1737 C.3     1  UNL1        0.0044
@<TRIPOS>BOND
     1    22    23    1
     2    23    24    1
     3    23    25    1
     4    23    16    1
     5    16    17   ar
     6    17    18   ar
     7    18    19   ar
     8    19    15    1
     9    15    14    1
    10    14     1    1
    11     1     2    1
    12     2     3   ar
    13     3     4   ar
    14     4     5   ar
    15     5     6   ar
    16     6     7   ar
    17     1     8    1
    18     8     9   ar
    19     9    10   ar
    20    10    11   ar
    21    11    12   ar
    22    19    20   ar
    23    20    21   ar
    24    21    16   ar
    25     7     2   ar
    26    12     8   ar
    27    12    13    1
