@<TRIPOS>MOLECULE
*****
 27 30 0 0 0
SMALL
GASTEIGER

@<TRIPOS>ATOM
      1 C          -2.0509  -18.2073   20.8721 C.2     1  UNL1        0.0919
      2 C          -2.2059  -18.5692   22.3195 C.2     1  UNL1        0.0183
      3 C          -3.5628  -18.8947   22.8700 C.2     1  UNL1        0.0511
      4 C          -4.7646  -18.8581   21.9732 C.2     1  UNL1        0.2322
      5 N          -6.2174  -19.1286   22.2302 N.2     1  UNL1       -0.0308
      6 C          -6.9602  -18.9338   20.9417 C.2     1  UNL1        0.3774
      7 N          -5.9665  -18.5430   19.8883 N.2     1  UNL1       -0.0346
      8 C          -4.6095  -18.4962   20.5258 C.2     1  UNL1        0.2191
      9 C          -3.2526  -18.1707   19.9753 C.3     1  UNL1        0.1226
     10 C          -8.4375  -19.1006   20.7418 C.ar    1  UNL1        0.1157
     11 C          -9.3812  -18.8528   21.8810 C.ar    1  UNL1        0.0100
     12 C         -10.8585  -19.0195   21.6812 C.ar    1  UNL1        0.0004
     13 C         -11.3919  -19.4342   20.3420 C.ar    1  UNL1        0.0023
     14 C         -10.4482  -19.6821   19.2027 C.ar    1  UNL1        0.0299
     15 C          -8.9710  -19.5153   19.4026 C.ar    1  UNL1        0.1475
     16 F          -8.0273  -19.7632   18.2633 F       1  UNL1       -0.2039
     17 C         -11.8022  -18.7717   22.8204 C.ar    1  UNL1        0.0000
     18 C         -13.1132  -18.0863   22.5728 C.ar    1  UNL1        0.0000
     19 C         -14.0569  -17.8384   23.7120 C.ar    1  UNL1        0.0000
     20 C         -13.6896  -18.2759   25.0990 C.ar    1  UNL1        0.0000
     21 C         -12.3786  -18.9613   25.3466 C.ar    1  UNL1        0.0000
     22 C         -11.4349  -19.2092   24.2074 C.ar    1  UNL1        0.0000
     23 S          -0.6940  -17.8818   20.3216 S.O2    1  UNL1        0.0054
     24 O          -0.5021  -19.3208   19.9440 O.2     1  UNL1       -0.1689
     25 O          -0.8859  -16.4429   20.6993 O.2     1  UNL1       -0.1689
     26 C           1.8565  -17.5398   20.6793 C.3     1  UNL1        0.0276
     27 C           0.6628  -17.5564   19.7711 C.3     1  UNL1        0.1556
@<TRIPOS>BOND
     1    26    27    1
     2    27    23    1
     3    23    24    2
     4    23    25    2
     5    23     1    1
     6     1     2    2
     7     2     3    1
     8     3     4    2
     9     4     5    1
    10     5     6    2
    11     6    10    1
    12    10    11   ar
    13    11    12   ar
    14    12    17    1
    15    17    18   ar
    16    18    19   ar
    17    19    20   ar
    18    20    21   ar
    19    21    22   ar
    20    12    13   ar
    21    13    14   ar
    22    14    15   ar
    23    15    16    1
    24     6     7    1
    25     7     8    2
    26     8     9    1
    27     9     1    1
    28     8     4    1
    29    15    10   ar
    30    22    17   ar
@<TRIPOS>MOLECULE
*****
 27 30 0 0 0
SMALL
GASTEIGER

@<TRIPOS>ATOM
      1 C           6.3353   -2.1794   19.1786 C.2     1  UNL1        0.0919
      2 C           7.8213   -2.2113   18.9773 C.2     1  UNL1        0.0183
      3 C           8.6966   -2.9259   19.9638 C.2     1  UNL1        0.0511
      4 C           8.0859   -3.6085   21.1516 C.2     1  UNL1        0.2322
      5 N           8.6903   -4.3856   22.2834 N.2     1  UNL1       -0.0308
      6 C           7.5778   -4.8339   23.1841 C.2     1  UNL1        0.3774
      7 N           6.2858   -4.3340   22.6091 N.2     1  UNL1       -0.0346
      8 C           6.5998   -3.5766   21.3529 C.2     1  UNL1        0.2191
      9 C           5.7245   -2.8620   20.3664 C.3     1  UNL1        0.1226
     10 C           7.7306   -5.6406   24.4395 C.ar    1  UNL1        0.1157
     11 C           7.4237   -5.0215   25.7709 C.ar    1  UNL1        0.0100
     12 C           7.5765   -5.8281   27.0262 C.ar    1  UNL1        0.0004
     13 C           8.0361   -7.2539   26.9502 C.ar    1  UNL1        0.0023
     14 C           8.3430   -7.8731   25.6189 C.ar    1  UNL1        0.0299
     15 C           8.1902   -7.0664   24.3635 C.ar    1  UNL1        0.1475
     16 F           8.4971   -7.6856   23.0322 F       1  UNL1       -0.2039
     17 C           7.2696   -5.2090   28.3576 C.ar    1  UNL1        0.0000
     18 C           6.8690   -3.7658   28.4391 C.ar    1  UNL1        0.0000
     19 C           6.5621   -3.1466   29.7704 C.ar    1  UNL1        0.0000
     20 C           6.6558   -3.9707   31.0202 C.ar    1  UNL1        0.0000
     21 C           7.0564   -5.4138   30.9387 C.ar    1  UNL1        0.0000
     22 C           7.3633   -6.0330   29.6074 C.ar    1  UNL1        0.0000
     23 S           5.4599   -1.4648   18.1921 S.O2    1  UNL1        0.0054
     24 O           4.3271   -1.4958   19.1748 O.2     1  UNL1       -0.1689
     25 O           6.5928   -1.4339   17.2094 O.2     1  UNL1       -0.1689
     26 C           3.2769   -0.1649   17.6495 C.3     1  UNL1        0.0276
     27 C           4.5846   -0.7503   17.2056 C.3     1  UNL1        0.1556
@<TRIPOS>BOND
     1    26    27    1
     2    27    23    1
     3    23    24    2
     4    23    25    2
     5    23     1    1
     6     1     2    2
     7     2     3    1
     8     3     4    2
     9     4     5    1
    10     5     6    2
    11     6    10    1
    12    10    11   ar
    13    11    12   ar
    14    12    17    1
    15    17    18   ar
    16    18    19   ar
    17    19    20   ar
    18    20    21   ar
    19    21    22   ar
    20    12    13   ar
    21    13    14   ar
    22    14    15   ar
    23    15    16    1
    24     6     7    1
    25     7     8    2
    26     8     9    1
    27     9     1    1
    28     8     4    1
    29    15    10   ar
    30    22    17   ar
@<TRIPOS>MOLECULE
*****
 27 30 0 0 0
SMALL
GASTEIGER

@<TRIPOS>ATOM
      1 C         -12.0367  -18.3583   22.5459 C.2     1  UNL1        0.0919
      2 C         -12.2413  -17.9490   21.1174 C.2     1  UNL1        0.0183
      3 C         -11.1208  -18.0871   20.1298 C.2     1  UNL1        0.0511
      4 C          -9.7957  -18.6344   20.5706 C.2     1  UNL1        0.2322
      5 N          -8.5160  -18.8843   19.8290 N.2     1  UNL1       -0.0308
      6 C          -7.5205  -19.4480   20.7992 C.2     1  UNL1        0.3774
      7 N          -8.1849  -19.5466   22.1404 N.2     1  UNL1       -0.0346
      8 C          -9.5911  -19.0437   21.9991 C.2     1  UNL1        0.2191
      9 C         -10.7116  -18.9056   22.9867 C.3     1  UNL1        0.1226
     10 C          -6.1085  -19.8438   20.4834 C.ar    1  UNL1        0.1157
     11 C          -4.9990  -18.8451   20.6305 C.ar    1  UNL1        0.0100
     12 C          -3.5870  -19.2407   20.3148 C.ar    1  UNL1        0.0004
     13 C          -3.2845  -20.6351   19.8521 C.ar    1  UNL1        0.0023
     14 C          -4.3940  -21.6338   19.7050 C.ar    1  UNL1        0.0299
     15 C          -5.8060  -21.2381   20.0207 C.ar    1  UNL1        0.1475
     16 F          -6.9154  -22.2369   19.8737 F       1  UNL1       -0.2039
     17 C          -2.4775  -18.2420   20.4618 C.ar    1  UNL1        0.0000
     18 C          -1.2118  -18.4056   19.6737 C.ar    1  UNL1        0.0000
     19 C          -0.1023  -17.4069   19.8207 C.ar    1  UNL1        0.0000
     20 C          -0.2586  -16.2446   20.7558 C.ar    1  UNL1        0.0000
     21 C          -1.5243  -16.0809   21.5439 C.ar    1  UNL1        0.0000
     22 C          -2.6337  -17.0797   21.3969 C.ar    1  UNL1        0.0000
     23 S         -13.1572  -18.2202   23.5335 S.O2    1  UNL1        0.0054
     24 O         -12.2358  -18.6453   24.6383 O.2     1  UNL1       -0.1689
     25 O         -14.0786  -17.7952   22.4288 O.2     1  UNL1       -0.1689
     26 C         -14.0784  -18.5072   25.9458 C.3     1  UNL1        0.0276
     27 C         -14.2777  -18.0822   24.5212 C.3     1  UNL1        0.1556
@<TRIPOS>BOND
     1    26    27    1
     2    27    23    1
     3    23    24    2
     4    23    25    2
     5    23     1    1
     6     1     2    2
     7     2     3    1
     8     3     4    2
     9     4     5    1
    10     5     6    2
    11     6    10    1
    12    10    11   ar
    13    11    12   ar
    14    12    17    1
    15    17    18   ar
    16    18    19   ar
    17    19    20   ar
    18    20    21   ar
    19    21    22   ar
    20    12    13   ar
    21    13    14   ar
    22    14    15   ar
    23    15    16    1
    24     6     7    1
    25     7     8    2
    26     8     9    1
    27     9     1    1
    28     8     4    1
    29    15    10   ar
    30    22    17   ar
@<TRIPOS>MOLECULE
*****
 27 30 0 0 0
SMALL
GASTEIGER

@<TRIPOS>ATOM
      1 C           7.4627   -5.7506   26.8764 C.2     1  UNL1        0.0919
      2 C           8.1198   -6.8400   26.0819 C.2     1  UNL1        0.0183
      3 C           8.1953   -6.7372   24.5873 C.2     1  UNL1        0.0511
      4 C           7.6136   -5.5450   23.8872 C.2     1  UNL1        0.2322
      5 N           7.5387   -5.1706   22.4366 N.2     1  UNL1       -0.0308
      6 C           6.8352   -3.8496   22.3346 C.2     1  UNL1        0.3774
      7 N           6.4754   -3.4077   23.7221 N.2     1  UNL1       -0.0346
      8 C           6.9565   -4.4556   24.6817 C.2     1  UNL1        0.2191
      9 C           6.8810   -4.5583   26.1762 C.3     1  UNL1        0.1226
     10 C           6.5430   -3.1020   21.0674 C.ar    1  UNL1        0.1157
     11 C           5.2261   -2.4048   20.8947 C.ar    1  UNL1        0.0100
     12 C           4.9338   -1.6571   19.6276 C.ar    1  UNL1        0.0004
     13 C           5.9584   -1.6066   18.5333 C.ar    1  UNL1        0.0023
     14 C           7.2753   -2.3038   18.7060 C.ar    1  UNL1        0.0299
     15 C           7.5676   -3.0514   19.9731 C.ar    1  UNL1        0.1475
     16 F           8.8844   -3.7486   20.1458 F       1  UNL1       -0.2039
     17 C           3.6170   -0.9600   19.4549 C.ar    1  UNL1        0.0000
     18 C           3.4465    0.0632   18.3714 C.ar    1  UNL1        0.0000
     19 C           2.1296    0.7604   18.1987 C.ar    1  UNL1        0.0000
     20 C           0.9832    0.4343   19.1094 C.ar    1  UNL1        0.0000
     21 C           1.1537   -0.5889   20.1929 C.ar    1  UNL1        0.0000
     22 C           2.4706   -1.2861   20.3656 C.ar    1  UNL1        0.0000
     23 S           7.3872   -5.8533   28.3709 S.O2    1  UNL1        0.0054
     24 O           6.0880   -5.1037   28.3569 O.2     1  UNL1       -0.1689
     25 O           8.6863   -6.6030   28.3850 O.2     1  UNL1       -0.1689
     26 C           6.8943   -4.7670   30.6789 C.3     1  UNL1        0.0276
     27 C           7.3117   -5.9561   29.8655 C.3     1  UNL1        0.1556
@<TRIPOS>BOND
     1    26    27    1
     2    27    23    1
     3    23    24    2
     4    23    25    2
     5    23     1    1
     6     1     2    2
     7     2     3    1
     8     3     4    2
     9     4     5    1
    10     5     6    2
    11     6    10    1
    12    10    11   ar
    13    11    12   ar
    14    12    17    1
    15    17    18   ar
    16    18    19   ar
    17    19    20   ar
    18    20    21   ar
    19    21    22   ar
    20    12    13   ar
    21    13    14   ar
    22    14    15   ar
    23    15    16    1
    24     6     7    1
    25     7     8    2
    26     8     9    1
    27     9     1    1
    28     8     4    1
    29    15    10   ar
    30    22    17   ar
@<TRIPOS>MOLECULE
*****
 27 30 0 0 0
SMALL
GASTEIGER

@<TRIPOS>ATOM
      1 C           3.1893   -0.7936   18.9745 C.2     1  UNL1        0.0919
      2 C           3.6936    0.4157   18.2443 C.2     1  UNL1        0.0183
      3 C           2.9112    1.6950   18.2819 C.2     1  UNL1        0.0511
      4 C           1.6246    1.7649   19.0497 C.2     1  UNL1        0.2322
      5 N           0.6443    2.8794   19.2664 N.2     1  UNL1       -0.0308
      6 C          -0.4658    2.3589   20.1306 C.2     1  UNL1        0.3774
      7 N          -0.1716    0.9228   20.4480 N.2     1  UNL1       -0.0346
      8 C           1.1204    0.5556   19.7800 C.2     1  UNL1        0.2191
      9 C           1.9027   -0.7236   19.7424 C.3     1  UNL1        0.1226
     10 C          -1.6604    3.1379   20.5956 C.ar    1  UNL1        0.1157
     11 C          -1.9849    3.2112   22.0583 C.ar    1  UNL1        0.0100
     12 C          -3.1794    3.9902   22.5234 C.ar    1  UNL1        0.0004
     13 C          -4.0494    4.6958   21.5258 C.ar    1  UNL1        0.0023
     14 C          -3.7248    4.6226   20.0632 C.ar    1  UNL1        0.0299
     15 C          -2.5303    3.8436   19.5981 C.ar    1  UNL1        0.1475
     16 F          -2.2058    3.7703   18.1355 F       1  UNL1       -0.2039
     17 C          -3.5039    4.0635   23.9860 C.ar    1  UNL1        0.0000
     18 C          -2.5079    3.5847   25.0002 C.ar    1  UNL1        0.0000
     19 C          -2.8324    3.6580   26.4628 C.ar    1  UNL1        0.0000
     20 C          -4.1530    4.2100   26.9113 C.ar    1  UNL1        0.0000
     21 C          -5.1491    4.6888   25.8971 C.ar    1  UNL1        0.0000
     22 C          -4.8245    4.6155   24.4345 C.ar    1  UNL1        0.0000
     23 S           3.9717   -2.0728   18.9369 S.O2    1  UNL1        0.0054
     24 O           4.4599   -1.7338   17.5597 O.2     1  UNL1       -0.1689
     25 O           3.4836   -2.4119   20.3141 O.2     1  UNL1       -0.1689
     26 C           4.0486   -4.6673   19.0485 C.3     1  UNL1        0.0276
     27 C           4.7541   -3.3521   18.8993 C.3     1  UNL1        0.1556
@<TRIPOS>BOND
     1    26    27    1
     2    27    23    1
     3    23    24    2
     4    23    25    2
     5    23     1    1
     6     1     2    2
     7     2     3    1
     8     3     4    2
     9     4     5    1
    10     5     6    2
    11     6    10    1
    12    10    11   ar
    13    11    12   ar
    14    12    17    1
    15    17    18   ar
    16    18    19   ar
    17    19    20   ar
    18    20    21   ar
    19    21    22   ar
    20    12    13   ar
    21    13    14   ar
    22    14    15   ar
    23    15    16    1
    24     6     7    1
    25     7     8    2
    26     8     9    1
    27     9     1    1
    28     8     4    1
    29    15    10   ar
    30    22    17   ar
@<TRIPOS>MOLECULE
*****
 27 30 0 0 0
SMALL
GASTEIGER

@<TRIPOS>ATOM
      1 C           3.3919   -1.0660   18.9781 C.2     1  UNL1        0.0919
      2 C           3.8114    0.1471   18.2021 C.2     1  UNL1        0.0183
      3 C           3.0303    1.4220   18.3231 C.2     1  UNL1        0.0511
      4 C           1.8297    1.4837   19.2201 C.2     1  UNL1        0.2322
      5 N           0.8712    2.5925   19.5393 N.2     1  UNL1       -0.0308
      6 C          -0.1408    2.0646   20.5126 C.2     1  UNL1        0.3774
      7 N           0.1923    0.6296   20.7950 N.2     1  UNL1       -0.0346
      8 C           1.4102    0.2706   19.9961 C.2     1  UNL1        0.2191
      9 C           2.1912   -1.0043   19.8751 C.3     1  UNL1        0.1226
     10 C          -1.2850    2.8363   21.1004 C.ar    1  UNL1        0.1157
     11 C          -2.4400    3.2419   20.2335 C.ar    1  UNL1        0.0100
     12 C          -3.5841    4.0136   20.8212 C.ar    1  UNL1        0.0004
     13 C          -3.5732    4.3797   22.2757 C.ar    1  UNL1        0.0023
     14 C          -2.4182    3.9741   23.1426 C.ar    1  UNL1        0.0299
     15 C          -1.2741    3.2024   22.5549 C.ar    1  UNL1        0.1475
     16 F          -0.1191    2.7968   23.4218 F       1  UNL1       -0.2039
     17 C          -4.7391    4.4191   19.9543 C.ar    1  UNL1        0.0000
     18 C          -4.8496    5.8328   19.4651 C.ar    1  UNL1        0.0000
     19 C          -6.0046    6.2384   18.5982 C.ar    1  UNL1        0.0000
     20 C          -7.0491    5.2303   18.2205 C.ar    1  UNL1        0.0000
     21 C          -6.9386    3.8167   18.7097 C.ar    1  UNL1        0.0000
     22 C          -5.7836    3.4111   19.5766 C.ar    1  UNL1        0.0000
     23 S           4.1729   -2.3408   18.8571 S.O2    1  UNL1        0.0054
     24 O           4.6589   -1.9146   17.5035 O.2     1  UNL1       -0.1689
     25 O           3.6870   -2.7671   20.2107 O.2     1  UNL1       -0.1689
     26 C           4.2598   -4.9373   18.8821 C.3     1  UNL1        0.0276
     27 C           4.9540   -3.6157   18.7361 C.3     1  UNL1        0.1556
@<TRIPOS>BOND
     1    26    27    1
     2    27    23    1
     3    23    24    2
     4    23    25    2
     5    23     1    1
     6     1     2    2
     7     2     3    1
     8     3     4    2
     9     4     5    1
    10     5     6    2
    11     6    10    1
    12    10    11   ar
    13    11    12   ar
    14    12    17    1
    15    17    18   ar
    16    18    19   ar
    17    19    20   ar
    18    20    21   ar
    19    21    22   ar
    20    12    13   ar
    21    13    14   ar
    22    14    15   ar
    23    15    16    1
    24     6     7    1
    25     7     8    2
    26     8     9    1
    27     9     1    1
    28     8     4    1
    29    15    10   ar
    30    22    17   ar
@<TRIPOS>MOLECULE
*****
 27 30 0 0 0
SMALL
GASTEIGER

@<TRIPOS>ATOM
      1 C           4.2469   -0.7721   29.8795 C.2     1  UNL1        0.0919
      2 C           5.6053   -1.4053   29.9382 C.2     1  UNL1        0.0183
      3 C           6.2227   -1.9727   28.6944 C.2     1  UNL1        0.0511
      4 C           5.4816   -1.9069   27.3920 C.2     1  UNL1        0.2322
      5 N           5.8334   -2.3779   26.0120 N.2     1  UNL1       -0.0308
      6 C           4.6923   -2.0358   25.1004 C.2     1  UNL1        0.3774
      7 N           3.6352   -1.3534   25.9170 N.2     1  UNL1       -0.0346
      8 C           4.1231   -1.2737   27.3333 C.2     1  UNL1        0.2191
      9 C           3.5057   -0.7063   28.5771 C.3     1  UNL1        0.1226
     10 C           4.6208   -2.3254   23.6303 C.ar    1  UNL1        0.1157
     11 C           3.7776   -1.4651   22.7366 C.ar    1  UNL1        0.0100
     12 C           3.7061   -1.7547   21.2666 C.ar    1  UNL1        0.0004
     13 C           4.4779   -2.9045   20.6903 C.ar    1  UNL1        0.0023
     14 C           5.3212   -3.7648   21.5840 C.ar    1  UNL1        0.0299
     15 C           5.3927   -3.4753   23.0540 C.ar    1  UNL1        0.1475
     16 F           6.2359   -4.3355   23.9478 F       1  UNL1       -0.2039
     17 C           2.8628   -0.8944   20.3729 C.ar    1  UNL1        0.0000
     18 C           3.4103   -0.4110   19.0627 C.ar    1  UNL1        0.0000
     19 C           2.5670    0.4493   18.1690 C.ar    1  UNL1        0.0000
     20 C           1.1762    0.8262   18.5854 C.ar    1  UNL1        0.0000
     21 C           0.6287    0.3429   19.8955 C.ar    1  UNL1        0.0000
     22 C           1.4720   -0.5174   20.7893 C.ar    1  UNL1        0.0000
     23 S           3.6295   -0.2047   31.1233 S.O2    1  UNL1        0.0054
     24 O           2.2731   -0.6290   30.6435 O.2     1  UNL1       -0.1689
     25 O           4.9859    0.2195   31.6030 O.2     1  UNL1       -0.1689
     26 C           3.8494    0.5645   33.5950 C.3     1  UNL1        0.0276
     27 C           3.0121    0.3626   32.3670 C.3     1  UNL1        0.1556
@<TRIPOS>BOND
     1    26    27    1
     2    27    23    1
     3    23    24    2
     4    23    25    2
     5    23     1    1
     6     1     2    2
     7     2     3    1
     8     3     4    2
     9     4     5    1
    10     5     6    2
    11     6    10    1
    12    10    11   ar
    13    11    12   ar
    14    12    17    1
    15    17    18   ar
    16    18    19   ar
    17    19    20   ar
    18    20    21   ar
    19    21    22   ar
    20    12    13   ar
    21    13    14   ar
    22    14    15   ar
    23    15    16    1
    24     6     7    1
    25     7     8    2
    26     8     9    1
    27     9     1    1
    28     8     4    1
    29    15    10   ar
    30    22    17   ar
@<TRIPOS>MOLECULE
*****
 27 30 0 0 0
SMALL
GASTEIGER

@<TRIPOS>ATOM
      1 C           7.7740   -5.4153   27.0752 C.2     1  UNL1        0.0919
      2 C           7.2213   -4.1259   27.6062 C.2     1  UNL1        0.0183
      3 C           6.5581   -3.1544   26.6754 C.2     1  UNL1        0.0511
      4 C           6.4476   -3.4723   25.2137 C.2     1  UNL1        0.2322
      5 N           5.8520   -2.7150   24.0640 N.2     1  UNL1       -0.0308
      6 C           6.0366   -3.5364   22.8225 C.2     1  UNL1        0.3774
      7 N           6.7463   -4.8013   23.2048 N.2     1  UNL1       -0.0346
      8 C           7.0003   -4.7617   24.6827 C.2     1  UNL1        0.2191
      9 C           7.6635   -5.7332   25.6135 C.3     1  UNL1        0.1226
     10 C           5.5898   -3.1590   21.4411 C.ar    1  UNL1        0.1157
     11 C           4.4381   -2.2159   21.2568 C.ar    1  UNL1        0.0100
     12 C           3.9913   -1.8385   19.8756 C.ar    1  UNL1        0.0004
     13 C           4.6964   -2.4042   18.6786 C.ar    1  UNL1        0.0023
     14 C           5.8482   -3.3473   18.8629 C.ar    1  UNL1        0.0299
     15 C           6.2949   -3.7247   20.2441 C.ar    1  UNL1        0.1475
     16 F           7.4467   -4.6678   20.4284 F       1  UNL1       -0.2039
     17 C           2.8396   -0.8954   19.6913 C.ar    1  UNL1        0.0000
     18 C           2.8281    0.0570   18.5325 C.ar    1  UNL1        0.0000
     19 C           1.6763    1.0001   18.3482 C.ar    1  UNL1        0.0000
     20 C           0.5360    0.9908   19.3227 C.ar    1  UNL1        0.0000
     21 C           0.5475    0.0384   20.4814 C.ar    1  UNL1        0.0000
     22 C           1.6993   -0.9047   20.6657 C.ar    1  UNL1        0.0000
     23 S           8.4372   -6.3868   28.0060 S.O2    1  UNL1        0.0054
     24 O           7.4958   -5.9804   29.1009 O.2     1  UNL1       -0.1689
     25 O           9.3786   -6.7931   26.9112 O.2     1  UNL1       -0.1689
     26 C           9.4605   -6.9355   30.3302 C.3     1  UNL1        0.0276
     27 C           9.1004   -7.3583   28.9368 C.3     1  UNL1        0.1556
@<TRIPOS>BOND
     1    26    27    1
     2    27    23    1
     3    23    24    2
     4    23    25    2
     5    23     1    1
     6     1     2    2
     7     2     3    1
     8     3     4    2
     9     4     5    1
    10     5     6    2
    11     6    10    1
    12    10    11   ar
    13    11    12   ar
    14    12    17    1
    15    17    18   ar
    16    18    19   ar
    17    19    20   ar
    18    20    21   ar
    19    21    22   ar
    20    12    13   ar
    21    13    14   ar
    22    14    15   ar
    23    15    16    1
    24     6     7    1
    25     7     8    2
    26     8     9    1
    27     9     1    1
    28     8     4    1
    29    15    10   ar
    30    22    17   ar
@<TRIPOS>MOLECULE
*****
 27 30 0 0 0
SMALL
GASTEIGER

@<TRIPOS>ATOM
      1 C          -5.1552    4.6626   24.3264 C.2     1  UNL1        0.0919
      2 C          -6.0596    4.2439   23.2053 C.2     1  UNL1        0.0183
      3 C          -5.4814    3.6322   21.9638 C.2     1  UNL1        0.0511
      4 C          -3.9988    3.4391   21.8432 C.2     1  UNL1        0.2322
      5 N          -3.1467    2.8679   20.7489 N.2     1  UNL1       -0.0308
      6 C          -1.7156    2.9334   21.1936 C.2     1  UNL1        0.3774
      7 N          -1.6833    3.5452   22.5628 N.2     1  UNL1       -0.0346
      8 C          -3.0944    3.8578   22.9643 C.2     1  UNL1        0.2191
      9 C          -3.6726    4.4695   24.2058 C.3     1  UNL1        0.1226
     10 C          -0.5258    2.4688   20.4072 C.ar    1  UNL1        0.1157
     11 C           0.3155    1.3369   20.9183 C.ar    1  UNL1        0.0100
     12 C           1.5053    0.8722   20.1319 C.ar    1  UNL1        0.0004
     13 C           1.8538    1.5394   18.8344 C.ar    1  UNL1        0.0023
     14 C           1.0125    2.6712   18.3234 C.ar    1  UNL1        0.0299
     15 C          -0.1773    3.1359   19.1097 C.ar    1  UNL1        0.1475
     16 F          -1.0186    4.2677   18.5987 F       1  UNL1       -0.2039
     17 C           2.3466   -0.2596   20.6429 C.ar    1  UNL1        0.0000
     18 C           2.6908   -0.3395   22.1007 C.ar    1  UNL1        0.0000
     19 C           3.5320   -1.4713   22.6118 C.ar    1  UNL1        0.0000
     20 C           4.0291   -2.5233   21.6651 C.ar    1  UNL1        0.0000
     21 C           3.6849   -2.4434   20.2073 C.ar    1  UNL1        0.0000
     22 C           2.8437   -1.3115   19.6963 C.ar    1  UNL1        0.0000
     23 S          -5.7334    5.2743   25.5679 S.O2    1  UNL1        0.0054
     24 O          -5.0301    4.2452   26.4025 O.2     1  UNL1       -0.1689
     25 O          -6.4367    6.3033   24.7334 O.2     1  UNL1       -0.1689
     26 C          -7.6790    6.5016   26.7755 C.3     1  UNL1        0.0276
     27 C          -6.3116    5.8860   26.8095 C.3     1  UNL1        0.1556
@<TRIPOS>BOND
     1    26    27    1
     2    27    23    1
     3    23    24    2
     4    23    25    2
     5    23     1    1
     6     1     2    2
     7     2     3    1
     8     3     4    2
     9     4     5    1
    10     5     6    2
    11     6    10    1
    12    10    11   ar
    13    11    12   ar
    14    12    17    1
    15    17    18   ar
    16    18    19   ar
    17    19    20   ar
    18    20    21   ar
    19    21    22   ar
    20    12    13   ar
    21    13    14   ar
    22    14    15   ar
    23    15    16    1
    24     6     7    1
    25     7     8    2
    26     8     9    1
    27     9     1    1
    28     8     4    1
    29    15    10   ar
    30    22    17   ar
