@<TRIPOS>MOLECULE
*****
 25 28 0 0 0
SMALL
GASTEIGER

@<TRIPOS>ATOM
      1 C          -7.3180  -19.1758   20.9223 C.ar    1  UNL1        0.2947
      2 N          -6.0601  -18.3621   20.9972 N.ar    1  UNL1       -0.1844
      3 C          -4.9222  -19.2243   20.5371 C.ar    1  UNL1        0.2037
      4 N          -5.4768  -20.5710   20.1778 N.ar    1  UNL1       -0.0555
      5 O          -6.9575  -20.5409   20.4159 O.2     1  UNL1       -0.3292
      6 C         -11.8552  -19.1392   24.7299 C.3     1  UNL1        0.0311
      7 C         -11.9303  -18.3589   23.4510 C.ar    1  UNL1       -0.0188
      8 C         -13.1600  -17.5625   23.1294 C.ar    1  UNL1       -0.0044
      9 C         -13.2352  -16.7823   21.8506 C.ar    1  UNL1       -0.0016
     10 C         -12.0805  -16.7984   20.8932 C.ar    1  UNL1        0.0127
     11 C         -12.1557  -16.0181   19.6143 C.3     1  UNL1        0.0342
     12 C         -10.8507  -17.5948   21.2147 C.ar    1  UNL1        0.1412
     13 O          -9.5646  -17.7998   20.4704 O.2     1  UNL1       -0.4490
     14 C          -8.6947  -18.7067   21.2893 C.ar    1  UNL1        0.2010
     15 C          -9.4431  -19.0623   22.5397 C.ar    1  UNL1        0.0451
     16 C         -10.7756  -18.3750   22.4936 C.ar    1  UNL1        0.0335
     17 C          -3.4825  -18.8123   20.4514 C.ar    1  UNL1        0.0391
     18 C          -2.9114  -18.3494   19.1439 C.ar    1  UNL1        0.0032
     19 C          -1.4716  -17.9374   19.0582 C.ar    1  UNL1        0.0012
     20 C          -0.6029  -17.9883   20.2799 C.ar    1  UNL1        0.0140
     21 C          -1.1740  -18.4513   21.5875 C.ar    1  UNL1        0.0012
     22 C          -2.6137  -18.8632   21.6732 C.ar    1  UNL1        0.0032
     23 C           0.8368  -17.5764   20.1943 C.2     1  UNL1        0.0729
     24 O           1.2374  -16.4280   19.3163 O.co2   1  UNL1       -0.5446
     25 O           1.8760  -18.3128   20.9866 O.co2   1  UNL1       -0.5446
@<TRIPOS>UNITY_ATOM_ATTR
24 1
charge -1
@<TRIPOS>BOND
     1     6     7    1
     2     7     8   ar
     3     8     9   ar
     4     9    10   ar
     5    10    11    1
     6    10    12   ar
     7    12    13   ar
     8    13    14   ar
     9    14     1    1
    10     1     2   ar
    11     2     3   ar
    12     3    17    1
    13    17    18   ar
    14    18    19   ar
    15    19    20   ar
    16    20    23    1
    17    23    24   ar
    18    23    25   ar
    19    20    21   ar
    20    21    22   ar
    21     3     4   ar
    22     4     5   ar
    23    14    15   ar
    24    15    16   ar
    25    16     7   ar
    26    16    12   ar
    27     5     1   ar
    28    22    17   ar
@<TRIPOS>MOLECULE
*****
 25 28 0 0 0
SMALL
GASTEIGER

@<TRIPOS>ATOM
      1 C          -1.3400    2.8457   20.1477 C.ar    1  UNL1        0.2947
      2 N          -0.6123    1.5415   20.2876 N.ar    1  UNL1       -0.1844
      3 C           0.6196    1.6042   19.4342 C.ar    1  UNL1        0.2037
      4 N           0.6534    2.9472   18.7668 N.ar    1  UNL1       -0.0555
      5 O          -0.5577    3.7145   19.2079 O.2     1  UNL1       -0.3292
      6 C          -6.9789    4.6239   19.7945 C.3     1  UNL1        0.0311
      7 C          -6.3461    4.3653   21.1296 C.ar    1  UNL1       -0.0188
      8 C          -7.1419    4.5568   22.3866 C.ar    1  UNL1       -0.0044
      9 C          -6.5091    4.2983   23.7217 C.ar    1  UNL1       -0.0016
     10 C          -5.0803    3.8482   23.8000 C.ar    1  UNL1        0.0127
     11 C          -4.4475    3.5897   25.1352 C.3     1  UNL1        0.0342
     12 C          -4.2844    3.6567   22.5430 C.ar    1  UNL1        0.1412
     13 O          -2.8673    3.2246   22.3084 O.2     1  UNL1       -0.4490
     14 C          -2.6244    3.2161   20.8283 C.ar    1  UNL1        0.2010
     15 C          -3.8913    3.6429   20.1481 C.ar    1  UNL1        0.0451
     16 C          -4.9173    3.9153   21.2079 C.ar    1  UNL1        0.0335
     17 C           1.6389    0.5152   19.2758 C.ar    1  UNL1        0.0391
     18 C           1.6573   -0.6399   20.2327 C.ar    1  UNL1        0.0032
     19 C           2.6766   -1.7289   20.0742 C.ar    1  UNL1        0.0012
     20 C           3.6775   -1.6629   18.9590 C.ar    1  UNL1        0.0140
     21 C           3.6591   -0.5079   18.0021 C.ar    1  UNL1        0.0012
     22 C           2.6399    0.5811   18.1605 C.ar    1  UNL1        0.0032
     23 C           4.6968   -2.7518   18.8006 C.2     1  UNL1        0.0729
     24 O           5.6724   -2.7061   17.6621 O.co2   1  UNL1       -0.5446
     25 O           4.7404   -3.8866   19.7806 O.co2   1  UNL1       -0.5446
@<TRIPOS>UNITY_ATOM_ATTR
24 1
charge -1
@<TRIPOS>BOND
     1     6     7    1
     2     7     8   ar
     3     8     9   ar
     4     9    10   ar
     5    10    11    1
     6    10    12   ar
     7    12    13   ar
     8    13    14   ar
     9    14     1    1
    10     1     2   ar
    11     2     3   ar
    12     3    17    1
    13    17    18   ar
    14    18    19   ar
    15    19    20   ar
    16    20    23    1
    17    23    24   ar
    18    23    25   ar
    19    20    21   ar
    20    21    22   ar
    21     3     4   ar
    22     4     5   ar
    23    14    15   ar
    24    15    16   ar
    25    16     7   ar
    26    16    12   ar
    27     5     1   ar
    28    22    17   ar
@<TRIPOS>MOLECULE
*****
 25 28 0 0 0
SMALL
GASTEIGER

@<TRIPOS>ATOM
      1 C           6.5885   -4.4222   24.0372 C.ar    1  UNL1        0.2947
      2 N           5.4406   -3.4768   23.8407 N.ar    1  UNL1       -0.1844
      3 C           5.2122   -3.3253   22.3659 C.ar    1  UNL1        0.2037
      4 N           6.2190   -4.1770   21.6510 N.ar    1  UNL1       -0.0555
      5 O           7.0696   -4.8549   22.6840 O.2     1  UNL1       -0.3292
      6 C           8.4678   -8.7613   27.6044 C.3     1  UNL1        0.0311
      7 C           8.4938   -7.3341   28.0652 C.ar    1  UNL1       -0.0188
      8 C           8.9980   -6.9981   29.4374 C.ar    1  UNL1       -0.0044
      9 C           9.0240   -5.5710   29.8982 C.ar    1  UNL1       -0.0016
     10 C           8.5458   -4.4797   28.9869 C.ar    1  UNL1        0.0127
     11 C           8.5718   -3.0524   29.4479 C.3     1  UNL1        0.0342
     12 C           8.0415   -4.8156   27.6148 C.ar    1  UNL1        0.1412
     13 O           7.5101   -3.9599   26.5034 O.2     1  UNL1       -0.4490
     14 C           7.1557   -4.8582   25.3556 C.ar    1  UNL1        0.2010
     15 C           7.4681   -6.2692   25.7576 C.ar    1  UNL1        0.0451
     16 C           8.0156   -6.2429   27.1539 C.ar    1  UNL1        0.0335
     17 C           4.1615   -2.4719   21.7195 C.ar    1  UNL1        0.0391
     18 C           3.4838   -1.3908   22.5080 C.ar    1  UNL1        0.0032
     19 C           2.4330   -0.5374   21.8615 C.ar    1  UNL1        0.0012
     20 C           2.0601   -0.7652   20.4266 C.ar    1  UNL1        0.0140
     21 C           2.7379   -1.8464   19.6381 C.ar    1  UNL1        0.0012
     22 C           3.7886   -2.6998   20.2845 C.ar    1  UNL1        0.0032
     23 C           1.0095    0.0881   19.7801 C.2     1  UNL1        0.0729
     24 O          -0.2059    0.4989   20.5573 O.co2   1  UNL1       -0.5446
     25 O           1.1743    0.5306   18.3564 O.co2   1  UNL1       -0.5446
@<TRIPOS>UNITY_ATOM_ATTR
24 1
charge -1
@<TRIPOS>BOND
     1     6     7    1
     2     7     8   ar
     3     8     9   ar
     4     9    10   ar
     5    10    11    1
     6    10    12   ar
     7    12    13   ar
     8    13    14   ar
     9    14     1    1
    10     1     2   ar
    11     2     3   ar
    12     3    17    1
    13    17    18   ar
    14    18    19   ar
    15    19    20   ar
    16    20    23    1
    17    23    24   ar
    18    23    25   ar
    19    20    21   ar
    20    21    22   ar
    21     3     4   ar
    22     4     5   ar
    23    14    15   ar
    24    15    16   ar
    25    16     7   ar
    26    16    12   ar
    27     5     1   ar
    28    22    17   ar
@<TRIPOS>MOLECULE
*****
 25 28 0 0 0
SMALL
GASTEIGER

@<TRIPOS>ATOM
      1 C          -1.2626    2.9842   20.4757 C.ar    1  UNL1        0.2947
      2 N          -0.6029    1.6371   20.4819 N.ar    1  UNL1       -0.1844
      3 C           0.6652    1.7384   19.6871 C.ar    1  UNL1        0.2037
      4 N           0.7892    3.1481   19.1897 N.ar    1  UNL1       -0.0555
      5 O          -0.4023    3.9181   19.6771 O.2     1  UNL1       -0.3292
      6 C          -4.3685    3.8124   25.4508 C.3     1  UNL1        0.0311
      7 C          -5.0170    3.9967   24.1108 C.ar    1  UNL1       -0.0188
      8 C          -6.4610    4.3933   24.0246 C.ar    1  UNL1       -0.0044
      9 C          -7.1094    4.5776   22.6847 C.ar    1  UNL1       -0.0016
     10 C          -6.3138    4.3653   21.4308 C.ar    1  UNL1        0.0127
     11 C          -6.9623    4.5497   20.0908 C.3     1  UNL1        0.0342
     12 C          -4.8697    3.9688   21.5171 C.ar    1  UNL1        0.1412
     13 O          -3.8404    3.6914   20.4619 O.2     1  UNL1       -0.4490
     14 C          -2.5557    3.3357   21.1497 C.ar    1  UNL1        0.2010
     15 C          -2.7912    3.3932   22.6300 C.ar    1  UNL1        0.0451
     16 C          -4.2213    3.7844   22.8571 C.ar    1  UNL1        0.0335
     17 C           1.6385    0.6254   19.4342 C.ar    1  UNL1        0.0391
     18 C           1.6836   -0.5559   20.3575 C.ar    1  UNL1        0.0032
     19 C           2.6569   -1.6689   20.1044 C.ar    1  UNL1        0.0012
     20 C           3.5852   -1.6005   18.9282 C.ar    1  UNL1        0.0140
     21 C           3.5401   -0.4192   18.0049 C.ar    1  UNL1        0.0012
     22 C           2.5669    0.6938   18.2578 C.ar    1  UNL1        0.0032
     23 C           4.5585   -2.7134   18.6751 C.2     1  UNL1        0.0729
     24 O           4.5018   -3.9623   19.5040 O.co2   1  UNL1       -0.5446
     25 O           5.5885   -2.5774   17.5932 O.co2   1  UNL1       -0.5446
@<TRIPOS>UNITY_ATOM_ATTR
24 1
charge -1
@<TRIPOS>BOND
     1     6     7    1
     2     7     8   ar
     3     8     9   ar
     4     9    10   ar
     5    10    11    1
     6    10    12   ar
     7    12    13   ar
     8    13    14   ar
     9    14     1    1
    10     1     2   ar
    11     2     3   ar
    12     3    17    1
    13    17    18   ar
    14    18    19   ar
    15    19    20   ar
    16    20    23    1
    17    23    24   ar
    18    23    25   ar
    19    20    21   ar
    20    21    22   ar
    21     3     4   ar
    22     4     5   ar
    23    14    15   ar
    24    15    16   ar
    25    16     7   ar
    26    16    12   ar
    27     5     1   ar
    28    22    17   ar
@<TRIPOS>MOLECULE
*****
 25 28 0 0 0
SMALL
GASTEIGER

@<TRIPOS>ATOM
      1 C          -7.1210  -18.7961   20.6039 C.ar    1  UNL1        0.2947
      2 N          -7.9964  -18.5679   21.8004 N.ar    1  UNL1       -0.1844
      3 C          -9.4065  -18.9026   21.4137 C.ar    1  UNL1        0.2037
      4 N          -9.4026  -19.3376   19.9781 N.ar    1  UNL1       -0.0555
      5 O          -7.9900  -19.2718   19.4777 O.2     1  UNL1       -0.3292
      6 C          -1.9221  -18.2614   23.3915 C.3     1  UNL1        0.0311
      7 C          -1.9952  -18.1702   21.8961 C.ar    1  UNL1       -0.0188
      8 C          -0.7467  -17.9423   21.0967 C.ar    1  UNL1       -0.0044
      9 C          -0.8198  -17.8512   19.6013 C.ar    1  UNL1       -0.0016
     10 C          -2.1415  -17.9880   18.9052 C.ar    1  UNL1        0.0127
     11 C          -2.2145  -17.8968   17.4097 C.3     1  UNL1        0.0342
     12 C          -3.3900  -18.2159   19.7046 C.ar    1  UNL1        0.1412
     13 O          -4.8239  -18.3880   19.2993 O.2     1  UNL1       -0.4490
     14 C          -5.6370  -18.5855   20.5442 C.ar    1  UNL1        0.2010
     15 C          -4.7056  -18.5355   21.7190 C.ar    1  UNL1        0.0451
     16 C          -3.3169  -18.3070   21.2001 C.ar    1  UNL1        0.0335
     17 C         -10.6093  -18.8172   22.3058 C.ar    1  UNL1        0.0391
     18 C         -10.5363  -19.3281   23.7142 C.ar    1  UNL1        0.0032
     19 C         -11.7393  -19.2427   24.6063 C.ar    1  UNL1        0.0012
     20 C         -13.0151  -18.6465   24.0899 C.ar    1  UNL1        0.0140
     21 C         -13.0881  -18.1356   22.6815 C.ar    1  UNL1        0.0012
     22 C         -11.8853  -18.2210   21.7894 C.ar    1  UNL1        0.0032
     23 C         -14.2180  -18.5611   24.9819 C.2     1  UNL1        0.0729
     24 O         -15.5951  -18.6605   24.3957 O.co2   1  UNL1       -0.5446
     25 O         -14.0437  -18.3764   26.4603 O.co2   1  UNL1       -0.5446
@<TRIPOS>UNITY_ATOM_ATTR
24 1
charge -1
@<TRIPOS>BOND
     1     6     7    1
     2     7     8   ar
     3     8     9   ar
     4     9    10   ar
     5    10    11    1
     6    10    12   ar
     7    12    13   ar
     8    13    14   ar
     9    14     1    1
    10     1     2   ar
    11     2     3   ar
    12     3    17    1
    13    17    18   ar
    14    18    19   ar
    15    19    20   ar
    16    20    23    1
    17    23    24   ar
    18    23    25   ar
    19    20    21   ar
    20    21    22   ar
    21     3     4   ar
    22     4     5   ar
    23    14    15   ar
    24    15    16   ar
    25    16     7   ar
    26    16    12   ar
    27     5     1   ar
    28    22    17   ar
@<TRIPOS>MOLECULE
*****
 25 28 0 0 0
SMALL
GASTEIGER

@<TRIPOS>ATOM
      1 C           6.2481   -3.4768   21.4713 C.ar    1  UNL1        0.2947
      2 N           6.1239   -4.1726   22.7943 N.ar    1  UNL1       -0.1844
      3 C           7.3418   -5.0272   22.9848 C.ar    1  UNL1        0.2037
      4 N           8.2189   -4.8595   21.7795 N.ar    1  UNL1       -0.0555
      5 O           7.5429   -3.9013   20.8440 O.2     1  UNL1       -0.3292
      6 C           1.8038    0.3706   22.1995 C.3     1  UNL1        0.0311
      7 C           2.3308    0.0693   20.8278 C.ar    1  UNL1       -0.0188
      8 C           1.7321    0.7441   19.6294 C.ar    1  UNL1       -0.0044
      9 C           2.2591    0.4429   18.2578 C.ar    1  UNL1       -0.0016
     10 C           3.3849   -0.5331   18.0845 C.ar    1  UNL1        0.0127
     11 C           3.9119   -0.8342   16.7127 C.3     1  UNL1        0.0342
     12 C           3.9837   -1.2078   19.2829 C.ar    1  UNL1        0.1412
     13 O           5.0936   -2.2073   19.4218 O.2     1  UNL1       -0.4490
     14 C           5.2524   -2.5237   20.8794 C.ar    1  UNL1        0.2010
     15 C           4.2408   -1.7199   21.6413 C.ar    1  UNL1        0.0451
     16 C           3.4567   -0.9066   20.6545 C.ar    1  UNL1        0.0335
     17 C           7.6319   -5.8968   24.1721 C.ar    1  UNL1        0.0391
     18 C           8.4291   -7.1560   24.0025 C.ar    1  UNL1        0.0032
     19 C           8.7192   -8.0256   25.1899 C.ar    1  UNL1        0.0012
     20 C           8.2120   -7.6359   26.5467 C.ar    1  UNL1        0.0140
     21 C           7.4148   -6.3767   26.7162 C.ar    1  UNL1        0.0012
     22 C           7.1247   -5.5071   25.5289 C.ar    1  UNL1        0.0032
     23 C           8.5021   -8.5054   27.7340 C.2     1  UNL1        0.0729
     24 O           8.1256   -9.9572   27.7103 O.co2   1  UNL1       -0.5446
     25 O           9.1686   -7.9231   28.9451 O.co2   1  UNL1       -0.5446
@<TRIPOS>UNITY_ATOM_ATTR
24 1
charge -1
@<TRIPOS>BOND
     1     6     7    1
     2     7     8   ar
     3     8     9   ar
     4     9    10   ar
     5    10    11    1
     6    10    12   ar
     7    12    13   ar
     8    13    14   ar
     9    14     1    1
    10     1     2   ar
    11     2     3   ar
    12     3    17    1
    13    17    18   ar
    14    18    19   ar
    15    19    20   ar
    16    20    23    1
    17    23    24   ar
    18    23    25   ar
    19    20    21   ar
    20    21    22   ar
    21     3     4   ar
    22     4     5   ar
    23    14    15   ar
    24    15    16   ar
    25    16     7   ar
    26    16    12   ar
    27     5     1   ar
    28    22    17   ar
@<TRIPOS>MOLECULE
*****
 25 28 0 0 0
SMALL
GASTEIGER

@<TRIPOS>ATOM
      1 C          -1.5540    3.0361   21.0751 C.ar    1  UNL1        0.2947
      2 N          -0.6071    1.8756   21.1559 N.ar    1  UNL1       -0.1844
      3 C           0.1906    1.8388   19.8861 C.ar    1  UNL1        0.2037
      4 N          -0.2634    2.9767   19.0204 N.ar    1  UNL1       -0.0555
      5 O          -1.3416    3.7167   19.7554 O.2     1  UNL1       -0.3292
      6 C          -2.7139    4.4645   26.7053 C.3     1  UNL1        0.0311
      7 C          -3.8128    4.4454   25.6844 C.ar    1  UNL1       -0.0188
      8 C          -5.2163    4.7894   26.0867 C.ar    1  UNL1       -0.0044
      9 C          -6.3151    4.7703   25.0660 C.ar    1  UNL1       -0.0016
     10 C          -6.0106    4.4071   23.6428 C.ar    1  UNL1        0.0127
     11 C          -7.1095    4.3880   22.6220 C.3     1  UNL1        0.0342
     12 C          -4.6071    4.0631   23.2405 C.ar    1  UNL1        0.1412
     13 O          -4.0088    3.6689   21.9227 O.2     1  UNL1       -0.4490
     14 C          -2.5401    3.4444   22.1290 C.ar    1  UNL1        0.2010
     15 C          -2.2307    3.6998   23.5744 C.ar    1  UNL1        0.0451
     16 C          -3.5082    4.0822   24.2613 C.ar    1  UNL1        0.0335
     17 C           1.2552    0.8397   19.5422 C.ar    1  UNL1        0.0391
     18 C           2.1780    1.0945   18.3874 C.ar    1  UNL1        0.0032
     19 C           3.2427    0.0952   18.0435 C.ar    1  UNL1        0.0012
     20 C           3.3845   -1.1586   18.8545 C.ar    1  UNL1        0.0140
     21 C           2.4618   -1.4134   20.0093 C.ar    1  UNL1        0.0012
     22 C           1.3971   -0.4142   20.3532 C.ar    1  UNL1        0.0032
     23 C           4.4491   -2.1577   18.5107 C.2     1  UNL1        0.0729
     24 O           5.2548   -1.9936   17.2561 O.co2   1  UNL1       -0.5446
     25 O           4.7081   -3.3211   19.4215 O.co2   1  UNL1       -0.5446
@<TRIPOS>UNITY_ATOM_ATTR
24 1
charge -1
@<TRIPOS>BOND
     1     6     7    1
     2     7     8   ar
     3     8     9   ar
     4     9    10   ar
     5    10    11    1
     6    10    12   ar
     7    12    13   ar
     8    13    14   ar
     9    14     1    1
    10     1     2   ar
    11     2     3   ar
    12     3    17    1
    13    17    18   ar
    14    18    19   ar
    15    19    20   ar
    16    20    23    1
    17    23    24   ar
    18    23    25   ar
    19    20    21   ar
    20    21    22   ar
    21     3     4   ar
    22     4     5   ar
    23    14    15   ar
    24    15    16   ar
    25    16     7   ar
    26    16    12   ar
    27     5     1   ar
    28    22    17   ar
@<TRIPOS>MOLECULE
*****
 25 28 0 0 0
SMALL
GASTEIGER

@<TRIPOS>ATOM
      1 C           5.8634   -3.3824   22.5442 C.ar    1  UNL1        0.2947
      2 N           5.7370   -3.1561   24.0216 N.ar    1  UNL1       -0.1844
      3 C           6.5304   -4.2185   24.7228 C.ar    1  UNL1        0.2037
      4 N           7.1471   -5.1016   23.6788 N.ar    1  UNL1       -0.0555
      5 O           6.7349   -4.5848   22.3323 O.2     1  UNL1       -0.3292
      6 C           1.0877   -0.6577   20.3411 C.3     1  UNL1        0.0311
      7 C           2.3965   -0.6066   19.6100 C.ar    1  UNL1       -0.0188
      8 C           2.5019    0.1380   18.3121 C.ar    1  UNL1       -0.0044
      9 C           3.8106    0.1891   17.5810 C.ar    1  UNL1       -0.0016
     10 C           5.0140   -0.5044   18.1477 C.ar    1  UNL1        0.0127
     11 C           6.3227   -0.4532   17.4164 C.3     1  UNL1        0.0342
     12 C           4.9085   -1.2490   19.4455 C.ar    1  UNL1        0.1412
     13 O           5.9158   -2.0228   20.2434 O.2     1  UNL1       -0.4490
     14 C           5.2295   -2.5521   21.4676 C.ar    1  UNL1        0.2010
     15 C           3.7982   -2.1055   21.4264 C.ar    1  UNL1        0.0451
     16 C           3.5998   -1.3001   20.1767 C.ar    1  UNL1        0.0335
     17 C           6.6807   -4.3713   26.2074 C.ar    1  UNL1        0.0391
     18 C           7.0140   -5.7111   26.7937 C.ar    1  UNL1        0.0032
     19 C           7.1643   -5.8638   28.2784 C.ar    1  UNL1        0.0012
     20 C           6.9813   -4.6766   29.1767 C.ar    1  UNL1        0.0140
     21 C           6.6480   -3.3368   28.5905 C.ar    1  UNL1        0.0012
     22 C           6.4977   -3.1840   27.1059 C.ar    1  UNL1        0.0032
     23 C           7.1316   -4.8293   30.6613 C.2     1  UNL1        0.0729
     24 O           6.7996   -6.1362   31.3183 O.co2   1  UNL1       -0.5446
     25 O           7.6139   -3.6749   31.4889 O.co2   1  UNL1       -0.5446
@<TRIPOS>UNITY_ATOM_ATTR
24 1
charge -1
@<TRIPOS>BOND
     1     6     7    1
     2     7     8   ar
     3     8     9   ar
     4     9    10   ar
     5    10    11    1
     6    10    12   ar
     7    12    13   ar
     8    13    14   ar
     9    14     1    1
    10     1     2   ar
    11     2     3   ar
    12     3    17    1
    13    17    18   ar
    14    18    19   ar
    15    19    20   ar
    16    20    23    1
    17    23    24   ar
    18    23    25   ar
    19    20    21   ar
    20    21    22   ar
    21     3     4   ar
    22     4     5   ar
    23    14    15   ar
    24    15    16   ar
    25    16     7   ar
    26    16    12   ar
    27     5     1   ar
    28    22    17   ar
@<TRIPOS>MOLECULE
*****
 25 28 0 0 0
SMALL
GASTEIGER

@<TRIPOS>ATOM
      1 C           7.1821   -3.6297   21.0428 C.ar    1  UNL1        0.2947
      2 N           6.8681   -4.3005   22.3472 N.ar    1  UNL1       -0.1844
      3 C           8.0207   -5.1941   22.6980 C.ar    1  UNL1        0.2037
      4 N           9.0469   -5.0757   21.6104 N.ar    1  UNL1       -0.0555
      5 O           8.5286   -4.1087   20.5874 O.2     1  UNL1       -0.3292
      6 C           6.4911    0.4586   16.8127 C.3     1  UNL1        0.0311
      7 C           5.3411    0.0796   17.6982 C.ar    1  UNL1       -0.0188
      8 C           4.0054    0.7373   17.5155 C.ar    1  UNL1       -0.0044
      9 C           2.8555    0.3584   18.4009 C.ar    1  UNL1       -0.0016
     10 C           3.0412   -0.6782   19.4691 C.ar    1  UNL1        0.0127
     11 C           1.8912   -1.0571   20.3546 C.3     1  UNL1        0.0342
     12 C           4.3770   -1.3358   19.6519 C.ar    1  UNL1        0.1412
     13 O           4.8570   -2.3832   20.6124 O.2     1  UNL1       -0.4490
     14 C           6.3036   -2.6515   20.3205 C.ar    1  UNL1        0.2010
     15 C           6.7177   -1.7701   19.1797 C.ar    1  UNL1        0.0451
     16 C           5.5269   -0.9569   18.7664 C.ar    1  UNL1        0.0335
     17 C           8.1282   -6.0551   23.9215 C.ar    1  UNL1        0.0391
     18 C           9.0754   -7.2181   23.9395 C.ar    1  UNL1        0.0032
     19 C           9.1829   -8.0791   25.1631 C.ar    1  UNL1        0.0012
     20 C           8.3431   -7.7771   26.3688 C.ar    1  UNL1        0.0140
     21 C           7.3959   -6.6142   26.3508 C.ar    1  UNL1        0.0012
     22 C           7.2884   -5.7532   25.1273 C.ar    1  UNL1        0.0032
     23 C           8.4505   -8.6381   27.5923 C.2     1  UNL1        0.0729
     24 O           9.2161   -8.1515   28.7869 O.co2   1  UNL1       -0.5446
     25 O           7.7924   -9.9857   27.6213 O.co2   1  UNL1       -0.5446
@<TRIPOS>UNITY_ATOM_ATTR
24 1
charge -1
@<TRIPOS>BOND
     1     6     7    1
     2     7     8   ar
     3     8     9   ar
     4     9    10   ar
     5    10    11    1
     6    10    12   ar
     7    12    13   ar
     8    13    14   ar
     9    14     1    1
    10     1     2   ar
    11     2     3   ar
    12     3    17    1
    13    17    18   ar
    14    18    19   ar
    15    19    20   ar
    16    20    23    1
    17    23    24   ar
    18    23    25   ar
    19    20    21   ar
    20    21    22   ar
    21     3     4   ar
    22     4     5   ar
    23    14    15   ar
    24    15    16   ar
    25    16     7   ar
    26    16    12   ar
    27     5     1   ar
    28    22    17   ar
