@<TRIPOS>MOLECULE
*****
 39 43 0 0 0
SMALL
GASTEIGER

@<TRIPOS>ATOM
      1 N          -3.1044    3.7947   21.0396 N.ar    1  UNL1       -0.2495
      2 C          -2.1057    4.5010   21.9077 C.ar    1  UNL1        0.0963
      3 C          -0.7888    3.7969   21.7667 C.ar    1  UNL1        0.0351
      4 C          -0.9735    2.6552   20.8115 C.ar    1  UNL1        0.1020
      5 N          -2.4046    2.6538   20.3621 N.ar    1  UNL1       -0.1693
      6 C           0.4887    4.1690   22.4594 C.2     1  UNL1        0.0003
      7 C           1.4537    5.1086   21.7991 C.2     1  UNL1        0.0472
      8 C           2.7310    5.4807   22.4917 C.2     1  UNL1        0.2354
      9 N           3.0434    4.9133   23.8447 N.2     1  UNL1       -0.0341
     10 C           2.0784    3.9738   24.5050 C.2     1  UNL1        0.3592
     11 N           2.1148    3.2613   25.8245 N.2     1  UNL1       -0.0382
     12 C           0.8599    2.4489   25.9474 C.2     1  UNL1        0.1897
     13 C           0.0479    2.6592   24.7038 C.2     1  UNL1        0.0369
     14 C           0.8010    3.6016   23.8123 C.3     1  UNL1        0.1600
     15 C           0.4831    1.5788   27.1098 C.ar    1  UNL1        0.0424
     16 C          -0.9627    1.3321   27.4242 C.ar    1  UNL1        0.0037
     17 C          -1.3396    0.4621   28.5865 C.ar    1  UNL1       -0.0002
     18 C          -0.2707   -0.1612   29.4344 C.ar    1  UNL1       -0.0029
     19 C           1.1751    0.0855   29.1200 C.ar    1  UNL1       -0.0060
     20 C           1.5520    0.9555   27.9576 C.ar    1  UNL1        0.0008
     21 C           2.2440   -0.5378   29.9679 C.3     1  UNL1        0.0992
     22 N           2.6139    0.0810   31.2833 N.3     1  UNL1       -0.2665
     23 C           2.0599    1.4221   31.6634 C.3     1  UNL1        0.0899
     24 C           3.5377   -0.6413   32.2186 C.3     1  UNL1        0.0899
     25 C           0.0866    1.6853   20.3811 C.ar    1  UNL1        0.0195
     26 C           0.6754    1.7797   19.0047 C.ar    1  UNL1        0.0028
     27 C           1.7356    0.8098   18.5744 C.ar    1  UNL1        0.0148
     28 C           2.2070   -0.2547   19.5203 C.ar    1  UNL1        0.0516
     29 C           1.6182   -0.3491   20.8967 C.ar    1  UNL1        0.0148
     30 C           0.5580    0.6209   21.3270 C.ar    1  UNL1        0.0028
     31 N           3.2672   -1.2246   19.0900 N.am    1  UNL1       -0.2681
     32 C           4.7153   -0.8950   19.3006 C.2     1  UNL1        0.3078
     33 O           5.1032    0.4045   19.9414 O.2     1  UNL1       -0.2522
     34 N           5.7755   -1.8649   18.8702 N.am    1  UNL1       -0.2605
     35 C           7.2236   -1.5354   19.0808 C.3     1  UNL1        0.1165
     36 C           5.3875   -3.1645   18.2294 C.3     1  UNL1        0.1165
     37 H           3.0126   -2.0776   18.6694 H       1  UNL1        0.1564
     38 C          -5.4015    3.4380   19.8793 C.3     1  UNL1        0.0284
     39 C          -4.5491    4.1641   20.8774 C.3     1  UNL1        0.1276
@<TRIPOS>BOND
     1    38    39    1
     2    39     1    1
     3     1     2   ar
     4     2     3   ar
     5     3     6    1
     6     6     7    2
     7     7     8    1
     8     8     9    2
     9     9    10    1
    10    10    11    2
    11    11    12    1
    12    12    15    1
    13    15    16   ar
    14    16    17   ar
    15    17    18   ar
    16    18    19   ar
    17    19    21    1
    18    21    22    1
    19    22    23    1
    20    22    24    1
    21    19    20   ar
    22    12    13    2
    23    13    14    1
    24     3     4   ar
    25     4    25    1
    26    25    26   ar
    27    26    27   ar
    28    27    28   ar
    29    28    31    1
    30    31    32   am
    31    32    33    2
    32    32    34   am
    33    34    35    1
    34    34    36    1
    35    28    29   ar
    36    29    30   ar
    37     4     5   ar
    38     5     1   ar
    39    14     6    1
    40    30    25   ar
    41    14    10    1
    42    20    15   ar
    43    31    37    1
@<TRIPOS>MOLECULE
*****
 39 43 0 0 0
SMALL
GASTEIGER

@<TRIPOS>ATOM
      1 N           6.9919   -4.5153   29.2113 N.ar    1  UNL1       -0.2495
      2 C           7.1431   -3.1752   28.5546 C.ar    1  UNL1        0.0963
      3 C           6.7972   -2.1221   29.5651 C.ar    1  UNL1        0.0351
      4 C           6.4322   -2.8112   30.8464 C.ar    1  UNL1        0.1020
      5 N           6.5525   -4.2903   30.6278 N.ar    1  UNL1       -0.1693
      6 C           6.8134   -0.6399   29.3348 C.2     1  UNL1        0.0003
      7 C           8.1089    0.1140   29.3931 C.2     1  UNL1        0.0472
      8 C           8.1252    1.5961   29.1628 C.2     1  UNL1        0.2354
      9 N           6.8460    2.3243   28.8741 N.2     1  UNL1       -0.0341
     10 C           5.5505    1.5704   28.8157 C.2     1  UNL1        0.3592
     11 N           4.1418    2.0143   28.5539 N.2     1  UNL1       -0.0382
     12 C           3.2549    0.8066   28.6225 C.2     1  UNL1        0.1897
     13 C           4.1155   -0.3838   28.9266 C.2     1  UNL1        0.0369
     14 C           5.5342    0.0883   29.0460 C.3     1  UNL1        0.1600
     15 C           1.7684    0.7917   28.4221 C.ar    1  UNL1        0.0424
     16 C           0.9157   -0.1631   29.2040 C.ar    1  UNL1        0.0037
     17 C          -0.5707   -0.1780   29.0036 C.ar    1  UNL1       -0.0002
     18 C          -1.2045    0.7619   28.0214 C.ar    1  UNL1       -0.0029
     19 C          -0.3519    1.7167   27.2395 C.ar    1  UNL1       -0.0060
     20 C           1.1346    1.7316   27.4398 C.ar    1  UNL1        0.0008
     21 C          -0.9858    2.6566   26.2572 C.3     1  UNL1        0.0992
     22 N          -1.8188    3.8038   26.7471 N.3     1  UNL1       -0.2665
     23 C          -1.1597    4.9900   27.3863 C.3     1  UNL1        0.0899
     24 C          -3.3108    3.7648   26.5978 C.3     1  UNL1        0.0899
     25 C           6.0193   -2.1394   32.1224 C.ar    1  UNL1        0.0195
     26 C           4.6559   -2.3908   32.6953 C.ar    1  UNL1        0.0028
     27 C           4.2430   -1.7189   33.9712 C.ar    1  UNL1        0.0148
     28 C           5.1934   -0.7956   34.6744 C.ar    1  UNL1        0.0516
     29 C           6.5567   -0.5442   34.1015 C.ar    1  UNL1        0.0148
     30 C           6.9696   -1.2161   32.8255 C.ar    1  UNL1        0.0028
     31 N           4.7805   -0.1237   35.9503 N.am    1  UNL1       -0.2681
     32 C           3.9287    1.1102   35.9065 C.2     1  UNL1        0.3078
     33 O           3.4898    1.6722   34.5869 O.2     1  UNL1       -0.2522
     34 N           3.5158    1.7821   37.1825 N.am    1  UNL1       -0.2605
     35 C           2.6640    3.0160   37.1388 C.3     1  UNL1        0.1165
     36 C           3.9547    1.2201   38.5022 C.3     1  UNL1        0.1165
     37 H           5.0686   -0.4926   36.8165 H       1  UNL1        0.1564
     38 C           6.9352   -6.0402   27.1086 C.3     1  UNL1        0.0284
     39 C           7.2371   -5.8466   28.5651 C.3     1  UNL1        0.1276
@<TRIPOS>BOND
     1    38    39    1
     2    39     1    1
     3     1     2   ar
     4     2     3   ar
     5     3     6    1
     6     6     7    2
     7     7     8    1
     8     8     9    2
     9     9    10    1
    10    10    11    2
    11    11    12    1
    12    12    15    1
    13    15    16   ar
    14    16    17   ar
    15    17    18   ar
    16    18    19   ar
    17    19    21    1
    18    21    22    1
    19    22    23    1
    20    22    24    1
    21    19    20   ar
    22    12    13    2
    23    13    14    1
    24     3     4   ar
    25     4    25    1
    26    25    26   ar
    27    26    27   ar
    28    27    28   ar
    29    28    31    1
    30    31    32   am
    31    32    33    2
    32    32    34   am
    33    34    35    1
    34    34    36    1
    35    28    29   ar
    36    29    30   ar
    37     4     5   ar
    38     5     1   ar
    39    14     6    1
    40    30    25   ar
    41    14    10    1
    42    20    15   ar
    43    31    37    1
@<TRIPOS>MOLECULE
*****
 39 43 0 0 0
SMALL
GASTEIGER

@<TRIPOS>ATOM
      1 N           0.3533    0.9279   27.7123 N.ar    1  UNL1       -0.2495
      2 C           1.7552    1.3314   27.3634 C.ar    1  UNL1        0.0963
      3 C           1.7347    1.9415   25.9933 C.ar    1  UNL1        0.0351
      4 C           0.3200    1.9151   25.4953 C.ar    1  UNL1        0.1020
      5 N          -0.5338    1.2887   26.5576 N.ar    1  UNL1       -0.1693
      6 C           2.9207    2.4829   25.2513 C.2     1  UNL1        0.0003
      7 C           3.4116    3.8719   25.5335 C.2     1  UNL1        0.0472
      8 C           4.5975    4.4134   24.7916 C.2     1  UNL1        0.2354
      9 N           5.2925    3.5658   23.7676 N.2     1  UNL1       -0.0341
     10 C           4.8016    2.1768   23.4855 C.2     1  UNL1        0.3592
     11 N           5.2802    1.1160   22.5390 N.2     1  UNL1       -0.0382
     12 C           4.3900   -0.0811   22.6960 C.2     1  UNL1        0.1897
     13 C           3.3613    0.2399   23.7394 C.2     1  UNL1        0.0369
     14 C           3.6157    1.6353   24.2274 C.3     1  UNL1        0.1600
     15 C           4.5078   -1.3724   21.9419 C.ar    1  UNL1        0.0424
     16 C           4.4072   -2.6790   22.6718 C.ar    1  UNL1        0.0037
     17 C           4.5250   -3.9703   21.9178 C.ar    1  UNL1       -0.0002
     18 C           4.7434   -3.9551   20.4339 C.ar    1  UNL1       -0.0029
     19 C           4.8440   -2.6485   19.7040 C.ar    1  UNL1       -0.0060
     20 C           4.7262   -1.3572   20.4580 C.ar    1  UNL1        0.0008
     21 C           5.0624   -2.6333   18.2200 C.3     1  UNL1        0.0992
     22 N           5.0826   -1.3297   17.4782 N.3     1  UNL1       -0.2665
     23 C           3.8293   -0.8122   16.8369 C.3     1  UNL1        0.0899
     24 C           6.3562   -0.5437   17.3778 C.3     1  UNL1        0.0899
     25 C          -0.1571    2.4255   24.1680 C.ar    1  UNL1        0.0195
     26 C           0.2760    1.7452   22.9031 C.ar    1  UNL1        0.0028
     27 C          -0.2012    2.2556   21.5758 C.ar    1  UNL1        0.0148
     28 C          -1.1114    3.4462   21.5132 C.ar    1  UNL1        0.0516
     29 C          -1.5445    4.1265   22.7780 C.ar    1  UNL1        0.0148
     30 C          -1.0673    3.6161   24.1053 C.ar    1  UNL1        0.0028
     31 N          -1.5886    3.9566   20.1859 N.am    1  UNL1       -0.2681
     32 C          -2.9816    3.6503   19.7213 C.2     1  UNL1        0.3078
     33 O          -3.8973    2.8336   20.5840 O.2     1  UNL1       -0.2522
     34 N          -3.4587    4.1607   18.3940 N.am    1  UNL1       -0.2605
     35 C          -4.8517    3.8544   17.9294 C.3     1  UNL1        0.1165
     36 C          -2.5430    4.9774   17.5313 C.3     1  UNL1        0.1165
     37 H          -0.9875    4.4927   19.6196 H       1  UNL1        0.1564
     38 C          -1.3437   -0.5370   29.0254 C.3     1  UNL1        0.0284
     39 C          -0.0848    0.2778   28.9911 C.3     1  UNL1        0.1276
@<TRIPOS>BOND
     1    38    39    1
     2    39     1    1
     3     1     2   ar
     4     2     3   ar
     5     3     6    1
     6     6     7    2
     7     7     8    1
     8     8     9    2
     9     9    10    1
    10    10    11    2
    11    11    12    1
    12    12    15    1
    13    15    16   ar
    14    16    17   ar
    15    17    18   ar
    16    18    19   ar
    17    19    21    1
    18    21    22    1
    19    22    23    1
    20    22    24    1
    21    19    20   ar
    22    12    13    2
    23    13    14    1
    24     3     4   ar
    25     4    25    1
    26    25    26   ar
    27    26    27   ar
    28    27    28   ar
    29    28    31    1
    30    31    32   am
    31    32    33    2
    32    32    34   am
    33    34    35    1
    34    34    36    1
    35    28    29   ar
    36    29    30   ar
    37     4     5   ar
    38     5     1   ar
    39    14     6    1
    40    30    25   ar
    41    14    10    1
    42    20    15   ar
    43    31    37    1
@<TRIPOS>MOLECULE
*****
 39 43 0 0 0
SMALL
GASTEIGER

@<TRIPOS>ATOM
      1 N           3.9010   -1.1711   31.5028 N.ar    1  UNL1       -0.2495
      2 C           4.8879   -0.3795   30.6971 C.ar    1  UNL1        0.0963
      3 C           4.1205    0.4627   29.7214 C.ar    1  UNL1        0.0351
      4 C           2.6592    0.1915   29.9242 C.ar    1  UNL1        0.1020
      5 N           2.5235   -0.8182   31.0251 N.ar    1  UNL1       -0.1693
      6 C           4.7108    1.4097   28.7190 C.2     1  UNL1        0.0003
      7 C           5.1682    2.7710   29.1522 C.2     1  UNL1        0.0472
      8 C           5.7585    3.7180   28.1499 C.2     1  UNL1        0.2354
      9 N           5.8913    3.3038   26.7144 N.2     1  UNL1       -0.0341
     10 C           5.4339    1.9425   26.2812 C.2     1  UNL1        0.3592
     11 N           5.4381    1.2602   24.9453 N.2     1  UNL1       -0.0382
     12 C           4.8504   -0.1085   25.1221 C.2     1  UNL1        0.1897
     13 C           4.4830   -0.2721   26.5672 C.2     1  UNL1        0.0369
     14 C           4.8436    0.9954   27.2835 C.3     1  UNL1        0.1600
     15 C           4.6630   -1.1337   24.0432 C.ar    1  UNL1        0.0424
     16 C           5.2503   -2.5049   24.2013 C.ar    1  UNL1        0.0037
     17 C           5.0629   -3.5300   23.1225 C.ar    1  UNL1       -0.0002
     18 C           4.2883   -3.1840   21.8855 C.ar    1  UNL1       -0.0029
     19 C           3.7010   -1.8128   21.7274 C.ar    1  UNL1       -0.0060
     20 C           3.8884   -0.7877   22.8062 C.ar    1  UNL1        0.0008
     21 C           2.9263   -1.4669   20.4903 C.3     1  UNL1        0.0992
     22 N           3.6482   -1.0189   19.2541 N.3     1  UNL1       -0.2665
     23 C           3.8126    0.4449   18.9706 C.3     1  UNL1        0.0899
     24 C           4.2056   -2.0346   18.3014 C.3     1  UNL1        0.0899
     25 C           1.5316    0.8198   29.1602 C.ar    1  UNL1        0.0195
     26 C           0.5317   -0.0456   28.4520 C.ar    1  UNL1        0.0028
     27 C          -0.5959    0.5826   27.6879 C.ar    1  UNL1        0.0148
     28 C          -0.7238    2.0762   27.6320 C.ar    1  UNL1        0.0516
     29 C           0.2761    2.9414   28.3402 C.ar    1  UNL1        0.0148
     30 C           1.4037    2.3132   29.1042 C.ar    1  UNL1        0.0028
     31 N          -1.8514    2.7044   26.8680 N.am    1  UNL1       -0.2681
     32 C          -1.7160    2.9449   25.3936 C.2     1  UNL1        0.3078
     33 O          -0.4531    2.5573   24.6833 O.2     1  UNL1       -0.2522
     34 N          -2.8436    3.5732   24.6295 N.am    1  UNL1       -0.2605
     35 C          -2.7082    3.8137   23.1552 C.3     1  UNL1        0.1165
     36 C          -4.1066    3.9609   25.3399 C.3     1  UNL1        0.1165
     37 H          -2.6803    2.9589   27.3342 H       1  UNL1        0.1564
     38 C           4.4669   -1.6531   33.9923 C.3     1  UNL1        0.0284
     39 C           4.2331   -2.1446   32.5945 C.3     1  UNL1        0.1276
@<TRIPOS>BOND
     1    38    39    1
     2    39     1    1
     3     1     2   ar
     4     2     3   ar
     5     3     6    1
     6     6     7    2
     7     7     8    1
     8     8     9    2
     9     9    10    1
    10    10    11    2
    11    11    12    1
    12    12    15    1
    13    15    16   ar
    14    16    17   ar
    15    17    18   ar
    16    18    19   ar
    17    19    21    1
    18    21    22    1
    19    22    23    1
    20    22    24    1
    21    19    20   ar
    22    12    13    2
    23    13    14    1
    24     3     4   ar
    25     4    25    1
    26    25    26   ar
    27    26    27   ar
    28    27    28   ar
    29    28    31    1
    30    31    32   am
    31    32    33    2
    32    32    34   am
    33    34    35    1
    34    34    36    1
    35    28    29   ar
    36    29    30   ar
    37     4     5   ar
    38     5     1   ar
    39    14     6    1
    40    30    25   ar
    41    14    10    1
    42    20    15   ar
    43    31    37    1
@<TRIPOS>MOLECULE
*****
 39 43 0 0 0
SMALL
GASTEIGER

@<TRIPOS>ATOM
      1 N           0.9545    0.5187   28.3812 N.ar    1  UNL1       -0.2495
      2 C           2.0586   -0.4882   28.5118 C.ar    1  UNL1        0.0963
      3 C           3.1107   -0.1570   27.4953 C.ar    1  UNL1        0.0351
      4 C           2.6569    1.0548   26.7365 C.ar    1  UNL1        0.1020
      5 N           1.3244    1.4724   27.2840 N.ar    1  UNL1       -0.1693
      6 C           4.3918   -0.9060   27.2761 C.2     1  UNL1        0.0003
      7 C           5.3851   -1.0358   28.3926 C.2     1  UNL1        0.0472
      8 C           6.6661   -1.7848   28.1734 C.2     1  UNL1        0.2354
      9 N           6.9538   -2.4039   26.8378 N.2     1  UNL1       -0.0341
     10 C           5.9605   -2.2740   25.7213 C.2     1  UNL1        0.3592
     11 N           5.9690   -2.7741   24.3071 N.2     1  UNL1       -0.0382
     12 C           4.6932   -2.3342   23.6523 C.2     1  UNL1        0.1897
     13 C           3.8963   -1.5623   24.6617 C.2     1  UNL1        0.0369
     14 C           4.6795   -1.5251   25.9405 C.3     1  UNL1        0.1600
     15 C           4.2858   -2.6167   22.2365 C.ar    1  UNL1        0.0424
     16 C           4.5524   -3.9643   21.6340 C.ar    1  UNL1        0.0037
     17 C           4.1451   -4.2468   20.2184 C.ar    1  UNL1       -0.0002
     18 C           3.4711   -3.1817   19.4051 C.ar    1  UNL1       -0.0029
     19 C           3.2045   -1.8341   20.0076 C.ar    1  UNL1       -0.0060
     20 C           3.6119   -1.5516   21.4233 C.ar    1  UNL1        0.0008
     21 C           2.5306   -0.7690   19.1943 C.3     1  UNL1        0.0992
     22 N           3.3196    0.0228   18.1941 N.3     1  UNL1       -0.2665
     23 C           3.5010    1.4999   18.3819 C.3     1  UNL1        0.0899
     24 C           3.9273   -0.6625   17.0062 C.3     1  UNL1        0.0899
     25 C           3.4045    1.7303   25.6252 C.ar    1  UNL1        0.0195
     26 C           2.7620    1.8926   24.2795 C.ar    1  UNL1        0.0028
     27 C           3.5096    2.5682   23.1682 C.ar    1  UNL1        0.0148
     28 C           4.8995    3.0814   23.4027 C.ar    1  UNL1        0.0516
     29 C           5.5418    2.9190   24.7484 C.ar    1  UNL1        0.0148
     30 C           4.7943    2.2434   25.8596 C.ar    1  UNL1        0.0028
     31 N           5.6470    3.7569   22.2914 N.am    1  UNL1       -0.2681
     32 C           6.2440    2.9399   21.1840 C.2     1  UNL1        0.3078
     33 O           6.0934    1.4476   21.1879 O.2     1  UNL1       -0.2522
     34 N           6.9915    3.6154   20.0728 N.am    1  UNL1       -0.2605
     35 C           7.5885    2.7985   18.9654 C.3     1  UNL1        0.1165
     36 C           7.1420    5.1079   20.0689 C.3     1  UNL1        0.1165
     37 H           5.7458    4.7364   22.2889 H       1  UNL1        0.1564
     38 C          -1.4267   -0.3789   28.9046 C.3     1  UNL1        0.0284
     39 C          -0.2992    0.5641   29.2035 C.3     1  UNL1        0.1276
@<TRIPOS>BOND
     1    38    39    1
     2    39     1    1
     3     1     2   ar
     4     2     3   ar
     5     3     6    1
     6     6     7    2
     7     7     8    1
     8     8     9    2
     9     9    10    1
    10    10    11    2
    11    11    12    1
    12    12    15    1
    13    15    16   ar
    14    16    17   ar
    15    17    18   ar
    16    18    19   ar
    17    19    21    1
    18    21    22    1
    19    22    23    1
    20    22    24    1
    21    19    20   ar
    22    12    13    2
    23    13    14    1
    24     3     4   ar
    25     4    25    1
    26    25    26   ar
    27    26    27   ar
    28    27    28   ar
    29    28    31    1
    30    31    32   am
    31    32    33    2
    32    32    34   am
    33    34    35    1
    34    34    36    1
    35    28    29   ar
    36    29    30   ar
    37     4     5   ar
    38     5     1   ar
    39    14     6    1
    40    30    25   ar
    41    14    10    1
    42    20    15   ar
    43    31    37    1
@<TRIPOS>MOLECULE
*****
 39 43 0 0 0
SMALL
GASTEIGER

@<TRIPOS>ATOM
      1 N          -0.0339    2.3030   26.5934 N.ar    1  UNL1       -0.2495
      2 C           1.3451    2.7096   27.0211 C.ar    1  UNL1        0.0963
      3 C           2.3300    2.0329   26.1144 C.ar    1  UNL1        0.0351
      4 C           1.5597    1.2081   25.1263 C.ar    1  UNL1        0.1020
      5 N           0.0987    1.3750   25.4223 N.ar    1  UNL1       -0.1693
      6 C           3.8232    2.1590   26.1836 C.2     1  UNL1        0.0003
      7 C           4.5471    3.0424   25.2112 C.2     1  UNL1        0.0472
      8 C           6.0402    3.1685   25.2804 C.2     1  UNL1        0.2354
      9 N           6.8093    2.4111   26.3220 N.2     1  UNL1       -0.0341
     10 C           6.0853    1.5277   27.2943 C.2     1  UNL1        0.3592
     11 N           6.5716    0.6657   28.4216 N.2     1  UNL1       -0.0382
     12 C           5.3790    0.0070   29.0490 C.2     1  UNL1        0.1897
     13 C           4.1557    0.4618   28.3096 C.2     1  UNL1        0.0369
     14 C           4.5923    1.4017   27.2251 C.3     1  UNL1        0.1600
     15 C           5.4051   -0.9404   30.2118 C.ar    1  UNL1        0.0424
     16 C           4.2835   -0.9362   31.2078 C.ar    1  UNL1        0.0037
     17 C           4.3095   -1.8835   32.3705 C.ar    1  UNL1       -0.0002
     18 C           5.4571   -2.8349   32.5372 C.ar    1  UNL1       -0.0029
     19 C           6.5787   -2.8390   31.5412 C.ar    1  UNL1       -0.0060
     20 C           6.5527   -1.8917   30.3785 C.ar    1  UNL1        0.0008
     21 C           7.7264   -3.7905   31.7080 C.3     1  UNL1        0.0992
     22 N           7.7687   -5.0613   30.9123 N.3     1  UNL1       -0.2665
     23 C           6.7568   -5.3037   29.8319 C.3     1  UNL1        0.0899
     24 C           8.8230   -6.0896   31.1970 C.3     1  UNL1        0.0899
     25 C           2.1472    0.3645   24.0340 C.ar    1  UNL1        0.0195
     26 C           3.1516   -0.6991   24.3657 C.ar    1  UNL1        0.0028
     27 C           3.7390   -1.5427   23.2734 C.ar    1  UNL1        0.0148
     28 C           3.3222   -1.3227   21.8493 C.ar    1  UNL1        0.0516
     29 C           2.3178   -0.2591   21.5176 C.ar    1  UNL1        0.0148
     30 C           1.7304    0.5844   22.6100 C.ar    1  UNL1        0.0028
     31 N           3.9097   -2.1663   20.7570 N.am    1  UNL1       -0.2681
     32 C           5.1336   -1.7003   20.0255 C.2     1  UNL1        0.3078
     33 O           5.7699   -0.3909   20.3864 O.2     1  UNL1       -0.2522
     34 N           5.7211   -2.5439   18.9332 N.am    1  UNL1       -0.2605
     35 C           6.9449   -2.0780   18.2017 C.3     1  UNL1        0.1165
     36 C           5.0847   -3.8534   18.5723 C.3     1  UNL1        0.1165
     37 H           3.4920   -3.0258   20.5201 H       1  UNL1        0.1564
     38 C          -2.3439    3.4778   26.4094 C.3     1  UNL1        0.0284
     39 C          -1.3198    2.7464   27.2257 C.3     1  UNL1        0.1276
@<TRIPOS>BOND
     1    38    39    1
     2    39     1    1
     3     1     2   ar
     4     2     3   ar
     5     3     6    1
     6     6     7    2
     7     7     8    1
     8     8     9    2
     9     9    10    1
    10    10    11    2
    11    11    12    1
    12    12    15    1
    13    15    16   ar
    14    16    17   ar
    15    17    18   ar
    16    18    19   ar
    17    19    21    1
    18    21    22    1
    19    22    23    1
    20    22    24    1
    21    19    20   ar
    22    12    13    2
    23    13    14    1
    24     3     4   ar
    25     4    25    1
    26    25    26   ar
    27    26    27   ar
    28    27    28   ar
    29    28    31    1
    30    31    32   am
    31    32    33    2
    32    32    34   am
    33    34    35    1
    34    34    36    1
    35    28    29   ar
    36    29    30   ar
    37     4     5   ar
    38     5     1   ar
    39    14     6    1
    40    30    25   ar
    41    14    10    1
    42    20    15   ar
    43    31    37    1
@<TRIPOS>MOLECULE
*****
 39 43 0 0 0
SMALL
GASTEIGER

@<TRIPOS>ATOM
      1 N           0.9632    0.6142   28.3373 N.ar    1  UNL1       -0.2495
      2 C           1.9199   -0.5390   28.4076 C.ar    1  UNL1        0.0963
      3 C           3.1539   -0.1649   27.6413 C.ar    1  UNL1        0.0351
      4 C           2.9600    1.2194   27.0974 C.ar    1  UNL1        0.1020
      5 N           1.6061    1.7010   27.5275 N.ar    1  UNL1       -0.1693
      6 C           4.3687   -1.0245   27.4521 C.2     1  UNL1        0.0003
      7 C           5.3046   -1.2633   28.5997 C.2     1  UNL1        0.0472
      8 C           6.5193   -2.1227   28.4106 C.2     1  UNL1        0.2354
      9 N           6.7980   -2.7434   27.0738 N.2     1  UNL1       -0.0341
     10 C           5.8621   -2.5046   25.9262 C.2     1  UNL1        0.3592
     11 N           5.8767   -2.9799   24.5035 N.2     1  UNL1       -0.0382
     12 C           4.6710   -2.4142   23.8134 C.2     1  UNL1        0.1897
     13 C           3.9113   -1.5892   24.8096 C.2     1  UNL1        0.0369
     14 C           4.6474   -1.6451   26.1153 C.3     1  UNL1        0.1600
     15 C           4.2916   -2.6347   22.3790 C.ar    1  UNL1        0.0424
     16 C           4.6673   -3.9141   21.6920 C.ar    1  UNL1        0.0037
     17 C           4.2880   -4.1346   20.2576 C.ar    1  UNL1       -0.0002
     18 C           3.5329   -3.0757   19.5103 C.ar    1  UNL1       -0.0029
     19 C           3.1572   -1.7963   20.1973 C.ar    1  UNL1       -0.0060
     20 C           3.5366   -1.5758   21.6316 C.ar    1  UNL1        0.0008
     21 C           2.4021   -0.7373   19.4499 C.3     1  UNL1        0.0992
     22 N           3.1269    0.4576   18.9052 N.3     1  UNL1       -0.2665
     23 C           2.3697    1.7117   18.5834 C.3     1  UNL1        0.0899
     24 C           4.6091    0.3983   18.6823 C.3     1  UNL1        0.0899
     25 C           3.9467    1.9874   26.2688 C.ar    1  UNL1        0.0195
     26 C           4.9973    2.8238   26.9373 C.ar    1  UNL1        0.0028
     27 C           5.9839    3.5918   26.1087 C.ar    1  UNL1        0.0148
     28 C           5.9201    3.5235   24.6116 C.ar    1  UNL1        0.0516
     29 C           4.8696    2.6872   23.9431 C.ar    1  UNL1        0.0148
     30 C           3.8829    1.9192   24.7717 C.ar    1  UNL1        0.0028
     31 N           6.9068    4.2915   23.7830 N.am    1  UNL1       -0.2681
     32 C           6.5219    5.6171   23.1958 C.2     1  UNL1        0.3078
     33 O           5.1505    6.1746   23.4371 O.2     1  UNL1       -0.2522
     34 N           7.5086    6.3852   22.3672 N.am    1  UNL1       -0.2605
     35 C           7.1238    7.7107   21.7799 C.3     1  UNL1        0.1165
     36 C           8.8801    5.8276   22.1258 C.3     1  UNL1        0.1165
     37 H           7.8069    3.9256   23.6246 H       1  UNL1        0.1564
     38 C          -1.3548   -0.4697   28.7863 C.3     1  UNL1        0.0284
     39 C          -0.3973    0.6708   28.9664 C.3     1  UNL1        0.1276
@<TRIPOS>BOND
     1    38    39    1
     2    39     1    1
     3     1     2   ar
     4     2     3   ar
     5     3     6    1
     6     6     7    2
     7     7     8    1
     8     8     9    2
     9     9    10    1
    10    10    11    2
    11    11    12    1
    12    12    15    1
    13    15    16   ar
    14    16    17   ar
    15    17    18   ar
    16    18    19   ar
    17    19    21    1
    18    21    22    1
    19    22    23    1
    20    22    24    1
    21    19    20   ar
    22    12    13    2
    23    13    14    1
    24     3     4   ar
    25     4    25    1
    26    25    26   ar
    27    26    27   ar
    28    27    28   ar
    29    28    31    1
    30    31    32   am
    31    32    33    2
    32    32    34   am
    33    34    35    1
    34    34    36    1
    35    28    29   ar
    36    29    30   ar
    37     4     5   ar
    38     5     1   ar
    39    14     6    1
    40    30    25   ar
    41    14    10    1
    42    20    15   ar
    43    31    37    1
@<TRIPOS>MOLECULE
*****
 39 43 0 0 0
SMALL
GASTEIGER

@<TRIPOS>ATOM
      1 N           5.5133   -1.8150   31.1925 N.ar    1  UNL1       -0.2495
      2 C           4.1587   -1.2113   31.4175 C.ar    1  UNL1        0.0963
      3 C           3.6625   -0.6833   30.1041 C.ar    1  UNL1        0.0351
      4 C           4.7104   -0.9607   29.0673 C.ar    1  UNL1        0.1020
      5 N           5.8542   -1.6601   29.7399 N.ar    1  UNL1       -0.1693
      6 C           2.3489    0.0018   29.8688 C.2     1  UNL1        0.0003
      7 C           1.5330   -0.3368   28.6566 C.2     1  UNL1        0.0472
      8 C           0.2195    0.3482   28.4213 C.2     1  UNL1        0.2354
      9 N          -0.2780    1.3720   29.3982 N.2     1  UNL1       -0.0341
     10 C           0.5379    1.7106   30.6105 C.2     1  UNL1        0.3592
     11 N           0.3068    2.6704   31.7399 N.2     1  UNL1       -0.0382
     12 C           1.4775    2.5785   32.6731 C.2     1  UNL1        0.1897
     13 C           2.4321    1.5619   32.1205 C.2     1  UNL1        0.0369
     14 C           1.8514    1.0255   30.8458 C.3     1  UNL1        0.1600
     15 C           1.6614    3.3651   33.9371 C.ar    1  UNL1        0.0424
     16 C           1.0335    4.7204   34.0751 C.ar    1  UNL1        0.0037
     17 C           1.2173    5.5069   35.3390 C.ar    1  UNL1       -0.0002
     18 C           2.0291    4.9383   36.4648 C.ar    1  UNL1       -0.0029
     19 C           2.6570    3.5830   36.3268 C.ar    1  UNL1       -0.0060
     20 C           2.4732    2.7965   35.0629 C.ar    1  UNL1        0.0008
     21 C           3.4688    3.0144   37.4528 C.3     1  UNL1        0.0992
     22 N           3.3434    1.5628   37.8093 N.3     1  UNL1       -0.2665
     23 C           2.1729    1.0877   38.6182 C.3     1  UNL1        0.0899
     24 C           4.3884    0.5864   37.3571 C.3     1  UNL1        0.0899
     25 C           4.6288   -0.6017   27.6132 C.ar    1  UNL1        0.0195
     26 C           4.8410    0.8181   27.1782 C.ar    1  UNL1        0.0028
     27 C           4.7594    1.1771   25.7241 C.ar    1  UNL1        0.0148
     28 C           4.4657    0.1164   24.7050 C.ar    1  UNL1        0.0516
     29 C           4.2535   -1.3034   25.1400 C.ar    1  UNL1        0.0148
     30 C           4.3351   -1.6624   26.5941 C.ar    1  UNL1        0.0028
     31 N           4.3841    0.4753   23.2508 N.am    1  UNL1       -0.2681
     32 C           3.0489    0.7206   22.6127 C.2     1  UNL1        0.3078
     33 O           1.7954    0.6069   23.4286 O.2     1  UNL1       -0.2522
     34 N           2.9673    1.0796   21.1586 N.am    1  UNL1       -0.2605
     35 C           1.6322    1.3249   20.5204 C.3     1  UNL1        0.1165
     36 C           4.2209    1.1933   20.3426 C.3     1  UNL1        0.1165
     37 H           5.2068    0.5500   22.7153 H       1  UNL1        0.1564
     38 C           6.7554   -3.9056   32.1071 C.3     1  UNL1        0.0284
     39 C           6.3755   -2.4603   32.2366 C.3     1  UNL1        0.1276
@<TRIPOS>BOND
     1    38    39    1
     2    39     1    1
     3     1     2   ar
     4     2     3   ar
     5     3     6    1
     6     6     7    2
     7     7     8    1
     8     8     9    2
     9     9    10    1
    10    10    11    2
    11    11    12    1
    12    12    15    1
    13    15    16   ar
    14    16    17   ar
    15    17    18   ar
    16    18    19   ar
    17    19    21    1
    18    21    22    1
    19    22    23    1
    20    22    24    1
    21    19    20   ar
    22    12    13    2
    23    13    14    1
    24     3     4   ar
    25     4    25    1
    26    25    26   ar
    27    26    27   ar
    28    27    28   ar
    29    28    31    1
    30    31    32   am
    31    32    33    2
    32    32    34   am
    33    34    35    1
    34    34    36    1
    35    28    29   ar
    36    29    30   ar
    37     4     5   ar
    38     5     1   ar
    39    14     6    1
    40    30    25   ar
    41    14    10    1
    42    20    15   ar
    43    31    37    1
@<TRIPOS>MOLECULE
*****
 39 43 0 0 0
SMALL
GASTEIGER

@<TRIPOS>ATOM
      1 N           6.7801   -4.4384   29.0035 N.ar    1  UNL1       -0.2495
      2 C           6.8439   -2.9449   29.1273 C.ar    1  UNL1        0.0963
      3 C           6.6739   -2.3585   27.7572 C.ar    1  UNL1        0.0351
      4 C           6.5050   -3.4895   26.7866 C.ar    1  UNL1        0.1020
      5 N           6.5706   -4.7750   27.5567 N.ar    1  UNL1       -0.1693
      6 C           6.6730   -0.8974   27.4174 C.2     1  UNL1        0.0003
      7 C           7.9565   -0.2109   27.0551 C.2     1  UNL1        0.0472
      8 C           7.9556    1.2501   26.7153 C.2     1  UNL1        0.2354
      9 N           6.6712    2.0245   26.7379 N.2     1  UNL1       -0.0341
     10 C           5.3877    1.3380   27.1002 C.2     1  UNL1        0.3592
     11 N           3.9774    1.8378   27.2065 N.2     1  UNL1       -0.0382
     12 C           3.1067    0.6857   27.6119 C.2     1  UNL1        0.1897
     13 C           3.9788   -0.5261   27.7562 C.2     1  UNL1        0.0369
     14 C           5.3886   -0.1230   27.4399 C.3     1  UNL1        0.1600
     15 C           1.6240    0.7364   27.8341 C.ar    1  UNL1        0.0424
     16 C           0.9727   -0.2352   28.7732 C.ar    1  UNL1        0.0037
     17 C          -0.5098   -0.1845   28.9954 C.ar    1  UNL1       -0.0002
     18 C          -1.3411    0.8378   28.2785 C.ar    1  UNL1       -0.0029
     19 C          -0.6898    1.8094   27.3395 C.ar    1  UNL1       -0.0060
     20 C           0.7928    1.7587   27.1173 C.ar    1  UNL1        0.0008
     21 C          -1.5211    2.8317   26.6226 C.3     1  UNL1        0.0992
     22 N          -0.9002    3.6957   25.5654 N.3     1  UNL1       -0.2665
     23 C          -0.8664    3.2294   24.1401 C.3     1  UNL1        0.0899
     24 C          -0.3130    5.0261   25.9333 C.3     1  UNL1        0.0899
     25 C           6.3055   -3.3582   25.3057 C.ar    1  UNL1        0.0195
     26 C           7.2683   -4.0108   24.3585 C.ar    1  UNL1        0.0028
     27 C           7.0688   -3.8795   22.8776 C.ar    1  UNL1        0.0148
     28 C           5.9065   -3.0956   22.3439 C.ar    1  UNL1        0.0516
     29 C           4.9438   -2.4431   23.2912 C.ar    1  UNL1        0.0148
     30 C           5.1433   -2.5744   24.7720 C.ar    1  UNL1        0.0028
     31 N           5.7070   -2.9643   20.8631 N.am    1  UNL1       -0.2681
     32 C           6.3092   -1.8055   20.1250 C.2     1  UNL1        0.3078
     33 O           7.1109   -0.7782   20.8678 O.2     1  UNL1       -0.2522
     34 N           6.1097   -1.6742   18.6442 N.am    1  UNL1       -0.2605
     35 C           6.7119   -0.5155   17.9061 C.3     1  UNL1        0.1165
     36 C           5.3080   -2.7016   17.9014 C.3     1  UNL1        0.1165
     37 H           5.1808   -3.6386   20.3755 H       1  UNL1        0.1564
     38 C           6.8914   -4.9425   31.5497 C.3     1  UNL1        0.0284
     39 C           6.9040   -5.4226   30.1287 C.3     1  UNL1        0.1276
@<TRIPOS>BOND
     1    38    39    1
     2    39     1    1
     3     1     2   ar
     4     2     3   ar
     5     3     6    1
     6     6     7    2
     7     7     8    1
     8     8     9    2
     9     9    10    1
    10    10    11    2
    11    11    12    1
    12    12    15    1
    13    15    16   ar
    14    16    17   ar
    15    17    18   ar
    16    18    19   ar
    17    19    21    1
    18    21    22    1
    19    22    23    1
    20    22    24    1
    21    19    20   ar
    22    12    13    2
    23    13    14    1
    24     3     4   ar
    25     4    25    1
    26    25    26   ar
    27    26    27   ar
    28    27    28   ar
    29    28    31    1
    30    31    32   am
    31    32    33    2
    32    32    34   am
    33    34    35    1
    34    34    36    1
    35    28    29   ar
    36    29    30   ar
    37     4     5   ar
    38     5     1   ar
    39    14     6    1
    40    30    25   ar
    41    14    10    1
    42    20    15   ar
    43    31    37    1
