@<TRIPOS>MOLECULE
*****
 31 33 0 0 0
SMALL
GASTEIGER

@<TRIPOS>ATOM
      1 N         -12.1533  -18.3396   21.2132 N.3     1  UNL1       -0.2972
      2 H         -12.6351  -19.1483   21.6060 H       1  UNL1        0.1233
      3 C         -11.0810  -20.1699   21.2309 C.3     1  UNL1        0.0161
      4 C         -10.9322  -18.8603   20.5148 C.3     1  UNL1        0.0461
      5 C         -10.7833  -17.5507   19.7988 C.3     1  UNL1        0.0161
      6 C          -9.7110  -19.3810   19.8165 C.3     1  UNL1        0.0408
      7 C          -8.3757  -19.3232   20.4974 C.ar    1  UNL1       -0.0209
      8 C          -8.2689  -18.7881   21.8946 C.ar    1  UNL1       -0.0042
      9 C          -6.9336  -18.7302   22.5756 C.ar    1  UNL1       -0.0003
     10 C          -5.7051  -19.2075   21.8593 C.ar    1  UNL1       -0.0000
     11 C          -4.3698  -19.1497   22.5402 C.ar    1  UNL1       -0.0000
     12 C          -3.1414  -19.6269   21.8239 C.ar    1  UNL1       -0.0000
     13 C          -3.2482  -20.1621   20.4267 C.ar    1  UNL1       -0.0000
     14 C          -4.5835  -20.2199   19.7458 C.ar    1  UNL1       -0.0000
     15 C          -5.8119  -19.7426   20.4621 C.ar    1  UNL1       -0.0003
     16 C          -7.1473  -19.8004   19.7811 C.ar    1  UNL1       -0.0042
     17 C         -12.0139  -17.3382   22.3213 C.3     1  UNL1        0.1020
     18 C         -11.6920  -17.7987   23.7121 C.3     1  UNL1        0.1697
     19 O         -12.7382  -18.4920   24.5336 O.3     1  UNL1       -0.3793
     20 H         -13.5586  -18.5614   24.0207 H       1  UNL1        0.2106
     21 C         -10.3240  -17.5658   24.2815 C.3     1  UNL1        0.2358
     22 O          -9.8741  -16.1722   24.6064 O.3     1  UNL1       -0.4721
     23 C          -8.4965  -15.9367   25.1514 C.ar    1  UNL1        0.1490
     24 C          -8.2274  -16.1216   26.6154 C.ar    1  UNL1        0.0377
     25 C          -6.8499  -15.8861   27.1603 C.ar    1  UNL1        0.0040
     26 C          -5.7415  -15.4657   26.2412 C.ar    1  UNL1        0.0123
     27 C          -6.0106  -15.2808   24.7772 C.ar    1  UNL1        0.0702
     28 CL         -4.9022  -14.8604   23.8582 Cl      1  UNL1       -0.0814
     29 C          -7.3881  -15.5163   24.2323 C.ar    1  UNL1        0.1128
     30 C          -7.6573  -15.3314   22.7683 C.1     1  UNL1        0.1043
     31 N          -7.9264  -15.1465   21.3043 N.1     1  UNL1       -0.1907
@<TRIPOS>BOND
     1     3     4    1
     2     4     5    1
     3     4     6    1
     4     6     7    1
     5     7     8   ar
     6     8     9   ar
     7     9    10   ar
     8    10    11   ar
     9    11    12   ar
    10    12    13   ar
    11    13    14   ar
    12    14    15   ar
    13    15    16   ar
    14     4     1    1
    15     1    17    1
    16    17    18    1
    17    18    19    1
    18    18    21    1
    19    21    22    1
    20    22    23    1
    21    23    24   ar
    22    24    25   ar
    23    25    26   ar
    24    26    27   ar
    25    27    28    1
    26    27    29   ar
    27    29    30    1
    28    30    31    3
    29    16     7   ar
    30    29    23   ar
    31    15    10   ar
    32     1     2    1
    33    19    20    1
@<TRIPOS>MOLECULE
*****
 31 33 0 0 0
SMALL
GASTEIGER

@<TRIPOS>ATOM
      1 N          -9.2643  -19.0340   21.4828 N.3     1  UNL1       -0.2972
      2 H          -9.7420  -19.0201   20.5817 H       1  UNL1        0.1233
      3 C          -7.9758  -19.2845   19.8164 C.3     1  UNL1        0.0161
      4 C          -7.9362  -19.6943   21.2588 C.3     1  UNL1        0.0461
      5 C          -7.8966  -20.1041   22.7011 C.3     1  UNL1        0.0161
      6 C          -6.6082  -20.3546   21.0347 C.3     1  UNL1        0.0408
      7 C          -5.3442  -19.5549   21.1490 C.ar    1  UNL1       -0.0209
      8 C          -4.9859  -18.9005   22.4503 C.ar    1  UNL1       -0.0042
      9 C          -3.7220  -18.1008   22.5646 C.ar    1  UNL1       -0.0003
     10 C          -2.8163  -17.9556   21.3776 C.ar    1  UNL1       -0.0000
     11 C          -1.5524  -17.1560   21.4920 C.ar    1  UNL1       -0.0000
     12 C          -0.6469  -17.0109   20.3051 C.ar    1  UNL1       -0.0000
     13 C          -1.0052  -17.6653   19.0038 C.ar    1  UNL1       -0.0000
     14 C          -2.2691  -18.4649   18.8895 C.ar    1  UNL1       -0.0000
     15 C          -3.1746  -18.6101   20.0764 C.ar    1  UNL1       -0.0003
     16 C          -4.4386  -19.4098   19.9621 C.ar    1  UNL1       -0.0042
     17 C         -10.2299  -19.6094   22.4761 C.3     1  UNL1        0.1020
     18 C         -10.9015  -18.7139   23.4746 C.3     1  UNL1        0.1697
     19 O         -12.3135  -18.2619   23.2462 O.3     1  UNL1       -0.3793
     20 H         -12.6420  -18.6358   22.4136 H       1  UNL1        0.2106
     21 C         -10.1612  -18.2704   24.7015 C.3     1  UNL1        0.2358
     22 O          -9.8970  -16.8120   24.9317 O.3     1  UNL1       -0.4721
     23 C          -8.5501  -16.3608   25.4142 C.ar    1  UNL1        0.1490
     24 C          -8.2631  -16.2968   26.8850 C.ar    1  UNL1        0.0377
     25 C          -6.9164  -15.8457   27.3674 C.ar    1  UNL1        0.0040
     26 C          -5.8566  -15.4586   26.3789 C.ar    1  UNL1        0.0123
     27 C          -6.1437  -15.5227   24.9080 C.ar    1  UNL1        0.0702
     28 CL         -5.0839  -15.1356   23.9195 Cl      1  UNL1       -0.0814
     29 C          -7.4904  -15.9738   24.4257 C.ar    1  UNL1        0.1128
     30 C          -7.7775  -16.0378   22.9547 C.1     1  UNL1        0.1043
     31 N          -8.0645  -16.1019   21.4839 N.1     1  UNL1       -0.1907
@<TRIPOS>BOND
     1     3     4    1
     2     4     5    1
     3     4     6    1
     4     6     7    1
     5     7     8   ar
     6     8     9   ar
     7     9    10   ar
     8    10    11   ar
     9    11    12   ar
    10    12    13   ar
    11    13    14   ar
    12    14    15   ar
    13    15    16   ar
    14     4     1    1
    15     1    17    1
    16    17    18    1
    17    18    19    1
    18    18    21    1
    19    21    22    1
    20    22    23    1
    21    23    24   ar
    22    24    25   ar
    23    25    26   ar
    24    26    27   ar
    25    27    28    1
    26    27    29   ar
    27    29    30    1
    28    30    31    3
    29    16     7   ar
    30    29    23   ar
    31    15    10   ar
    32     1     2    1
    33    19    20    1
@<TRIPOS>MOLECULE
*****
 31 33 0 0 0
SMALL
GASTEIGER

@<TRIPOS>ATOM
      1 N          -9.8111  -15.6747   22.5358 N.3     1  UNL1       -0.2972
      2 H         -10.2263  -14.8147   22.8941 H       1  UNL1        0.1233
      3 C          -7.7714  -15.2180   22.1734 C.3     1  UNL1        0.0161
      4 C          -8.5285  -15.8814   23.2856 C.3     1  UNL1        0.0461
      5 C          -9.2855  -16.5448   24.3977 C.3     1  UNL1        0.0161
      6 C          -7.2459  -16.0881   24.0353 C.3     1  UNL1        0.0408
      7 C          -6.1402  -16.8951   23.4218 C.ar    1  UNL1       -0.0209
      8 C          -4.7143  -16.6225   23.7994 C.ar    1  UNL1       -0.0042
      9 C          -3.6086  -17.4294   23.1860 C.ar    1  UNL1       -0.0003
     10 C          -3.9288  -18.5089   22.1948 C.ar    1  UNL1       -0.0000
     11 C          -2.8231  -19.3158   21.5814 C.ar    1  UNL1       -0.0000
     12 C          -3.1433  -20.3952   20.5903 C.ar    1  UNL1       -0.0000
     13 C          -4.5692  -20.6678   20.2127 C.ar    1  UNL1       -0.0000
     14 C          -5.6749  -19.8609   20.8262 C.ar    1  UNL1       -0.0000
     15 C          -5.3547  -18.7815   21.8172 C.ar    1  UNL1       -0.0003
     16 C          -6.4604  -17.9745   22.4308 C.ar    1  UNL1       -0.0042
     17 C          -9.7952  -15.5575   21.0404 C.3     1  UNL1        0.1020
     18 C         -11.0739  -15.6756   20.2652 C.3     1  UNL1        0.1697
     19 O         -11.1428  -15.1777   18.8519 O.3     1  UNL1       -0.3793
     20 H         -10.2818  -14.8120   18.5955 H       1  UNL1        0.2106
     21 C         -12.2836  -16.2915   20.9033 C.3     1  UNL1        0.2358
     22 O         -12.3777  -17.7814   21.0499 O.3     1  UNL1       -0.4721
     23 C         -11.7762  -18.4567   22.2467 C.ar    1  UNL1        0.1490
     24 C         -12.4925  -18.4258   23.5642 C.ar    1  UNL1        0.0377
     25 C         -11.8910  -19.1010   24.7609 C.ar    1  UNL1        0.0040
     26 C         -10.5731  -19.8072   24.6402 C.ar    1  UNL1        0.0123
     27 C          -9.8568  -19.8381   23.3227 C.ar    1  UNL1        0.0702
     28 CL         -8.5389  -20.5442   23.2019 Cl      1  UNL1       -0.0814
     29 C         -10.4583  -19.1628   22.1260 C.ar    1  UNL1        0.1128
     30 C          -9.7419  -19.1937   20.8084 C.1     1  UNL1        0.1043
     31 N          -9.0256  -19.2245   19.4909 N.1     1  UNL1       -0.1907
@<TRIPOS>BOND
     1     3     4    1
     2     4     5    1
     3     4     6    1
     4     6     7    1
     5     7     8   ar
     6     8     9   ar
     7     9    10   ar
     8    10    11   ar
     9    11    12   ar
    10    12    13   ar
    11    13    14   ar
    12    14    15   ar
    13    15    16   ar
    14     4     1    1
    15     1    17    1
    16    17    18    1
    17    18    19    1
    18    18    21    1
    19    21    22    1
    20    22    23    1
    21    23    24   ar
    22    24    25   ar
    23    25    26   ar
    24    26    27   ar
    25    27    28    1
    26    27    29   ar
    27    29    30    1
    28    30    31    3
    29    16     7   ar
    30    29    23   ar
    31    15    10   ar
    32     1     2    1
    33    19    20    1
@<TRIPOS>MOLECULE
*****
 31 33 0 0 0
SMALL
GASTEIGER

@<TRIPOS>ATOM
      1 N          -9.4378  -19.0134   21.6690 N.3     1  UNL1       -0.2972
      2 H          -9.3948  -18.6155   22.6073 H       1  UNL1        0.1233
      3 C          -8.0596  -20.1044   22.8566 C.3     1  UNL1        0.0161
      4 C          -8.1164  -19.6780   21.4196 C.3     1  UNL1        0.0461
      5 C          -8.1733  -19.2517   19.9825 C.3     1  UNL1        0.0161
      6 C          -6.7951  -20.3427   21.1701 C.3     1  UNL1        0.0408
      7 C          -5.5268  -19.5463   21.2561 C.ar    1  UNL1       -0.0209
      8 C          -5.1769  -18.8280   22.5257 C.ar    1  UNL1       -0.0042
      9 C          -3.9088  -18.0316   22.6118 C.ar    1  UNL1       -0.0003
     10 C          -2.9904  -17.9534   21.4283 C.ar    1  UNL1       -0.0000
     11 C          -1.7222  -17.1570   21.5144 C.ar    1  UNL1       -0.0000
     12 C          -0.8040  -17.0788   20.3309 C.ar    1  UNL1       -0.0000
     13 C          -1.1538  -17.7970   19.0614 C.ar    1  UNL1       -0.0000
     14 C          -2.4220  -18.5934   18.9753 C.ar    1  UNL1       -0.0000
     15 C          -3.3403  -18.6716   20.1587 C.ar    1  UNL1       -0.0003
     16 C          -4.6085  -19.4681   20.0727 C.ar    1  UNL1       -0.0042
     17 C          -9.9120  -17.9211   20.7568 C.3     1  UNL1        0.1020
     18 C         -10.1170  -16.5344   21.2905 C.3     1  UNL1        0.1697
     19 O         -11.4944  -15.9416   21.3290 O.3     1  UNL1       -0.3793
     20 H         -12.1318  -16.5814   20.9750 H       1  UNL1        0.2106
     21 C          -8.9447  -15.7404   21.7858 C.3     1  UNL1        0.2358
     22 O          -7.7587  -16.4434   22.3769 O.3     1  UNL1       -0.4721
     23 C          -7.2905  -16.0925   23.7581 C.ar    1  UNL1        0.1490
     24 C          -6.0026  -15.3472   23.9467 C.ar    1  UNL1        0.0377
     25 C          -5.5344  -14.9963   25.3279 C.ar    1  UNL1        0.0040
     26 C          -6.3543  -15.3908   26.5205 C.ar    1  UNL1        0.0123
     27 C          -7.6422  -16.1361   26.3319 C.ar    1  UNL1        0.0702
     28 CL         -8.4621  -16.5306   27.5245 Cl      1  UNL1       -0.0814
     29 C          -8.1104  -16.4870   24.9507 C.ar    1  UNL1        0.1128
     30 C          -9.3984  -17.2323   24.7620 C.1     1  UNL1        0.1043
     31 N         -10.6864  -17.9776   24.5734 N.1     1  UNL1       -0.1907
@<TRIPOS>BOND
     1     3     4    1
     2     4     5    1
     3     4     6    1
     4     6     7    1
     5     7     8   ar
     6     8     9   ar
     7     9    10   ar
     8    10    11   ar
     9    11    12   ar
    10    12    13   ar
    11    13    14   ar
    12    14    15   ar
    13    15    16   ar
    14     4     1    1
    15     1    17    1
    16    17    18    1
    17    18    19    1
    18    18    21    1
    19    21    22    1
    20    22    23    1
    21    23    24   ar
    22    24    25   ar
    23    25    26   ar
    24    26    27   ar
    25    27    28    1
    26    27    29   ar
    27    29    30    1
    28    30    31    3
    29    16     7   ar
    30    29    23   ar
    31    15    10   ar
    32     1     2    1
    33    19    20    1
@<TRIPOS>MOLECULE
*****
 31 33 0 0 0
SMALL
GASTEIGER

@<TRIPOS>ATOM
      1 N          -6.2178  -14.7366   25.7167 N.3     1  UNL1       -0.2972
      2 H          -5.9562  -14.3461   26.6219 H       1  UNL1        0.1233
      3 C          -7.1553  -15.8973   27.2246 C.3     1  UNL1        0.0161
      4 C          -7.5721  -15.3583   25.8883 C.3     1  UNL1        0.0461
      5 C          -7.9888  -14.8193   24.5519 C.3     1  UNL1        0.0161
      6 C          -8.9264  -15.9800   26.0599 C.3     1  UNL1        0.0408
      7 C          -9.4045  -17.0167   25.0868 C.ar    1  UNL1       -0.0209
      8 C          -9.6157  -18.4306   25.5408 C.ar    1  UNL1       -0.0042
      9 C         -10.0938  -19.4673   24.5679 C.ar    1  UNL1       -0.0003
     10 C         -10.3607  -19.0900   23.1408 C.ar    1  UNL1       -0.0000
     11 C         -10.8388  -20.1266   22.1678 C.ar    1  UNL1       -0.0000
     12 C         -11.1056  -19.7493   20.7408 C.ar    1  UNL1       -0.0000
     13 C         -10.8944  -18.3354   20.2868 C.ar    1  UNL1       -0.0000
     14 C         -10.4163  -17.2987   21.2597 C.ar    1  UNL1       -0.0000
     15 C         -10.1494  -17.6760   22.6867 C.ar    1  UNL1       -0.0003
     16 C          -9.6713  -16.6394   23.6598 C.ar    1  UNL1       -0.0042
     17 C          -5.0614  -15.5735   25.2557 C.3     1  UNL1        0.1020
     18 C          -4.6872  -15.6007   23.8033 C.3     1  UNL1        0.1697
     19 O          -5.0396  -14.4435   22.9162 O.3     1  UNL1       -0.3793
     20 H          -5.5030  -13.7677   23.4352 H       1  UNL1        0.2106
     21 C          -3.9607  -16.7850   23.2381 C.3     1  UNL1        0.2358
     22 O          -4.4774  -18.1709   23.4873 O.3     1  UNL1       -0.4721
     23 C          -5.1778  -18.9185   22.3915 C.ar    1  UNL1        0.1490
     24 C          -6.6749  -18.8901   22.3023 C.ar    1  UNL1        0.0377
     25 C          -7.3752  -19.6376   21.2066 C.ar    1  UNL1        0.0040
     26 C          -6.5785  -20.4137   20.2001 C.ar    1  UNL1        0.0123
     27 C          -5.0814  -20.4422   20.2894 C.ar    1  UNL1        0.0702
     28 CL         -4.2847  -21.2182   19.2829 Cl      1  UNL1       -0.0814
     29 C          -4.3811  -19.6946   21.3851 C.ar    1  UNL1        0.1128
     30 C          -2.8840  -19.7230   21.4744 C.1     1  UNL1        0.1043
     31 N          -1.3869  -19.7515   21.5637 N.1     1  UNL1       -0.1907
@<TRIPOS>BOND
     1     3     4    1
     2     4     5    1
     3     4     6    1
     4     6     7    1
     5     7     8   ar
     6     8     9   ar
     7     9    10   ar
     8    10    11   ar
     9    11    12   ar
    10    12    13   ar
    11    13    14   ar
    12    14    15   ar
    13    15    16   ar
    14     4     1    1
    15     1    17    1
    16    17    18    1
    17    18    19    1
    18    18    21    1
    19    21    22    1
    20    22    23    1
    21    23    24   ar
    22    24    25   ar
    23    25    26   ar
    24    26    27   ar
    25    27    28    1
    26    27    29   ar
    27    29    30    1
    28    30    31    3
    29    16     7   ar
    30    29    23   ar
    31    15    10   ar
    32     1     2    1
    33    19    20    1
@<TRIPOS>MOLECULE
*****
 31 33 0 0 0
SMALL
GASTEIGER

@<TRIPOS>ATOM
      1 N          -9.7829  -18.9431   19.2397 N.3     1  UNL1       -0.2972
      2 H          -9.5749  -18.0452   18.8028 H       1  UNL1        0.1233
      3 C         -10.4811  -20.0768   20.8911 C.3     1  UNL1        0.0161
      4 C         -10.6306  -18.6532   20.4428 C.3     1  UNL1        0.0461
      5 C         -10.7800  -17.2296   19.9945 C.3     1  UNL1        0.0161
      6 C         -11.4783  -18.3633   21.6459 C.3     1  UNL1        0.0408
      7 C         -10.8329  -18.1346   22.9806 C.ar    1  UNL1       -0.0209
      8 C         -11.0226  -19.1307   24.0859 C.ar    1  UNL1       -0.0042
      9 C         -10.3773  -18.9020   25.4205 C.ar    1  UNL1       -0.0003
     10 C          -9.5423  -17.6771   25.6499 C.ar    1  UNL1       -0.0000
     11 C          -8.8971  -17.4483   26.9845 C.ar    1  UNL1       -0.0000
     12 C          -8.0622  -16.2235   27.2138 C.ar    1  UNL1       -0.0000
     13 C          -7.8725  -15.2274   26.1085 C.ar    1  UNL1       -0.0000
     14 C          -8.5178  -15.4561   24.7738 C.ar    1  UNL1       -0.0000
     15 C          -9.3527  -16.6809   24.5445 C.ar    1  UNL1       -0.0003
     16 C          -9.9980  -16.9097   23.2099 C.ar    1  UNL1       -0.0042
     17 C          -8.4751  -19.6604   19.3989 C.3     1  UNL1        0.1020
     18 C          -7.5033  -19.2227   20.4544 C.3     1  UNL1        0.1697
     19 O          -7.4071  -17.7739   20.8309 O.3     1  UNL1       -0.3793
     20 H          -8.0367  -17.2598   20.3016 H       1  UNL1        0.2106
     21 C          -6.6276  -20.2338   21.1333 C.3     1  UNL1        0.2358
     22 O          -5.4406  -19.7824   21.9316 O.3     1  UNL1       -0.4721
     23 C          -4.2659  -19.1563   21.2401 C.ar    1  UNL1        0.1490
     24 C          -3.7574  -19.7350   19.9531 C.ar    1  UNL1        0.0377
     25 C          -2.5827  -19.1089   19.2617 C.ar    1  UNL1        0.0040
     26 C          -1.9165  -17.9041   19.8573 C.ar    1  UNL1        0.0123
     27 C          -2.4251  -17.3254   21.1443 C.ar    1  UNL1        0.0702
     28 CL         -1.7589  -16.1207   21.7399 Cl      1  UNL1       -0.0814
     29 C          -3.5998  -17.9515   21.8357 C.ar    1  UNL1        0.1128
     30 C          -4.1084  -17.3728   23.1228 C.1     1  UNL1        0.1043
     31 N          -4.6170  -16.7941   24.4098 N.1     1  UNL1       -0.1907
@<TRIPOS>BOND
     1     3     4    1
     2     4     5    1
     3     4     6    1
     4     6     7    1
     5     7     8   ar
     6     8     9   ar
     7     9    10   ar
     8    10    11   ar
     9    11    12   ar
    10    12    13   ar
    11    13    14   ar
    12    14    15   ar
    13    15    16   ar
    14     4     1    1
    15     1    17    1
    16    17    18    1
    17    18    19    1
    18    18    21    1
    19    21    22    1
    20    22    23    1
    21    23    24   ar
    22    24    25   ar
    23    25    26   ar
    24    26    27   ar
    25    27    28    1
    26    27    29   ar
    27    29    30    1
    28    30    31    3
    29    16     7   ar
    30    29    23   ar
    31    15    10   ar
    32     1     2    1
    33    19    20    1
@<TRIPOS>MOLECULE
*****
 31 33 0 0 0
SMALL
GASTEIGER

@<TRIPOS>ATOM
      1 N          -6.5287  -14.5205   24.6139 N.3     1  UNL1       -0.2972
      2 H          -6.2285  -13.7663   23.9963 H       1  UNL1        0.1233
      3 C          -4.8682  -15.0043   23.3856 C.3     1  UNL1        0.0161
      4 C          -5.3822  -15.4829   24.7110 C.3     1  UNL1        0.0461
      5 C          -5.8961  -15.9614   26.0365 C.3     1  UNL1        0.0161
      6 C          -4.2357  -16.4452   24.8081 C.3     1  UNL1        0.0408
      7 C          -3.9564  -17.3952   23.6813 C.ar    1  UNL1       -0.0209
      8 C          -2.5668  -17.5166   23.1297 C.ar    1  UNL1       -0.0042
      9 C          -2.2876  -18.4666   22.0029 C.ar    1  UNL1       -0.0003
     10 C          -3.3979  -19.2952   21.4278 C.ar    1  UNL1       -0.0000
     11 C          -3.1186  -20.2451   20.3011 C.ar    1  UNL1       -0.0000
     12 C          -4.2289  -21.0737   19.7261 C.ar    1  UNL1       -0.0000
     13 C          -5.6185  -20.9523   20.2778 C.ar    1  UNL1       -0.0000
     14 C          -5.8977  -20.0023   21.4045 C.ar    1  UNL1       -0.0000
     15 C          -4.7875  -19.1738   21.9795 C.ar    1  UNL1       -0.0003
     16 C          -5.0667  -18.2238   23.1063 C.ar    1  UNL1       -0.0042
     17 C          -7.8609  -14.9896   24.1087 C.3     1  UNL1        0.1020
     18 C          -7.9543  -15.7079   22.7952 C.3     1  UNL1        0.1697
     19 O          -8.0956  -14.9275   21.5220 O.3     1  UNL1       -0.3793
     20 H          -8.1100  -13.9789   21.7241 H       1  UNL1        0.2106
     21 C          -7.9064  -17.2066   22.7549 C.3     1  UNL1        0.2358
     22 O          -8.8814  -17.9655   21.9043 O.3     1  UNL1       -0.4721
     23 C         -10.3434  -17.6351   21.9627 C.ar    1  UNL1        0.1490
     24 C         -10.9702  -16.8117   20.8768 C.ar    1  UNL1        0.0377
     25 C         -12.4322  -16.4813   20.9352 C.ar    1  UNL1        0.0040
     26 C         -13.2674  -16.9743   22.0795 C.ar    1  UNL1        0.0123
     27 C         -12.6406  -17.7977   23.1654 C.ar    1  UNL1        0.0702
     28 CL        -13.4758  -18.2907   24.3097 Cl      1  UNL1       -0.0814
     29 C         -11.1786  -18.1281   23.1070 C.ar    1  UNL1        0.1128
     30 C         -10.5518  -18.9515   24.1929 C.1     1  UNL1        0.1043
     31 N          -9.9249  -19.7749   25.2787 N.1     1  UNL1       -0.1907
@<TRIPOS>BOND
     1     3     4    1
     2     4     5    1
     3     4     6    1
     4     6     7    1
     5     7     8   ar
     6     8     9   ar
     7     9    10   ar
     8    10    11   ar
     9    11    12   ar
    10    12    13   ar
    11    13    14   ar
    12    14    15   ar
    13    15    16   ar
    14     4     1    1
    15     1    17    1
    16    17    18    1
    17    18    19    1
    18    18    21    1
    19    21    22    1
    20    22    23    1
    21    23    24   ar
    22    24    25   ar
    23    25    26   ar
    24    26    27   ar
    25    27    28    1
    26    27    29   ar
    27    29    30    1
    28    30    31    3
    29    16     7   ar
    30    29    23   ar
    31    15    10   ar
    32     1     2    1
    33    19    20    1
@<TRIPOS>MOLECULE
*****
 31 33 0 0 0
SMALL
GASTEIGER

@<TRIPOS>ATOM
      1 N          -6.3387  -14.4891   24.8093 N.3     1  UNL1       -0.2972
      2 H          -6.0578  -13.6822   24.2522 H       1  UNL1        0.1233
      3 C          -4.9878  -15.1501   23.3131 C.3     1  UNL1        0.0161
      4 C          -5.1994  -15.4638   24.7646 C.3     1  UNL1        0.0461
      5 C          -5.4109  -15.7776   26.2161 C.3     1  UNL1        0.0161
      6 C          -4.0601  -16.4385   24.7199 C.3     1  UNL1        0.0408
      7 C          -3.9583  -17.4221   23.5919 C.ar    1  UNL1       -0.0209
      8 C          -2.6314  -17.6852   22.9437 C.ar    1  UNL1       -0.0042
      9 C          -2.5296  -18.6687   21.8158 C.ar    1  UNL1       -0.0003
     10 C          -3.7547  -19.3891   21.3359 C.ar    1  UNL1       -0.0000
     11 C          -3.6529  -20.3726   20.2080 C.ar    1  UNL1       -0.0000
     12 C          -4.8780  -21.0930   19.7282 C.ar    1  UNL1       -0.0000
     13 C          -6.2048  -20.8298   20.3764 C.ar    1  UNL1       -0.0000
     14 C          -6.3067  -19.8463   21.5043 C.ar    1  UNL1       -0.0000
     15 C          -5.0816  -19.1260   21.9841 C.ar    1  UNL1       -0.0003
     16 C          -5.1834  -18.1424   23.1121 C.ar    1  UNL1       -0.0042
     17 C          -7.6967  -14.9000   24.3224 C.3     1  UNL1        0.1020
     18 C          -8.5857  -15.7349   25.1958 C.3     1  UNL1        0.1697
     19 O          -8.8522  -15.3173   26.6117 O.3     1  UNL1       -0.3793
     20 H          -8.3777  -14.4927   26.8004 H       1  UNL1        0.2106
     21 C          -9.2080  -16.9872   24.6533 C.3     1  UNL1        0.2358
     22 O         -10.5928  -16.9482   24.0781 O.3     1  UNL1       -0.4721
     23 C         -10.7997  -17.1534   22.6066 C.ar    1  UNL1        0.1490
     24 C         -11.4152  -16.0659   21.7769 C.ar    1  UNL1        0.0377
     25 C         -11.6221  -16.2712   20.3056 C.ar    1  UNL1        0.0040
     26 C         -11.2135  -17.5640   19.6639 C.ar    1  UNL1        0.0123
     27 C         -10.5980  -18.6515   20.4936 C.ar    1  UNL1        0.0702
     28 CL        -10.1895  -19.9443   19.8519 Cl      1  UNL1       -0.0814
     29 C         -10.3911  -18.4462   21.9649 C.ar    1  UNL1        0.1128
     30 C          -9.7756  -19.5338   22.7947 C.1     1  UNL1        0.1043
     31 N          -9.1601  -20.6212   23.6245 N.1     1  UNL1       -0.1907
@<TRIPOS>BOND
     1     3     4    1
     2     4     5    1
     3     4     6    1
     4     6     7    1
     5     7     8   ar
     6     8     9   ar
     7     9    10   ar
     8    10    11   ar
     9    11    12   ar
    10    12    13   ar
    11    13    14   ar
    12    14    15   ar
    13    15    16   ar
    14     4     1    1
    15     1    17    1
    16    17    18    1
    17    18    19    1
    18    18    21    1
    19    21    22    1
    20    22    23    1
    21    23    24   ar
    22    24    25   ar
    23    25    26   ar
    24    26    27   ar
    25    27    28    1
    26    27    29   ar
    27    29    30    1
    28    30    31    3
    29    16     7   ar
    30    29    23   ar
    31    15    10   ar
    32     1     2    1
    33    19    20    1
@<TRIPOS>MOLECULE
*****
 31 33 0 0 0
SMALL
GASTEIGER

@<TRIPOS>ATOM
      1 N         -11.7449  -19.1187   21.5088 N.3     1  UNL1       -0.2972
      2 H         -11.8656  -19.2395   20.5032 H       1  UNL1        0.1233
      3 C         -10.2965  -17.8360   20.6387 C.3     1  UNL1        0.0161
      4 C         -11.3203  -17.6965   21.7261 C.3     1  UNL1        0.0461
      5 C         -12.3441  -17.5571   22.8135 C.3     1  UNL1        0.0161
      6 C         -10.8957  -16.2744   21.9435 C.3     1  UNL1        0.0408
      7 C          -9.6700  -15.9732   22.7541 C.ar    1  UNL1       -0.0209
      8 C          -8.4587  -15.3860   22.0923 C.ar    1  UNL1       -0.0042
      9 C          -7.2331  -15.0848   22.9028 C.ar    1  UNL1       -0.0003
     10 C          -7.2187  -15.3707   24.3753 C.ar    1  UNL1       -0.0000
     11 C          -5.9931  -15.0695   25.1859 C.ar    1  UNL1       -0.0000
     12 C          -5.9788  -15.3554   26.6583 C.ar    1  UNL1       -0.0000
     13 C          -7.1901  -15.9425   27.3201 C.ar    1  UNL1       -0.0000
     14 C          -8.4157  -16.2438   26.5096 C.ar    1  UNL1       -0.0000
     15 C          -8.4300  -15.9579   25.0372 C.ar    1  UNL1       -0.0003
     16 C          -9.6557  -16.2591   24.2265 C.ar    1  UNL1       -0.0042
     17 C         -10.8695  -20.2428   21.9780 C.3     1  UNL1        0.1020
     18 C          -9.9728  -20.0499   23.1649 C.3     1  UNL1        0.1697
     19 O         -10.5652  -19.8731   24.5316 O.3     1  UNL1       -0.3793
     20 H         -11.5327  -19.9086   24.4717 H       1  UNL1        0.2106
     21 C          -8.4837  -20.0337   22.9851 C.3     1  UNL1        0.2358
     22 O          -7.7822  -18.7501   22.6529 O.3     1  UNL1       -0.4721
     23 C          -6.3272  -18.7631   22.2886 C.ar    1  UNL1        0.1490
     24 C          -5.3134  -18.1816   23.2288 C.ar    1  UNL1        0.0377
     25 C          -3.8584  -18.1946   22.8644 C.ar    1  UNL1        0.0040
     26 C          -3.4172  -18.7892   21.5599 C.ar    1  UNL1        0.0123
     27 C          -4.4310  -19.3708   20.6197 C.ar    1  UNL1        0.0702
     28 CL         -3.9898  -19.9654   19.3152 Cl      1  UNL1       -0.0814
     29 C          -5.8860  -19.3577   20.9841 C.ar    1  UNL1        0.1128
     30 C          -6.8999  -19.9393   20.0439 C.1     1  UNL1        0.1043
     31 N          -7.9137  -20.5209   19.1038 N.1     1  UNL1       -0.1907
@<TRIPOS>BOND
     1     3     4    1
     2     4     5    1
     3     4     6    1
     4     6     7    1
     5     7     8   ar
     6     8     9   ar
     7     9    10   ar
     8    10    11   ar
     9    11    12   ar
    10    12    13   ar
    11    13    14   ar
    12    14    15   ar
    13    15    16   ar
    14     4     1    1
    15     1    17    1
    16    17    18    1
    17    18    19    1
    18    18    21    1
    19    21    22    1
    20    22    23    1
    21    23    24   ar
    22    24    25   ar
    23    25    26   ar
    24    26    27   ar
    25    27    28    1
    26    27    29   ar
    27    29    30    1
    28    30    31    3
    29    16     7   ar
    30    29    23   ar
    31    15    10   ar
    32     1     2    1
    33    19    20    1
