@<TRIPOS>MOLECULE
*****
 30 33 0 0 0
SMALL
GASTEIGER

@<TRIPOS>ATOM
      1 C          -9.4554  -17.8027   24.0209 C.3     1  UNL1        0.1031
      2 F          -6.8270  -14.3155   28.1357 F       1  UNL1       -0.2042
      3 C          -7.4841  -15.1873   27.1070 C.ar    1  UNL1        0.1401
      4 C          -7.3012  -14.8935   25.6475 C.ar    1  UNL1        0.0294
      5 C          -7.9583  -15.7652   24.6188 C.ar    1  UNL1       -0.0003
      6 C          -8.7983  -16.9309   25.0496 C.ar    1  UNL1       -0.0035
      7 C          -8.9812  -17.2247   26.5091 C.ar    1  UNL1       -0.0003
      8 C          -8.3241  -16.3529   27.5378 C.ar    1  UNL1        0.0294
      9 C         -10.9499  -17.9245   23.9852 C.ar    1  UNL1       -0.0035
     10 C         -11.7380  -17.1857   22.9444 C.ar    1  UNL1       -0.0003
     11 C         -13.2326  -17.3075   22.9087 C.ar    1  UNL1        0.0294
     12 C         -13.9392  -18.1681   23.9138 C.ar    1  UNL1        0.1401
     13 F         -15.4339  -18.2899   23.8780 F       1  UNL1       -0.2042
     14 C         -13.1512  -18.9068   24.9545 C.ar    1  UNL1        0.0294
     15 C         -11.6565  -18.7850   24.9903 C.ar    1  UNL1       -0.0003
     16 N          -8.6179  -18.5526   23.0279 N.3     1  UNL1       -0.2644
     17 C          -8.1211  -19.9299   23.3542 C.3     1  UNL1        0.0901
     18 C          -7.2835  -20.6798   22.3611 C.3     1  UNL1        0.0899
     19 N          -6.9428  -20.0526   21.0419 N.3     1  UNL1       -0.2665
     20 C          -7.4396  -18.6753   20.7156 C.3     1  UNL1        0.0899
     21 C          -8.2771  -17.9254   21.7086 C.3     1  UNL1        0.0901
     22 C          -6.1053  -20.8026   20.0488 C.3     1  UNL1        0.0989
     23 C          -4.7173  -20.3312   19.7306 C.2     1  UNL1       -0.0088
     24 C          -4.1534  -19.1313   20.4321 C.2     1  UNL1       -0.0032
     25 C          -2.7654  -18.6599   20.1139 C.ar    1  UNL1       -0.0003
     26 C          -1.7271  -18.6012   21.1947 C.ar    1  UNL1       -0.0000
     27 C          -0.3391  -18.1298   20.8765 C.ar    1  UNL1       -0.0000
     28 C           0.0106  -17.7171   19.4775 C.ar    1  UNL1       -0.0000
     29 C          -1.0278  -17.7759   18.3966 C.ar    1  UNL1       -0.0000
     30 C          -2.4158  -18.2472   18.7148 C.ar    1  UNL1       -0.0000
@<TRIPOS>BOND
     1     2     3    1
     2     3     4   ar
     3     4     5   ar
     4     5     6   ar
     5     6     1    1
     6     1     9    1
     7     9    10   ar
     8    10    11   ar
     9    11    12   ar
    10    12    13    1
    11    12    14   ar
    12    14    15   ar
    13     1    16    1
    14    16    17    1
    15    17    18    1
    16    18    19    1
    17    19    22    1
    18    22    23    1
    19    23    24    2
    20    24    25    1
    21    25    26   ar
    22    26    27   ar
    23    27    28   ar
    24    28    29   ar
    25    29    30   ar
    26    19    20    1
    27    20    21    1
    28     6     7   ar
    29     7     8   ar
    30     8     3   ar
    31    15     9   ar
    32    21    16    1
    33    30    25   ar
@<TRIPOS>MOLECULE
*****
 30 33 0 0 0
SMALL
GASTEIGER

@<TRIPOS>ATOM
      1 C          -1.0273    2.8045   25.9035 C.3     1  UNL1        0.1031
      2 F          -6.5934    4.8575   25.0067 F       1  UNL1       -0.2042
      3 C          -5.2019    4.3443   25.2309 C.ar    1  UNL1        0.1401
      4 C          -4.5930    4.4013   26.6006 C.ar    1  UNL1        0.0294
      5 C          -3.2015    3.8881   26.8248 C.ar    1  UNL1       -0.0003
      6 C          -2.4189    3.3178   25.6793 C.ar    1  UNL1       -0.0035
      7 C          -3.0277    3.2607   24.3096 C.ar    1  UNL1       -0.0003
      8 C          -4.4192    3.7740   24.0855 C.ar    1  UNL1        0.0294
      9 C          -0.5502    2.5143   27.2956 C.ar    1  UNL1       -0.0035
     10 C          -0.8921    1.2077   27.9485 C.ar    1  UNL1       -0.0003
     11 C          -0.4150    0.9175   29.3406 C.ar    1  UNL1        0.0294
     12 C           0.4040    1.9337   30.0799 C.ar    1  UNL1        0.1401
     13 F           0.8812    1.6433   31.4721 F       1  UNL1       -0.2042
     14 C           0.7459    3.2401   29.4271 C.ar    1  UNL1        0.0294
     15 C           0.2688    3.5305   28.0349 C.ar    1  UNL1       -0.0003
     16 N          -0.1129    2.5816   24.7356 N.3     1  UNL1       -0.2644
     17 C           0.3743    3.7499   23.9307 C.3     1  UNL1        0.0901
     18 C           1.2887    3.5268   22.7627 C.3     1  UNL1        0.0899
     19 N           1.7159    2.1356   22.3996 N.3     1  UNL1       -0.2665
     20 C           1.2287    0.9673   23.2045 C.3     1  UNL1        0.0899
     21 C           0.3143    1.1903   24.3724 C.3     1  UNL1        0.0901
     22 C           2.6303    1.9125   21.2316 C.3     1  UNL1        0.0989
     23 C           3.1412    0.5345   20.9316 C.2     1  UNL1       -0.0088
     24 C           3.3751    0.1142   19.5108 C.2     1  UNL1       -0.0032
     25 C           3.8860   -1.2638   19.2107 C.ar    1  UNL1       -0.0003
     26 C           5.1804   -1.4398   18.4735 C.ar    1  UNL1       -0.0000
     27 C           5.6913   -2.8178   18.1734 C.ar    1  UNL1       -0.0000
     28 C           4.9078   -4.0198   18.6106 C.ar    1  UNL1       -0.0000
     29 C           3.6134   -3.8439   19.3478 C.ar    1  UNL1       -0.0000
     30 C           3.1025   -2.4658   19.6479 C.ar    1  UNL1       -0.0000
@<TRIPOS>BOND
     1     2     3    1
     2     3     4   ar
     3     4     5   ar
     4     5     6   ar
     5     6     1    1
     6     1     9    1
     7     9    10   ar
     8    10    11   ar
     9    11    12   ar
    10    12    13    1
    11    12    14   ar
    12    14    15   ar
    13     1    16    1
    14    16    17    1
    15    17    18    1
    16    18    19    1
    17    19    22    1
    18    22    23    1
    19    23    24    2
    20    24    25    1
    21    25    26   ar
    22    26    27   ar
    23    27    28   ar
    24    28    29   ar
    25    29    30   ar
    26    19    20    1
    27    20    21    1
    28     6     7   ar
    29     7     8   ar
    30     8     3   ar
    31    15     9   ar
    32    21    16    1
    33    30    25   ar
@<TRIPOS>MOLECULE
*****
 30 33 0 0 0
SMALL
GASTEIGER

@<TRIPOS>ATOM
      1 C          -0.7118    2.6101   26.2150 C.3     1  UNL1        0.1031
      2 F           1.9283   -0.6743   30.4861 F       1  UNL1       -0.2042
      3 C           1.2683    0.1468   29.4183 C.ar    1  UNL1        0.1401
      4 C          -0.0986   -0.2242   28.9244 C.ar    1  UNL1        0.0294
      5 C          -0.7586    0.5969   27.8566 C.ar    1  UNL1       -0.0003
      6 C          -0.0518    1.7890   27.2828 C.ar    1  UNL1       -0.0035
      7 C           1.3151    2.1599   27.7767 C.ar    1  UNL1       -0.0003
      8 C           1.9751    1.3388   28.8445 C.ar    1  UNL1        0.0294
      9 C          -1.6989    3.6752   26.5906 C.ar    1  UNL1       -0.0035
     10 C          -1.2147    5.0259   27.0280 C.ar    1  UNL1       -0.0003
     11 C          -2.2018    6.0910   27.4036 C.ar    1  UNL1        0.0294
     12 C          -3.6730    5.8056   27.3418 C.ar    1  UNL1        0.1401
     13 F          -4.6601    6.8708   27.7175 F       1  UNL1       -0.2042
     14 C          -4.1573    4.4550   26.9045 C.ar    1  UNL1        0.0294
     15 C          -3.1702    3.3897   26.5288 C.ar    1  UNL1       -0.0003
     16 N          -0.3848    2.3660   24.7716 N.3     1  UNL1       -0.2644
     17 C          -0.9836    3.2390   23.7089 C.3     1  UNL1        0.0901
     18 C          -0.6566    2.9949   22.2654 C.3     1  UNL1        0.0899
     19 N           0.2693    1.8778   21.8847 N.3     1  UNL1       -0.2665
     20 C           0.8681    1.0048   22.9474 C.3     1  UNL1        0.0899
     21 C           0.5411    1.2489   24.3908 C.3     1  UNL1        0.0901
     22 C           0.5964    1.6337   20.4413 C.3     1  UNL1        0.0989
     23 C           1.3243    0.3858   20.0379 C.2     1  UNL1       -0.0088
     24 C           2.7759    0.4513   19.6659 C.2     1  UNL1       -0.0032
     25 C           3.5039   -0.7966   19.2625 C.ar    1  UNL1       -0.0003
     26 C           3.0044   -2.1362   19.7163 C.ar    1  UNL1       -0.0000
     27 C           3.7323   -3.3841   19.3129 C.ar    1  UNL1       -0.0000
     28 C           4.9598   -3.2925   18.4558 C.ar    1  UNL1       -0.0000
     29 C           5.4594   -1.9530   18.0020 C.ar    1  UNL1       -0.0000
     30 C           4.7314   -0.7050   18.4053 C.ar    1  UNL1       -0.0000
@<TRIPOS>BOND
     1     2     3    1
     2     3     4   ar
     3     4     5   ar
     4     5     6   ar
     5     6     1    1
     6     1     9    1
     7     9    10   ar
     8    10    11   ar
     9    11    12   ar
    10    12    13    1
    11    12    14   ar
    12    14    15   ar
    13     1    16    1
    14    16    17    1
    15    17    18    1
    16    18    19    1
    17    19    22    1
    18    22    23    1
    19    23    24    2
    20    24    25    1
    21    25    26   ar
    22    26    27   ar
    23    27    28   ar
    24    28    29   ar
    25    29    30   ar
    26    19    20    1
    27    20    21    1
    28     6     7   ar
    29     7     8   ar
    30     8     3   ar
    31    15     9   ar
    32    21    16    1
    33    30    25   ar
@<TRIPOS>MOLECULE
*****
 30 33 0 0 0
SMALL
GASTEIGER

@<TRIPOS>ATOM
      1 C          -1.0956    3.0284   26.2095 C.3     1  UNL1        0.1031
      2 F          -5.1863    7.1374   27.7529 F       1  UNL1       -0.2042
      3 C          -4.1636    6.1101   27.3670 C.ar    1  UNL1        0.1401
      4 C          -4.5986    4.7291   26.9752 C.ar    1  UNL1        0.0294
      5 C          -3.5759    3.7018   26.5894 C.ar    1  UNL1       -0.0003
      6 C          -2.1182    4.0556   26.5953 C.ar    1  UNL1       -0.0035
      7 C          -1.6833    5.4366   26.9871 C.ar    1  UNL1       -0.0003
      8 C          -2.7060    6.4639   27.3730 C.ar    1  UNL1        0.0294
      9 C          -0.3627    2.2638   27.2717 C.ar    1  UNL1       -0.0035
     10 C           0.9254    2.7966   27.8256 C.ar    1  UNL1       -0.0003
     11 C           1.6583    2.0321   28.8879 C.ar    1  UNL1        0.0294
     12 C           1.1030    0.7346   29.3962 C.ar    1  UNL1        0.1401
     13 F           1.8359   -0.0299   30.4585 F       1  UNL1       -0.2042
     14 C          -0.1851    0.2018   28.8423 C.ar    1  UNL1        0.0294
     15 C          -0.9180    0.9664   27.7800 C.ar    1  UNL1       -0.0003
     16 N          -0.8057    2.7657   24.7614 N.3     1  UNL1       -0.2644
     17 C           0.2094    1.7310   24.3754 C.3     1  UNL1        0.0901
     18 C           0.4993    1.4684   22.9272 C.3     1  UNL1        0.0899
     19 N          -0.2260    2.2403   21.8652 N.3     1  UNL1       -0.2665
     20 C          -1.2411    3.2750   22.2512 C.3     1  UNL1        0.0899
     21 C          -1.5310    3.5377   23.6993 C.3     1  UNL1        0.0901
     22 C           0.0639    1.9777   20.4170 C.3     1  UNL1        0.0989
     23 C           0.8110    0.7410   20.0140 C.2     1  UNL1       -0.0088
     24 C           2.2703    0.8228   19.6770 C.2     1  UNL1       -0.0032
     25 C           3.0174   -0.4139   19.2740 C.ar    1  UNL1       -0.0003
     26 C           3.9642   -0.3727   18.1113 C.ar    1  UNL1       -0.0000
     27 C           4.7113   -1.6094   17.7083 C.ar    1  UNL1       -0.0000
     28 C           4.5117   -2.8873   18.4680 C.ar    1  UNL1       -0.0000
     29 C           3.5650   -2.9284   19.6307 C.ar    1  UNL1       -0.0000
     30 C           2.8179   -1.6917   20.0337 C.ar    1  UNL1       -0.0000
@<TRIPOS>BOND
     1     2     3    1
     2     3     4   ar
     3     4     5   ar
     4     5     6   ar
     5     6     1    1
     6     1     9    1
     7     9    10   ar
     8    10    11   ar
     9    11    12   ar
    10    12    13    1
    11    12    14   ar
    12    14    15   ar
    13     1    16    1
    14    16    17    1
    15    17    18    1
    16    18    19    1
    17    19    22    1
    18    22    23    1
    19    23    24    2
    20    24    25    1
    21    25    26   ar
    22    26    27   ar
    23    27    28   ar
    24    28    29   ar
    25    29    30   ar
    26    19    20    1
    27    20    21    1
    28     6     7   ar
    29     7     8   ar
    30     8     3   ar
    31    15     9   ar
    32    21    16    1
    33    30    25   ar
@<TRIPOS>MOLECULE
*****
 30 33 0 0 0
SMALL
GASTEIGER

@<TRIPOS>ATOM
      1 C          -3.5899    4.0520   21.0060 C.3     1  UNL1        0.1031
      2 F          -8.1444    5.9039   17.5670 F       1  UNL1       -0.2042
      3 C          -7.0058    5.4409   18.4267 C.ar    1  UNL1        0.1401
      4 C          -6.0846    6.4440   19.0554 C.ar    1  UNL1        0.0294
      5 C          -4.9460    5.9810   19.9151 C.ar    1  UNL1       -0.0003
      6 C          -4.7285    4.5150   20.1462 C.ar    1  UNL1       -0.0035
      7 C          -5.6497    3.5119   19.5176 C.ar    1  UNL1       -0.0003
      8 C          -6.7883    3.9749   18.6578 C.ar    1  UNL1        0.0294
      9 C          -3.7358    4.0354   22.4988 C.ar    1  UNL1       -0.0035
     10 C          -2.8230    4.8666   23.3509 C.ar    1  UNL1       -0.0003
     11 C          -2.9688    4.8499   24.8436 C.ar    1  UNL1        0.0294
     12 C          -4.0275    4.0022   25.4844 C.ar    1  UNL1        0.1401
     13 F          -4.1733    3.9856   26.9772 F       1  UNL1       -0.2042
     14 C          -4.9403    3.1711   24.6323 C.ar    1  UNL1        0.0294
     15 C          -4.7944    3.1877   23.1395 C.ar    1  UNL1       -0.0003
     16 N          -2.3054    3.6057   20.3730 N.3     1  UNL1       -0.2644
     17 C          -1.3415    2.7582   21.1493 C.3     1  UNL1        0.0901
     18 C          -0.0569    2.3119   20.5162 C.3     1  UNL1        0.0899
     19 N           0.2637    2.7131   19.1069 N.3     1  UNL1       -0.2665
     20 C          -0.7002    3.5606   18.3306 C.3     1  UNL1        0.0899
     21 C          -1.9847    4.0069   18.9636 C.3     1  UNL1        0.0901
     22 C           1.5483    2.2667   18.4738 C.3     1  UNL1        0.0989
     23 C           1.9829    0.8356   18.5875 C.2     1  UNL1       -0.0088
     24 C           3.4419    0.4896   18.5502 C.2     1  UNL1       -0.0032
     25 C           3.8765   -0.9416   18.6639 C.ar    1  UNL1       -0.0003
     26 C           3.0819   -1.9027   19.4975 C.ar    1  UNL1       -0.0000
     27 C           3.5165   -3.3338   19.6112 C.ar    1  UNL1       -0.0000
     28 C           4.7457   -3.8039   18.8914 C.ar    1  UNL1       -0.0000
     29 C           5.5402   -2.8428   18.0578 C.ar    1  UNL1       -0.0000
     30 C           5.1056   -1.4116   17.9441 C.ar    1  UNL1       -0.0000
@<TRIPOS>BOND
     1     2     3    1
     2     3     4   ar
     3     4     5   ar
     4     5     6   ar
     5     6     1    1
     6     1     9    1
     7     9    10   ar
     8    10    11   ar
     9    11    12   ar
    10    12    13    1
    11    12    14   ar
    12    14    15   ar
    13     1    16    1
    14    16    17    1
    15    17    18    1
    16    18    19    1
    17    19    22    1
    18    22    23    1
    19    23    24    2
    20    24    25    1
    21    25    26   ar
    22    26    27   ar
    23    27    28   ar
    24    28    29   ar
    25    29    30   ar
    26    19    20    1
    27    20    21    1
    28     6     7   ar
    29     7     8   ar
    30     8     3   ar
    31    15     9   ar
    32    21    16    1
    33    30    25   ar
@<TRIPOS>MOLECULE
*****
 30 33 0 0 0
SMALL
GASTEIGER

@<TRIPOS>ATOM
      1 C          -3.6049    4.0996   21.0138 C.3     1  UNL1        0.1031
      2 F          -4.2774    4.0415   26.9757 F       1  UNL1       -0.2042
      3 C          -4.1093    4.0560   25.4852 C.ar    1  UNL1        0.1401
      4 C          -4.9740    3.1835   24.6244 C.ar    1  UNL1        0.0294
      5 C          -4.8058    3.1981   23.1339 C.ar    1  UNL1       -0.0003
      6 C          -3.7730    4.0851   22.5043 C.ar    1  UNL1       -0.0035
      7 C          -2.9084    4.9575   23.3651 C.ar    1  UNL1       -0.0003
      8 C          -3.0765    4.9430   24.8556 C.ar    1  UNL1        0.0294
      9 C          -4.7293    4.5647   20.1367 C.ar    1  UNL1       -0.0035
     10 C          -5.6522    3.5640   19.5065 C.ar    1  UNL1       -0.0003
     11 C          -6.7766    4.0291   18.6294 C.ar    1  UNL1        0.0294
     12 C          -6.9782    5.4949   18.3825 C.ar    1  UNL1        0.1401
     13 F          -8.1027    5.9599   17.5053 F       1  UNL1       -0.2042
     14 C          -6.0555    6.4955   19.0127 C.ar    1  UNL1        0.0294
     15 C          -4.9310    6.0304   19.8898 C.ar    1  UNL1       -0.0003
     16 N          -2.3124    3.6490   20.4004 N.3     1  UNL1       -0.2644
     17 C          -1.3422    2.8375   21.2068 C.3     1  UNL1        0.0901
     18 C          -0.0496    2.3870   20.5933 C.3     1  UNL1        0.0899
     19 N           0.2728    2.7479   19.1736 N.3     1  UNL1       -0.2665
     20 C          -0.6974    3.5594   18.3672 C.3     1  UNL1        0.0899
     21 C          -1.9900    4.0100   18.9806 C.3     1  UNL1        0.0901
     22 C           1.5654    2.2973   18.5601 C.3     1  UNL1        0.0989
     23 C           2.1050    0.9317   18.8663 C.2     1  UNL1       -0.0088
     24 C           3.2889    0.4061   18.1100 C.2     1  UNL1       -0.0032
     25 C           3.8286   -0.9595   18.4162 C.ar    1  UNL1       -0.0003
     26 C           5.1318   -1.4020   17.8199 C.ar    1  UNL1       -0.0000
     27 C           5.6715   -2.7677   18.1261 C.ar    1  UNL1       -0.0000
     28 C           4.9079   -3.6908   19.0287 C.ar    1  UNL1       -0.0000
     29 C           3.6046   -3.2483   19.6250 C.ar    1  UNL1       -0.0000
     30 C           3.0649   -1.8827   19.3188 C.ar    1  UNL1       -0.0000
@<TRIPOS>BOND
     1     2     3    1
     2     3     4   ar
     3     4     5   ar
     4     5     6   ar
     5     6     1    1
     6     1     9    1
     7     9    10   ar
     8    10    11   ar
     9    11    12   ar
    10    12    13    1
    11    12    14   ar
    12    14    15   ar
    13     1    16    1
    14    16    17    1
    15    17    18    1
    16    18    19    1
    17    19    22    1
    18    22    23    1
    19    23    24    2
    20    24    25    1
    21    25    26   ar
    22    26    27   ar
    23    27    28   ar
    24    28    29   ar
    25    29    30   ar
    26    19    20    1
    27    20    21    1
    28     6     7   ar
    29     7     8   ar
    30     8     3   ar
    31    15     9   ar
    32    21    16    1
    33    30    25   ar
@<TRIPOS>MOLECULE
*****
 30 33 0 0 0
SMALL
GASTEIGER

@<TRIPOS>ATOM
      1 C           4.4105   -0.3163   20.5158 C.3     1  UNL1        0.1031
      2 F           4.7750   -6.0402   18.7540 F       1  UNL1       -0.2042
      3 C           4.6839   -4.6092   19.1945 C.ar    1  UNL1        0.1401
      4 C           5.9061   -3.9001   19.6977 C.ar    1  UNL1        0.0294
      5 C           5.8150   -2.4692   20.1382 C.ar    1  UNL1       -0.0003
      6 C           4.5017   -1.7473   20.0753 C.ar    1  UNL1       -0.0035
      7 C           3.2795   -2.4564   19.5721 C.ar    1  UNL1       -0.0003
      8 C           3.3706   -3.8874   19.1316 C.ar    1  UNL1        0.0294
      9 C           5.1066    0.7558   19.7309 C.ar    1  UNL1       -0.0035
     10 C           4.8227    0.9176   18.2668 C.ar    1  UNL1       -0.0003
     11 C           5.5187    1.9897   17.4819 C.ar    1  UNL1        0.0294
     12 C           6.4986    2.9000   18.1609 C.ar    1  UNL1        0.1401
     13 F           7.1946    3.9721   17.3759 F       1  UNL1       -0.2042
     14 C           6.7825    2.7382   19.6249 C.ar    1  UNL1        0.0294
     15 C           6.0865    1.6661   20.4099 C.ar    1  UNL1       -0.0003
     16 N           3.6234    0.0426   21.7411 N.3     1  UNL1       -0.2644
     17 C           2.6681    1.1985   21.7070 C.3     1  UNL1        0.0901
     18 C           1.8809    1.5574   22.9325 C.3     1  UNL1        0.0899
     19 N           2.0491    0.7604   24.1920 N.3     1  UNL1       -0.2665
     20 C           3.0044   -0.3956   24.2261 C.3     1  UNL1        0.0899
     21 C           3.7916   -0.7545   23.0007 C.3     1  UNL1        0.0901
     22 C           1.2619    1.1193   25.4174 C.3     1  UNL1        0.0989
     23 C          -0.1873    1.4869   25.2969 C.2     1  UNL1       -0.0088
     24 C          -0.6266    2.8984   25.5509 C.2     1  UNL1       -0.0032
     25 C          -2.0759    3.2661   25.4304 C.ar    1  UNL1       -0.0003
     26 C          -2.7414    3.2617   24.0862 C.ar    1  UNL1       -0.0000
     27 C          -4.1907    3.6293   23.9656 C.ar    1  UNL1       -0.0000
     28 C          -4.9743    4.0014   25.1893 C.ar    1  UNL1       -0.0000
     29 C          -4.3088    4.0058   26.5335 C.ar    1  UNL1       -0.0000
     30 C          -2.8595    3.6381   26.6540 C.ar    1  UNL1       -0.0000
@<TRIPOS>BOND
     1     2     3    1
     2     3     4   ar
     3     4     5   ar
     4     5     6   ar
     5     6     1    1
     6     1     9    1
     7     9    10   ar
     8    10    11   ar
     9    11    12   ar
    10    12    13    1
    11    12    14   ar
    12    14    15   ar
    13     1    16    1
    14    16    17    1
    15    17    18    1
    16    18    19    1
    17    19    22    1
    18    22    23    1
    19    23    24    2
    20    24    25    1
    21    25    26   ar
    22    26    27   ar
    23    27    28   ar
    24    28    29   ar
    25    29    30   ar
    26    19    20    1
    27    20    21    1
    28     6     7   ar
    29     7     8   ar
    30     8     3   ar
    31    15     9   ar
    32    21    16    1
    33    30    25   ar
@<TRIPOS>MOLECULE
*****
 30 33 0 0 0
SMALL
GASTEIGER

@<TRIPOS>ATOM
      1 C           4.3071    0.0737   20.4669 C.3     1  UNL1        0.1031
      2 F           6.9855    4.6060   17.5885 F       1  UNL1       -0.2042
      3 C           6.3159    3.4729   18.3081 C.ar    1  UNL1        0.1401
      4 C           6.7708    3.0848   19.6837 C.ar    1  UNL1        0.0294
      5 C           6.1012    1.9518   20.4033 C.ar    1  UNL1       -0.0003
      6 C           4.9767    1.2068   19.7473 C.ar    1  UNL1       -0.0035
      7 C           4.5218    1.5949   18.3717 C.ar    1  UNL1       -0.0003
      8 C           5.1914    2.7280   17.6521 C.ar    1  UNL1        0.0294
      9 C           4.4200   -1.3240   19.9345 C.ar    1  UNL1       -0.0035
     10 C           5.7617   -1.8742   19.5505 C.ar    1  UNL1       -0.0003
     11 C           5.8746   -3.2720   19.0180 C.ar    1  UNL1        0.0294
     12 C           4.6459   -4.1196   18.8696 C.ar    1  UNL1        0.1401
     13 F           4.7589   -5.5174   18.3371 F       1  UNL1       -0.2042
     14 C           3.3044   -3.5694   19.2535 C.ar    1  UNL1        0.0294
     15 C           3.1914   -2.1716   19.7860 C.ar    1  UNL1       -0.0003
     16 N           3.5246    0.3384   21.7189 N.3     1  UNL1       -0.2644
     17 C           3.8070   -0.4532   22.9613 C.3     1  UNL1        0.0901
     18 C           3.0244   -0.1885   24.2134 C.3     1  UNL1        0.0899
     19 N           1.9595    0.8678   24.2230 N.3     1  UNL1       -0.2665
     20 C           1.6771    1.6594   22.9806 C.3     1  UNL1        0.0899
     21 C           2.4596    1.3948   21.7285 C.3     1  UNL1        0.0901
     22 C           1.1769    1.1325   25.4750 C.3     1  UNL1        0.0989
     23 C          -0.2732    1.5059   25.3882 C.2     1  UNL1       -0.0088
     24 C          -0.6853    2.9440   25.4985 C.2     1  UNL1       -0.0032
     25 C          -2.1355    3.3174   25.4116 C.ar    1  UNL1       -0.0003
     26 C          -2.8313    3.3190   24.0828 C.ar    1  UNL1       -0.0000
     27 C          -4.2815    3.6924   23.9960 C.ar    1  UNL1       -0.0000
     28 C          -5.0359    4.0642   25.2380 C.ar    1  UNL1       -0.0000
     29 C          -4.3401    4.0625   26.5668 C.ar    1  UNL1       -0.0000
     30 C          -2.8899    3.6891   26.6536 C.ar    1  UNL1       -0.0000
@<TRIPOS>BOND
     1     2     3    1
     2     3     4   ar
     3     4     5   ar
     4     5     6   ar
     5     6     1    1
     6     1     9    1
     7     9    10   ar
     8    10    11   ar
     9    11    12   ar
    10    12    13    1
    11    12    14   ar
    12    14    15   ar
    13     1    16    1
    14    16    17    1
    15    17    18    1
    16    18    19    1
    17    19    22    1
    18    22    23    1
    19    23    24    2
    20    24    25    1
    21    25    26   ar
    22    26    27   ar
    23    27    28   ar
    24    28    29   ar
    25    29    30   ar
    26    19    20    1
    27    20    21    1
    28     6     7   ar
    29     7     8   ar
    30     8     3   ar
    31    15     9   ar
    32    21    16    1
    33    30    25   ar
@<TRIPOS>MOLECULE
*****
 30 33 0 0 0
SMALL
GASTEIGER

@<TRIPOS>ATOM
      1 C          -2.0776    3.7926   23.3835 C.3     1  UNL1        0.1031
      2 F           0.5846    3.7516   28.7604 F       1  UNL1       -0.2042
      3 C          -0.0810    3.7618   27.4162 C.ar    1  UNL1        0.1401
      4 C          -0.9392    2.6059   26.9954 C.ar    1  UNL1        0.0294
      5 C          -1.6047    2.6161   25.6512 C.ar    1  UNL1       -0.0003
      6 C          -1.4121    3.7823   24.7278 C.ar    1  UNL1       -0.0035
      7 C          -0.5538    4.9383   25.1486 C.ar    1  UNL1       -0.0003
      8 C           0.1117    4.9281   26.4928 C.ar    1  UNL1        0.0294
      9 C          -3.4898    4.2801   23.2495 C.ar    1  UNL1       -0.0035
     10 C          -3.7784    5.7522   23.2511 C.ar    1  UNL1       -0.0003
     11 C          -5.1906    6.2397   23.1171 C.ar    1  UNL1        0.0294
     12 C          -6.3142    5.2553   22.9815 C.ar    1  UNL1        0.1401
     13 F          -7.7265    5.7430   22.8475 F       1  UNL1       -0.2042
     14 C          -6.0257    3.7834   22.9800 C.ar    1  UNL1        0.0294
     15 C          -4.6135    3.2957   23.1140 C.ar    1  UNL1       -0.0003
     16 N          -1.3310    3.3153   22.1733 N.3     1  UNL1       -0.2644
     17 C          -1.7960    3.7075   20.8022 C.3     1  UNL1        0.0901
     18 C          -1.0493    3.2301   19.5919 C.3     1  UNL1        0.0899
     19 N           0.1623    2.3606   19.7528 N.3     1  UNL1       -0.2665
     20 C           0.6273    1.9684   21.1240 C.3     1  UNL1        0.0899
     21 C          -0.1193    2.4457   22.3342 C.3     1  UNL1        0.0901
     22 C           0.9090    1.8832   18.5426 C.3     1  UNL1        0.0989
     23 C           1.5356    0.5204   18.5372 C.2     1  UNL1       -0.0088
     24 C           2.9980    0.3662   18.8330 C.2     1  UNL1       -0.0032
     25 C           3.6247   -0.9966   18.8276 C.ar    1  UNL1       -0.0003
     26 C           3.0617   -2.0844   19.6934 C.ar    1  UNL1       -0.0000
     27 C           3.6883   -3.4473   19.6880 C.ar    1  UNL1       -0.0000
     28 C           4.8780   -3.7223   18.8168 C.ar    1  UNL1       -0.0000
     29 C           5.4410   -2.6345   17.9510 C.ar    1  UNL1       -0.0000
     30 C           4.8143   -1.2717   17.9564 C.ar    1  UNL1       -0.0000
@<TRIPOS>BOND
     1     2     3    1
     2     3     4   ar
     3     4     5   ar
     4     5     6   ar
     5     6     1    1
     6     1     9    1
     7     9    10   ar
     8    10    11   ar
     9    11    12   ar
    10    12    13    1
    11    12    14   ar
    12    14    15   ar
    13     1    16    1
    14    16    17    1
    15    17    18    1
    16    18    19    1
    17    19    22    1
    18    22    23    1
    19    23    24    2
    20    24    25    1
    21    25    26   ar
    22    26    27   ar
    23    27    28   ar
    24    28    29   ar
    25    29    30   ar
    26    19    20    1
    27    20    21    1
    28     6     7   ar
    29     7     8   ar
    30     8     3   ar
    31    15     9   ar
    32    21    16    1
    33    30    25   ar
