@<TRIPOS>MOLECULE
*****
 43 48 0 0 0
SMALL
GASTEIGER

@<TRIPOS>ATOM
      1 C          -3.6633    5.0036   18.7890 C.2     1  UNL1        0.2252
      2 O          -4.0154    5.6640   17.4891 O.2     1  UNL1       -0.2749
      3 N          -2.4135    4.1814   18.8981 N.am    1  UNL1       -0.2794
      4 C          -1.5157    4.0197   17.7073 C.3     1  UNL1        0.0953
      5 C          -0.2659    3.1975   17.8164 C.3     1  UNL1        0.0442
      6 C           0.0862    2.5370   19.1164 C.3     1  UNL1        0.0933
      7 C          -0.8115    2.6987   20.3071 C.3     1  UNL1        0.0442
      8 C          -2.0613    3.5209   20.1980 C.3     1  UNL1        0.0953
      9 N           1.3361    1.7148   19.2255 N.ar    1  UNL1       -0.2814
     10 C           1.4313    0.3248   19.7813 C.ar    1  UNL1        0.3354
     11 O           0.2935   -0.4871   20.3255 O.2     1  UNL1       -0.2459
     12 N           2.8642   -0.1108   19.6972 N.ar    1  UNL1       -0.2587
     13 C           3.6546    1.0100   19.0895 C.ar    1  UNL1        0.0863
     14 C           5.1122    1.1490   18.7640 C.ar    1  UNL1        0.0487
     15 C           5.6253    2.4162   18.1469 C.ar    1  UNL1        0.1417
     16 F           7.0830    2.5552   17.8214 F       1  UNL1       -0.2041
     17 C           4.6809    3.5444   17.8554 C.ar    1  UNL1        0.0312
     18 C           3.2232    3.4055   18.1809 C.ar    1  UNL1        0.0211
     19 C           2.7101    2.1383   18.7980 C.ar    1  UNL1        0.0801
     20 C           3.4109   -1.4347   20.1426 C.ar    1  UNL1        0.0727
     21 C           3.5886   -2.5451   19.1499 C.ar    1  UNL1        0.0474
     22 C           4.1352   -3.8691   19.5953 C.ar    1  UNL1        0.1438
     23 F           4.3129   -4.9794   18.6025 F       1  UNL1       -0.2040
     24 C           4.5042   -4.0826   21.0334 C.ar    1  UNL1        0.0593
     25 C           4.3266   -2.9722   22.0261 C.ar    1  UNL1        0.1438
     26 F           4.6956   -3.1858   23.4643 F       1  UNL1       -0.2040
     27 C           3.7799   -1.6483   21.5807 C.ar    1  UNL1        0.0474
     28 N          -6.3564    5.4886   22.3613 N.3     1  UNL1       -0.2689
     29 C          -5.2884    6.5047   22.0838 C.3     1  UNL1        0.0729
     30 C          -4.3907    6.3430   20.8930 C.3     1  UNL1        0.0264
     31 C          -4.5610    5.1652   19.9798 C.3     1  UNL1        0.0795
     32 C          -5.6290    4.1492   20.2573 C.3     1  UNL1        0.0264
     33 C          -6.5267    4.3109   21.4481 C.3     1  UNL1        0.0729
     34 C          -7.2542    5.6503   23.5521 C.3     1  UNL1        0.0993
     35 N          -3.6878    3.8141   26.8551 N.pl3   1  UNL1       -0.3426
     36 C          -4.9006    4.6557   26.5887 C.ar    1  UNL1        0.1251
     37 C          -5.4710    4.7322   25.2035 C.ar    1  UNL1        0.0310
     38 C          -6.6838    5.5738   24.9373 C.ar    1  UNL1       -0.0018
     39 C          -7.3261    6.3389   26.0562 C.ar    1  UNL1        0.0179
     40 C          -6.7557    6.2624   27.4414 C.ar    1  UNL1        0.1000
     41 N          -5.5429    5.4208   27.7076 N.ar    1  UNL1       -0.2296
     42 H          -3.2661    3.3119   26.1207 H       1  UNL1        0.1437
     43 H          -3.3134    3.7640   27.7642 H       1  UNL1        0.1437
@<TRIPOS>BOND
     1    35    36    1
     2    36    37   ar
     3    37    38   ar
     4    38    34    1
     5    34    28    1
     6    28    29    1
     7    29    30    1
     8    30    31    1
     9    31     1    1
    10     1     2    2
    11     1     3   am
    12     3     4    1
    13     4     5    1
    14     5     6    1
    15     6     9    1
    16     9    10   ar
    17    10    11    2
    18    10    12   ar
    19    12    20    1
    20    20    21   ar
    21    21    22   ar
    22    22    23    1
    23    22    24   ar
    24    24    25   ar
    25    25    26    1
    26    25    27   ar
    27    12    13   ar
    28    13    14   ar
    29    14    15   ar
    30    15    16    1
    31    15    17   ar
    32    17    18   ar
    33    18    19   ar
    34     6     7    1
    35     7     8    1
    36    31    32    1
    37    32    33    1
    38    38    39   ar
    39    39    40   ar
    40    40    41   ar
    41    41    36   ar
    42    33    28    1
    43     8     3    1
    44    19     9   ar
    45    27    20   ar
    46    19    13   ar
    47    35    42    1
    48    35    43    1
@<TRIPOS>MOLECULE
*****
 43 48 0 0 0
SMALL
GASTEIGER

@<TRIPOS>ATOM
      1 C           1.1076    1.2989   28.7154 C.2     1  UNL1        0.2252
      2 O          -0.1846    1.9234   29.1512 O.2     1  UNL1       -0.2749
      3 N           1.3671    1.0510   27.2590 N.am    1  UNL1       -0.2794
      4 C           0.3343    1.4276   26.2384 C.3     1  UNL1        0.0953
      5 C           0.5938    1.1796   24.7820 C.3     1  UNL1        0.0442
      6 C           1.8861    0.5551   24.3461 C.3     1  UNL1        0.0933
      7 C           2.9188    0.1785   25.3666 C.3     1  UNL1        0.0442
      8 C           2.6594    0.4264   26.8231 C.3     1  UNL1        0.0953
      9 N           2.1456    0.3071   22.8896 N.ar    1  UNL1       -0.2814
     10 C           3.1397   -0.6632   22.3239 C.ar    1  UNL1        0.3354
     11 O           4.0489   -1.5561   23.1152 O.2     1  UNL1       -0.2459
     12 N           3.0650   -0.5840   20.8278 N.ar    1  UNL1       -0.2587
     13 C           2.0247    0.4354   20.4690 C.ar    1  UNL1        0.0863
     14 C           1.5214    0.9332   19.1466 C.ar    1  UNL1        0.0487
     15 C           0.4499    1.9818   19.0984 C.ar    1  UNL1        0.1417
     16 F          -0.0534    2.4796   17.7760 F       1  UNL1       -0.2041
     17 C          -0.1183    2.5325   20.3727 C.ar    1  UNL1        0.0312
     18 C           0.3850    2.0347   21.6951 C.ar    1  UNL1        0.0211
     19 C           1.4565    0.9861   21.7433 C.ar    1  UNL1        0.0801
     20 C           3.8863   -1.3837   19.8604 C.ar    1  UNL1        0.0727
     21 C           4.9147   -0.7021   19.0072 C.ar    1  UNL1        0.0474
     22 C           5.7361   -1.5018   18.0398 C.ar    1  UNL1        0.1438
     23 F           6.7644   -0.8201   17.1866 F       1  UNL1       -0.2040
     24 C           5.5291   -2.9830   17.9256 C.ar    1  UNL1        0.0593
     25 C           4.5007   -3.6646   18.7788 C.ar    1  UNL1        0.1438
     26 F           4.2937   -5.1458   18.6646 F       1  UNL1       -0.2040
     27 C           3.6794   -2.8649   19.7462 C.ar    1  UNL1        0.0474
     28 N           4.2060    0.1691   31.7770 N.3     1  UNL1       -0.2689
     29 C           3.2201   -0.8536   31.2950 C.3     1  UNL1        0.0729
     30 C           2.1873   -0.4770   30.2744 C.3     1  UNL1        0.0264
     31 C           2.1404    0.9223   29.7360 C.3     1  UNL1        0.0795
     32 C           3.1263    1.9449   30.2180 C.3     1  UNL1        0.0264
     33 C           4.1590    1.5683   31.2385 C.3     1  UNL1        0.0729
     34 C           5.2388   -0.2076   32.7976 C.3     1  UNL1        0.0993
     35 N           6.4415   -5.2459   32.3876 N.pl3   1  UNL1       -0.3426
     36 C           6.8391   -3.8031   32.2868 C.ar    1  UNL1        0.1251
     37 C           5.8401   -2.7267   32.5926 C.ar    1  UNL1        0.0310
     38 C           6.2378   -1.2839   32.4918 C.ar    1  UNL1       -0.0018
     39 C           7.6344   -0.9174   32.0853 C.ar    1  UNL1        0.0179
     40 C           8.6333   -1.9938   31.7796 C.ar    1  UNL1        0.1000
     41 N           8.2357   -3.4366   31.8804 N.ar    1  UNL1       -0.2296
     42 H           5.5249   -5.4865   32.6543 H       1  UNL1        0.1437
     43 H           7.0972   -5.9524   32.1869 H       1  UNL1        0.1437
@<TRIPOS>BOND
     1    35    36    1
     2    36    37   ar
     3    37    38   ar
     4    38    34    1
     5    34    28    1
     6    28    29    1
     7    29    30    1
     8    30    31    1
     9    31     1    1
    10     1     2    2
    11     1     3   am
    12     3     4    1
    13     4     5    1
    14     5     6    1
    15     6     9    1
    16     9    10   ar
    17    10    11    2
    18    10    12   ar
    19    12    20    1
    20    20    21   ar
    21    21    22   ar
    22    22    23    1
    23    22    24   ar
    24    24    25   ar
    25    25    26    1
    26    25    27   ar
    27    12    13   ar
    28    13    14   ar
    29    14    15   ar
    30    15    16    1
    31    15    17   ar
    32    17    18   ar
    33    18    19   ar
    34     6     7    1
    35     7     8    1
    36    31    32    1
    37    32    33    1
    38    38    39   ar
    39    39    40   ar
    40    40    41   ar
    41    41    36   ar
    42    33    28    1
    43     8     3    1
    44    19     9   ar
    45    27    20   ar
    46    19    13   ar
    47    35    42    1
    48    35    43    1
@<TRIPOS>MOLECULE
*****
 43 48 0 0 0
SMALL
GASTEIGER

@<TRIPOS>ATOM
      1 C           6.6627   -4.2976   31.1618 C.2     1  UNL1        0.2252
      2 O           6.7627   -5.6934   31.7020 O.2     1  UNL1       -0.2749
      3 N           6.5872   -4.0702   29.6810 N.am    1  UNL1       -0.2794
      4 C           6.6117   -5.2385   28.7406 C.3     1  UNL1        0.0953
      5 C           6.5361   -5.0111   27.2598 C.3     1  UNL1        0.0442
      6 C           6.4361   -3.6153   26.7195 C.3     1  UNL1        0.0933
      7 C           6.4116   -2.4471   27.6600 C.3     1  UNL1        0.0442
      8 C           6.4871   -2.6745   29.1407 C.3     1  UNL1        0.0953
      9 N           6.3606   -3.3879   25.2388 N.ar    1  UNL1       -0.2814
     10 C           5.4450   -2.4270   24.5399 C.ar    1  UNL1        0.3354
     11 O           4.4443   -1.5248   25.1990 O.2     1  UNL1       -0.2459
     12 N           5.7060   -2.5268   23.0661 N.ar    1  UNL1       -0.2587
     13 C           6.7828   -3.5493   22.8542 C.ar    1  UNL1        0.0863
     14 C           7.4471   -4.0646   21.6120 C.ar    1  UNL1        0.0487
     15 C           8.5160   -5.1121   21.7126 C.ar    1  UNL1        0.1417
     16 F           9.1805   -5.6273   20.4703 F       1  UNL1       -0.2041
     17 C           8.9206   -5.6443   23.0553 C.ar    1  UNL1        0.0312
     18 C           8.2562   -5.1291   24.2975 C.ar    1  UNL1        0.0211
     19 C           7.1873   -4.0816   24.1970 C.ar    1  UNL1        0.0801
     20 C           5.0120   -1.7418   21.9927 C.ar    1  UNL1        0.0727
     21 C           3.5368   -1.9079   21.7769 C.ar    1  UNL1        0.0474
     22 C           2.8428   -1.1229   20.7035 C.ar    1  UNL1        0.1438
     23 F           1.3678   -1.2890   20.4878 F       1  UNL1       -0.2040
     24 C           3.6239   -0.1718   19.8459 C.ar    1  UNL1        0.0593
     25 C           5.0990   -0.0058   20.0618 C.ar    1  UNL1        0.1438
     26 F           5.8801    0.9453   19.2042 F       1  UNL1       -0.2040
     27 C           5.7930   -0.7908   21.1352 C.ar    1  UNL1        0.0474
     28 N           6.5891   -0.7927   33.9831 N.3     1  UNL1       -0.2689
     29 C           5.3168   -1.5141   33.6498 C.3     1  UNL1        0.0729
     30 C           5.3413   -2.6824   32.7093 C.3     1  UNL1        0.0264
     31 C           6.6382   -3.1293   32.1022 C.3     1  UNL1        0.0795
     32 C           7.9104   -2.4080   32.4354 C.3     1  UNL1        0.0264
     33 C           7.8859   -1.2397   33.3759 C.3     1  UNL1        0.0729
     34 C           6.5646    0.3756   34.9235 C.3     1  UNL1        0.0993
     35 N           3.1510    0.5860   38.8354 N.pl3   1  UNL1       -0.3426
     36 C           3.5537    0.9645   37.4409 C.ar    1  UNL1        0.1251
     37 C           4.8578    0.4808   36.8794 C.ar    1  UNL1        0.0310
     38 C           5.2605    0.8593   35.4849 C.ar    1  UNL1       -0.0018
     39 C           4.3590    1.7216   34.6519 C.ar    1  UNL1        0.0179
     40 C           3.0549    2.2052   35.2134 C.ar    1  UNL1        0.1000
     41 N           2.6522    1.8267   36.6079 N.ar    1  UNL1       -0.2296
     42 H           3.7426    0.0201   39.3821 H       1  UNL1        0.1437
     43 H           2.2950    0.9035   39.2038 H       1  UNL1        0.1437
@<TRIPOS>BOND
     1    35    36    1
     2    36    37   ar
     3    37    38   ar
     4    38    34    1
     5    34    28    1
     6    28    29    1
     7    29    30    1
     8    30    31    1
     9    31     1    1
    10     1     2    2
    11     1     3   am
    12     3     4    1
    13     4     5    1
    14     5     6    1
    15     6     9    1
    16     9    10   ar
    17    10    11    2
    18    10    12   ar
    19    12    20    1
    20    20    21   ar
    21    21    22   ar
    22    22    23    1
    23    22    24   ar
    24    24    25   ar
    25    25    26    1
    26    25    27   ar
    27    12    13   ar
    28    13    14   ar
    29    14    15   ar
    30    15    16    1
    31    15    17   ar
    32    17    18   ar
    33    18    19   ar
    34     6     7    1
    35     7     8    1
    36    31    32    1
    37    32    33    1
    38    38    39   ar
    39    39    40   ar
    40    40    41   ar
    41    41    36   ar
    42    33    28    1
    43     8     3    1
    44    19     9   ar
    45    27    20   ar
    46    19    13   ar
    47    35    42    1
    48    35    43    1
@<TRIPOS>MOLECULE
*****
 43 48 0 0 0
SMALL
GASTEIGER

@<TRIPOS>ATOM
      1 C           0.9757    1.2975   28.7474 C.2     1  UNL1        0.2252
      2 O          -0.3906    1.7315   29.1886 O.2     1  UNL1       -0.2749
      3 N           1.2521    1.0539   27.2933 N.am    1  UNL1       -0.2794
      4 C           0.1622    1.2445   26.2806 C.3     1  UNL1        0.0953
      5 C           0.4386    1.0010   24.8265 C.3     1  UNL1        0.0442
      6 C           1.8050    0.5669   24.3852 C.3     1  UNL1        0.0933
      7 C           2.8948    0.3764   25.3980 C.3     1  UNL1        0.0442
      8 C           2.6184    0.6199   26.8520 C.3     1  UNL1        0.0953
      9 N           2.0814    0.3234   22.9311 N.ar    1  UNL1       -0.2814
     10 C           3.0782   -0.6492   22.3739 C.ar    1  UNL1        0.3354
     11 O           3.9737   -1.5490   23.1730 O.2     1  UNL1       -0.2459
     12 N           3.0223   -0.5639   20.8774 N.ar    1  UNL1       -0.2587
     13 C           1.9909    0.4613   20.5097 C.ar    1  UNL1        0.0863
     14 C           1.5062    0.9663   19.1831 C.ar    1  UNL1        0.0487
     15 C           0.4399    2.0198   19.1257 C.ar    1  UNL1        0.1417
     16 F          -0.0449    2.5248   17.7991 F       1  UNL1       -0.2041
     17 C          -0.1416    2.5681   20.3950 C.ar    1  UNL1        0.0312
     18 C           0.3431    2.0631   21.7216 C.ar    1  UNL1        0.0211
     19 C           1.4094    1.0097   21.7790 C.ar    1  UNL1        0.0801
     20 C           3.8521   -1.3635   19.9171 C.ar    1  UNL1        0.0727
     21 C           4.9028   -0.6852   19.0887 C.ar    1  UNL1        0.0474
     22 C           5.7326   -1.4848   18.1284 C.ar    1  UNL1        0.1438
     23 F           6.7832   -0.8066   17.3001 F       1  UNL1       -0.2040
     24 C           5.5118   -2.9626   17.9965 C.ar    1  UNL1        0.0593
     25 C           4.4611   -3.6408   18.8249 C.ar    1  UNL1        0.1438
     26 F           4.2403   -5.1185   18.6930 F       1  UNL1       -0.2040
     27 C           3.6313   -2.8412   19.7852 C.ar    1  UNL1        0.0474
     28 N           4.2456    0.7259   31.7857 N.3     1  UNL1       -0.2689
     29 C           3.3510   -0.4219   31.4216 C.3     1  UNL1        0.0729
     30 C           2.2611   -0.2314   30.4089 C.3     1  UNL1        0.0264
     31 C           2.0657    1.1069   29.7602 C.3     1  UNL1        0.0795
     32 C           2.9602    2.2547   30.1242 C.3     1  UNL1        0.0264
     33 C           4.0501    2.0642   31.1370 C.3     1  UNL1        0.0729
     34 C           5.3355    0.5354   32.7985 C.3     1  UNL1        0.0993
     35 N           2.3744    2.2796   36.6959 N.pl3   1  UNL1       -0.3426
     36 C           3.5360    1.4633   36.2117 C.ar    1  UNL1        0.1251
     37 C           3.8550    1.4075   34.7471 C.ar    1  UNL1        0.0310
     38 C           5.0165    0.5911   34.2631 C.ar    1  UNL1       -0.0018
     39 C           5.8591   -0.1696   35.2437 C.ar    1  UNL1        0.0179
     40 C           5.5401   -0.1138   36.7083 C.ar    1  UNL1        0.1000
     41 N           4.3785    0.7026   37.1923 N.ar    1  UNL1       -0.2296
     42 H           1.8214    2.7789   36.0523 H       1  UNL1        0.1437
     43 H           2.1651    2.3162   37.6571 H       1  UNL1        0.1437
@<TRIPOS>BOND
     1    35    36    1
     2    36    37   ar
     3    37    38   ar
     4    38    34    1
     5    34    28    1
     6    28    29    1
     7    29    30    1
     8    30    31    1
     9    31     1    1
    10     1     2    2
    11     1     3   am
    12     3     4    1
    13     4     5    1
    14     5     6    1
    15     6     9    1
    16     9    10   ar
    17    10    11    2
    18    10    12   ar
    19    12    20    1
    20    20    21   ar
    21    21    22   ar
    22    22    23    1
    23    22    24   ar
    24    24    25   ar
    25    25    26    1
    26    25    27   ar
    27    12    13   ar
    28    13    14   ar
    29    14    15   ar
    30    15    16    1
    31    15    17   ar
    32    17    18   ar
    33    18    19   ar
    34     6     7    1
    35     7     8    1
    36    31    32    1
    37    32    33    1
    38    38    39   ar
    39    39    40   ar
    40    40    41   ar
    41    41    36   ar
    42    33    28    1
    43     8     3    1
    44    19     9   ar
    45    27    20   ar
    46    19    13   ar
    47    35    42    1
    48    35    43    1
@<TRIPOS>MOLECULE
*****
 43 48 0 0 0
SMALL
GASTEIGER

@<TRIPOS>ATOM
      1 C           7.1185   -4.2847   21.6786 C.2     1  UNL1        0.2252
      2 O           8.0215   -5.2695   20.9969 O.2     1  UNL1       -0.2749
      3 N           7.1227   -4.1741   23.1745 N.am    1  UNL1       -0.2794
      4 C           8.0297   -5.0483   23.9887 C.3     1  UNL1        0.0953
      5 C           8.0339   -4.9377   25.4846 C.3     1  UNL1        0.0442
      6 C           7.1309   -3.9528   26.1663 C.3     1  UNL1        0.0933
      7 C           6.2239   -3.0786   25.3521 C.3     1  UNL1        0.0442
      8 C           6.2197   -3.1892   23.8562 C.3     1  UNL1        0.0953
      9 N           7.1350   -3.8422   27.6623 N.ar    1  UNL1       -0.2814
     10 C           6.5651   -2.7099   28.4642 C.ar    1  UNL1        0.3354
     11 O           5.8909   -1.4894   27.9111 O.2     1  UNL1       -0.2459
     12 N           6.7877   -3.0125   29.9164 N.ar    1  UNL1       -0.2587
     13 C           7.4951   -4.3317   30.0120 C.ar    1  UNL1        0.0863
     14 C           7.9716   -5.1322   31.1876 C.ar    1  UNL1        0.0487
     15 C           8.6627   -6.4456   30.9700 C.ar    1  UNL1        0.1417
     16 F           9.1393   -7.2462   32.1457 F       1  UNL1       -0.2041
     17 C           8.8774   -6.9584   29.5769 C.ar    1  UNL1        0.0312
     18 C           8.4010   -6.1579   28.4013 C.ar    1  UNL1        0.0211
     19 C           7.7098   -4.8445   28.6188 C.ar    1  UNL1        0.0801
     20 C           6.3752   -2.1476   31.0705 C.ar    1  UNL1        0.0727
     21 C           5.3882   -2.6606   32.0770 C.ar    1  UNL1        0.0474
     22 C           4.9758   -1.7957   33.2311 C.ar    1  UNL1        0.1438
     23 F           3.9889   -2.3087   34.2375 F       1  UNL1       -0.2040
     24 C           5.5501   -0.4179   33.3787 C.ar    1  UNL1        0.0593
     25 C           6.5370    0.0950   32.3722 C.ar    1  UNL1        0.1438
     26 F           7.1114    1.4728   32.5199 F       1  UNL1       -0.2040
     27 C           6.9495   -0.7699   31.2182 C.ar    1  UNL1        0.0474
     28 N           4.3974   -1.6619   19.2360 N.3     1  UNL1       -0.2689
     29 C           5.6718   -1.1040   19.7970 C.3     1  UNL1        0.0729
     30 C           6.5789   -1.9783   20.6112 C.3     1  UNL1        0.0264
     31 C           6.2115   -3.4104   20.8644 C.3     1  UNL1        0.0795
     32 C           4.9371   -3.9683   20.3034 C.3     1  UNL1        0.0264
     33 C           4.0300   -3.0940   19.4892 C.3     1  UNL1        0.0729
     34 C           3.4903   -0.7877   18.4218 C.3     1  UNL1        0.0993
     35 N          -0.0571    3.0075   18.5348 N.pl3   1  UNL1       -0.3426
     36 C           0.5213    1.7521   19.1176 C.ar    1  UNL1        0.1251
     37 C           1.7166    1.1099   18.4783 C.ar    1  UNL1        0.0310
     38 C           2.2950   -0.1454   19.0612 C.ar    1  UNL1       -0.0018
     39 C           1.6782   -0.7584   20.2834 C.ar    1  UNL1        0.0179
     40 C           0.4829   -0.1161   20.9227 C.ar    1  UNL1        0.1000
     41 N          -0.0955    1.1392   20.3398 N.ar    1  UNL1       -0.2296
     42 H           0.3477    3.4098   17.7327 H       1  UNL1        0.1437
     43 H          -0.8417    3.4290   18.9545 H       1  UNL1        0.1437
@<TRIPOS>BOND
     1    35    36    1
     2    36    37   ar
     3    37    38   ar
     4    38    34    1
     5    34    28    1
     6    28    29    1
     7    29    30    1
     8    30    31    1
     9    31     1    1
    10     1     2    2
    11     1     3   am
    12     3     4    1
    13     4     5    1
    14     5     6    1
    15     6     9    1
    16     9    10   ar
    17    10    11    2
    18    10    12   ar
    19    12    20    1
    20    20    21   ar
    21    21    22   ar
    22    22    23    1
    23    22    24   ar
    24    24    25   ar
    25    25    26    1
    26    25    27   ar
    27    12    13   ar
    28    13    14   ar
    29    14    15   ar
    30    15    16    1
    31    15    17   ar
    32    17    18   ar
    33    18    19   ar
    34     6     7    1
    35     7     8    1
    36    31    32    1
    37    32    33    1
    38    38    39   ar
    39    39    40   ar
    40    40    41   ar
    41    41    36   ar
    42    33    28    1
    43     8     3    1
    44    19     9   ar
    45    27    20   ar
    46    19    13   ar
    47    35    42    1
    48    35    43    1
@<TRIPOS>MOLECULE
*****
 43 48 0 0 0
SMALL
GASTEIGER

@<TRIPOS>ATOM
      1 C           0.0573    0.9545   28.2283 C.2     1  UNL1        0.2252
      2 O          -1.4245    0.9621   28.4608 O.2     1  UNL1       -0.2749
      3 N           0.6021    1.2104   26.8544 N.am    1  UNL1       -0.2794
      4 C          -0.3348    1.4739   25.7131 C.3     1  UNL1        0.0953
      5 C           0.2100    1.7297   24.3392 C.3     1  UNL1        0.0442
      6 C           1.6920    1.7222   24.1066 C.3     1  UNL1        0.0933
      7 C           2.6288    1.4588   25.2479 C.3     1  UNL1        0.0442
      8 C           2.0840    1.2029   26.6218 C.3     1  UNL1        0.0953
      9 N           2.2368    1.9781   22.7327 N.ar    1  UNL1       -0.2814
     10 C           3.0073    1.0020   21.8938 C.ar    1  UNL1        0.3354
     11 O           3.3683   -0.4013   22.2816 O.2     1  UNL1       -0.2459
     12 N           3.3535    1.6757   20.5991 N.ar    1  UNL1       -0.2587
     13 C           2.7970    3.0682   20.6378 C.ar    1  UNL1        0.0863
     14 C           2.8295    4.1900   19.6426 C.ar    1  UNL1        0.0487
     15 C           2.1719    5.4987   19.9661 C.ar    1  UNL1        0.1417
     16 F           2.2043    6.6207   18.9709 F       1  UNL1       -0.2041
     17 C           1.4817    5.6856   21.2847 C.ar    1  UNL1        0.0312
     18 C           1.4492    4.5638   22.2799 C.ar    1  UNL1        0.0211
     19 C           2.1068    3.2550   21.9564 C.ar    1  UNL1        0.0801
     20 C           4.1214    1.0644   19.4649 C.ar    1  UNL1        0.0727
     21 C           5.6111    1.2257   19.3946 C.ar    1  UNL1        0.0474
     22 C           6.3791    0.6144   18.2603 C.ar    1  UNL1        0.1438
     23 F           7.8687    0.7758   18.1901 F       1  UNL1       -0.2040
     24 C           5.6573   -0.1583   17.1963 C.ar    1  UNL1        0.0593
     25 C           4.1677   -0.3197   17.2666 C.ar    1  UNL1        0.1438
     26 F           3.4460   -1.0924   16.2027 F       1  UNL1       -0.2040
     27 C           3.3998    0.2917   18.4009 C.ar    1  UNL1        0.0474
     28 N           2.8682    0.1643   31.6524 N.3     1  UNL1       -0.2689
     29 C           2.7801   -0.8090   30.5143 C.3     1  UNL1        0.0729
     30 C           1.8432   -0.5456   29.3730 C.3     1  UNL1        0.0264
     31 C           0.9943    0.6911   29.3697 C.3     1  UNL1        0.0795
     32 C           1.0823    1.6644   30.5077 C.3     1  UNL1        0.0264
     33 C           2.0193    1.4009   31.6490 C.3     1  UNL1        0.0729
     34 C           3.8052   -0.0992   32.7937 C.3     1  UNL1        0.0993
     35 N           6.1217   -4.7466   32.6075 N.pl3   1  UNL1       -0.3426
     36 C           6.1936   -3.2534   32.4847 C.ar    1  UNL1        0.1251
     37 C           4.9634   -2.4228   32.7006 C.ar    1  UNL1        0.0310
     38 C           5.0355   -0.9296   32.5778 C.ar    1  UNL1       -0.0018
     39 C           6.3378   -0.2669   32.2391 C.ar    1  UNL1        0.0179
     40 C           7.5680   -1.0974   32.0232 C.ar    1  UNL1        0.1000
     41 N           7.4960   -2.5907   32.1460 N.ar    1  UNL1       -0.2296
     42 H           5.2669   -5.1816   32.8299 H       1  UNL1        0.1437
     43 H           6.9292   -5.2917   32.4658 H       1  UNL1        0.1437
@<TRIPOS>BOND
     1    35    36    1
     2    36    37   ar
     3    37    38   ar
     4    38    34    1
     5    34    28    1
     6    28    29    1
     7    29    30    1
     8    30    31    1
     9    31     1    1
    10     1     2    2
    11     1     3   am
    12     3     4    1
    13     4     5    1
    14     5     6    1
    15     6     9    1
    16     9    10   ar
    17    10    11    2
    18    10    12   ar
    19    12    20    1
    20    20    21   ar
    21    21    22   ar
    22    22    23    1
    23    22    24   ar
    24    24    25   ar
    25    25    26    1
    26    25    27   ar
    27    12    13   ar
    28    13    14   ar
    29    14    15   ar
    30    15    16    1
    31    15    17   ar
    32    17    18   ar
    33    18    19   ar
    34     6     7    1
    35     7     8    1
    36    31    32    1
    37    32    33    1
    38    38    39   ar
    39    39    40   ar
    40    40    41   ar
    41    41    36   ar
    42    33    28    1
    43     8     3    1
    44    19     9   ar
    45    27    20   ar
    46    19    13   ar
    47    35    42    1
    48    35    43    1
@<TRIPOS>MOLECULE
*****
 43 48 0 0 0
SMALL
GASTEIGER

@<TRIPOS>ATOM
      1 C           6.6713   -3.9318   24.0472 C.2     1  UNL1        0.2252
      2 O           7.5810   -5.1239   24.0146 O.2     1  UNL1       -0.2749
      3 N           6.3076   -3.3015   25.3589 N.am    1  UNL1       -0.2794
      4 C           6.8536   -3.8635   26.6380 C.3     1  UNL1        0.0953
      5 C           6.4900   -3.2333   27.9497 C.3     1  UNL1        0.0442
      6 C           5.5802   -2.0410   27.9823 C.3     1  UNL1        0.0933
      7 C           5.0342   -1.4791   26.7033 C.3     1  UNL1        0.0442
      8 C           5.3979   -2.1094   25.3915 C.3     1  UNL1        0.0953
      9 N           5.2165   -1.4108   29.2940 N.ar    1  UNL1       -0.2814
     10 C           6.0402   -1.4452   30.5471 C.ar    1  UNL1        0.3354
     11 O           7.3721   -2.1159   30.7086 O.2     1  UNL1       -0.2459
     12 N           5.2980   -0.6912   31.6104 N.ar    1  UNL1       -0.2587
     13 C           4.0156   -0.1908   31.0145 C.ar    1  UNL1        0.0863
     14 C           2.8873    0.6124   31.5905 C.ar    1  UNL1        0.0487
     15 C           1.7087    0.9708   30.7348 C.ar    1  UNL1        0.1417
     16 F           0.5803    1.7740   31.3108 F       1  UNL1       -0.2041
     17 C           1.6583    0.5261   29.3031 C.ar    1  UNL1        0.0312
     18 C           2.7866   -0.2771   28.7271 C.ar    1  UNL1        0.0211
     19 C           3.9653   -0.6355   29.5828 C.ar    1  UNL1        0.0801
     20 C           5.7575   -0.4754   33.0219 C.ar    1  UNL1        0.0727
     21 C           4.7930   -0.6431   34.1586 C.ar    1  UNL1        0.0474
     22 C           5.2525   -0.4273   35.5701 C.ar    1  UNL1        0.1438
     23 F           4.2880   -0.5949   36.7066 F       1  UNL1       -0.2040
     24 C           6.6763   -0.0440   35.8450 C.ar    1  UNL1        0.0593
     25 C           7.6407    0.1237   34.7085 C.ar    1  UNL1        0.1438
     26 F           9.0646    0.5070   34.9834 F       1  UNL1       -0.2040
     27 C           7.1813   -0.0921   33.2969 C.ar    1  UNL1        0.0474
     28 N           5.0331   -2.2459   20.2100 N.3     1  UNL1       -0.2689
     29 C           6.3299   -1.7319   20.7618 C.3     1  UNL1        0.0729
     30 C           6.8759   -2.2939   22.0409 C.3     1  UNL1        0.0264
     31 C           6.1252   -3.3698   22.7681 C.3     1  UNL1        0.0795
     32 C           4.8285   -3.8838   22.2164 C.3     1  UNL1        0.0264
     33 C           4.2825   -3.3218   20.9373 C.3     1  UNL1        0.0729
     34 C           4.4871   -1.6839   18.9309 C.3     1  UNL1        0.0993
     35 N          -0.1707   -0.0225   20.5262 N.pl3   1  UNL1       -0.3426
     36 C           1.1021    0.2112   19.7675 C.ar    1  UNL1        0.1251
     37 C           2.1583   -0.8532   19.7286 C.ar    1  UNL1        0.0310
     38 C           3.4310   -0.6195   18.9699 C.ar    1  UNL1       -0.0018
     39 C           3.6475    0.6786   18.2502 C.ar    1  UNL1        0.0179
     40 C           2.5913    1.7430   18.2891 C.ar    1  UNL1        0.1000
     41 N           1.3186    1.5093   19.0478 N.ar    1  UNL1       -0.2296
     42 H          -0.3128   -0.8745   20.9986 H       1  UNL1        0.1437
     43 H          -0.8639    0.6761   20.5518 H       1  UNL1        0.1437
@<TRIPOS>BOND
     1    35    36    1
     2    36    37   ar
     3    37    38   ar
     4    38    34    1
     5    34    28    1
     6    28    29    1
     7    29    30    1
     8    30    31    1
     9    31     1    1
    10     1     2    2
    11     1     3   am
    12     3     4    1
    13     4     5    1
    14     5     6    1
    15     6     9    1
    16     9    10   ar
    17    10    11    2
    18    10    12   ar
    19    12    20    1
    20    20    21   ar
    21    21    22   ar
    22    22    23    1
    23    22    24   ar
    24    24    25   ar
    25    25    26    1
    26    25    27   ar
    27    12    13   ar
    28    13    14   ar
    29    14    15   ar
    30    15    16    1
    31    15    17   ar
    32    17    18   ar
    33    18    19   ar
    34     6     7    1
    35     7     8    1
    36    31    32    1
    37    32    33    1
    38    38    39   ar
    39    39    40   ar
    40    40    41   ar
    41    41    36   ar
    42    33    28    1
    43     8     3    1
    44    19     9   ar
    45    27    20   ar
    46    19    13   ar
    47    35    42    1
    48    35    43    1
@<TRIPOS>MOLECULE
*****
 43 48 0 0 0
SMALL
GASTEIGER

@<TRIPOS>ATOM
      1 C           0.7724    1.1260   28.5448 C.2     1  UNL1        0.2252
      2 O          -0.5729    1.3404   29.1727 O.2     1  UNL1       -0.2749
      3 N           0.9324    1.2386   27.0576 N.am    1  UNL1       -0.2794
      4 C          -0.2529    1.5655   26.1984 C.3     1  UNL1        0.0953
      5 C          -0.0929    1.6780   24.7112 C.3     1  UNL1        0.0442
      6 C           1.2524    1.4637   24.0832 C.3     1  UNL1        0.0933
      7 C           2.4376    1.1368   24.9424 C.3     1  UNL1        0.0442
      8 C           2.2776    1.0243   26.4296 C.3     1  UNL1        0.0953
      9 N           1.4124    1.5762   22.5960 N.ar    1  UNL1       -0.2814
     10 C           0.9552    2.7233   21.7443 C.ar    1  UNL1        0.3354
     11 O           0.2579    3.9592   22.2303 O.2     1  UNL1       -0.2459
     12 N           1.3179    2.4174   20.3214 N.ar    1  UNL1       -0.2587
     13 C           1.9992    1.0814   20.2935 C.ar    1  UNL1        0.0863
     14 C           2.5740    0.2710   19.1697 C.ar    1  UNL1        0.0487
     15 C           3.2071   -1.0592   19.4518 C.ar    1  UNL1        0.1417
     16 F           3.7819   -1.8696   18.3279 F       1  UNL1       -0.2041
     17 C           3.2655   -1.5791   20.8576 C.ar    1  UNL1        0.0312
     18 C           2.6907   -0.7688   21.9814 C.ar    1  UNL1        0.0211
     19 C           2.0576    0.5615   21.6993 C.ar    1  UNL1        0.0801
     20 C           1.0469    3.2938   19.1345 C.ar    1  UNL1        0.0727
     21 C          -0.2555    3.1790   18.3992 C.ar    1  UNL1        0.0474
     22 C          -0.5266    4.0553   17.2124 C.ar    1  UNL1        0.1438
     23 F          -1.8289    3.9405   16.4772 F       1  UNL1       -0.2040
     24 C           0.5048    5.0464   16.7608 C.ar    1  UNL1        0.0593
     25 C           1.8072    5.1612   17.4960 C.ar    1  UNL1        0.1438
     26 F           2.8386    6.1523   17.0445 F       1  UNL1       -0.2040
     27 C           2.0782    4.2849   18.6829 C.ar    1  UNL1        0.0474
     28 N           4.3282    0.1454   31.1224 N.3     1  UNL1       -0.2689
     29 C           4.1550    1.5331   30.5799 C.3     1  UNL1        0.0729
     30 C           2.9698    1.8600   29.7207 C.3     1  UNL1        0.0264
     31 C           1.9577    0.7992   29.4040 C.3     1  UNL1        0.0795
     32 C           2.1308   -0.5885   29.9465 C.3     1  UNL1        0.0264
     33 C           3.3161   -0.9154   30.8057 C.3     1  UNL1        0.0729
     34 C           5.5135   -0.1815   31.9817 C.3     1  UNL1        0.0993
     35 N           6.4384   -5.2613   32.5648 N.pl3   1  UNL1       -0.3426
     36 C           6.8080   -3.9330   31.9739 C.ar    1  UNL1        0.1251
     37 C           5.9759   -2.7214   32.2732 C.ar    1  UNL1        0.0310
     38 C           6.3455   -1.3931   31.6823 C.ar    1  UNL1       -0.0018
     39 C           7.5472   -1.2765   30.7921 C.ar    1  UNL1        0.0179
     40 C           8.3792   -2.4881   30.4928 C.ar    1  UNL1        0.1000
     41 N           8.0096   -3.8164   31.0837 N.ar    1  UNL1       -0.2296
     42 H           5.6498   -5.3379   33.1490 H       1  UNL1        0.1437
     43 H           6.9846   -6.0565   32.3683 H       1  UNL1        0.1437
@<TRIPOS>BOND
     1    35    36    1
     2    36    37   ar
     3    37    38   ar
     4    38    34    1
     5    34    28    1
     6    28    29    1
     7    29    30    1
     8    30    31    1
     9    31     1    1
    10     1     2    2
    11     1     3   am
    12     3     4    1
    13     4     5    1
    14     5     6    1
    15     6     9    1
    16     9    10   ar
    17    10    11    2
    18    10    12   ar
    19    12    20    1
    20    20    21   ar
    21    21    22   ar
    22    22    23    1
    23    22    24   ar
    24    24    25   ar
    25    25    26    1
    26    25    27   ar
    27    12    13   ar
    28    13    14   ar
    29    14    15   ar
    30    15    16    1
    31    15    17   ar
    32    17    18   ar
    33    18    19   ar
    34     6     7    1
    35     7     8    1
    36    31    32    1
    37    32    33    1
    38    38    39   ar
    39    39    40   ar
    40    40    41   ar
    41    41    36   ar
    42    33    28    1
    43     8     3    1
    44    19     9   ar
    45    27    20   ar
    46    19    13   ar
    47    35    42    1
    48    35    43    1
@<TRIPOS>MOLECULE
*****
 43 48 0 0 0
SMALL
GASTEIGER

@<TRIPOS>ATOM
      1 C           0.9772    1.2517   29.8776 C.2     1  UNL1        0.2252
      2 O          -0.1914    1.5692   30.7626 O.2     1  UNL1       -0.2749
      3 N           0.8461    1.3771   28.3886 N.am    1  UNL1       -0.2794
      4 C          -0.4536    1.8199   27.7847 C.3     1  UNL1        0.0953
      5 C          -0.5847    1.9453   26.2957 C.3     1  UNL1        0.0442
      6 C           0.5840    1.6279   25.4105 C.3     1  UNL1        0.0933
      7 C           1.8836    1.1851   26.0144 C.3     1  UNL1        0.0442
      8 C           2.0147    1.0597   27.5034 C.3     1  UNL1        0.0953
      9 N           0.4529    1.7533   23.9215 N.ar    1  UNL1       -0.2814
     10 C          -0.4388    2.7145   23.1928 C.ar    1  UNL1        0.3354
     11 O          -1.3559    3.7191   23.8251 O.2     1  UNL1       -0.2459
     12 N          -0.2523    2.4947   21.7208 N.ar    1  UNL1       -0.2587
     13 C           0.7546    1.3977   21.5397 C.ar    1  UNL1        0.0863
     14 C           1.3309    0.7569   20.3121 C.ar    1  UNL1        0.0487
     15 C           2.3430   -0.3422   20.4446 C.ar    1  UNL1        0.1417
     16 F           2.9193   -0.9831   19.2169 F       1  UNL1       -0.2041
     17 C           2.7788   -0.8004   21.8048 C.ar    1  UNL1        0.0312
     18 C           2.2025   -0.1596   23.0324 C.ar    1  UNL1        0.0211
     19 C           1.1904    0.9395   22.8999 C.ar    1  UNL1        0.0801
     20 C          -0.9502    3.2409   20.6225 C.ar    1  UNL1        0.0727
     21 C          -0.1557    4.0661   19.6539 C.ar    1  UNL1        0.0474
     22 C          -0.8536    4.8123   18.5557 C.ar    1  UNL1        0.1438
     23 F          -0.0591    5.6374   17.5872 F       1  UNL1       -0.2040
     24 C          -2.3459    4.7334   18.4260 C.ar    1  UNL1        0.0593
     25 C          -3.1403    3.9083   19.3945 C.ar    1  UNL1        0.1438
     26 F          -4.6326    3.8294   19.2648 F       1  UNL1       -0.2040
     27 C          -2.4424    3.1621   20.4928 C.ar    1  UNL1        0.0474
     28 N           4.8764   -0.0767   31.6890 N.3     1  UNL1       -0.2689
     29 C           4.5913    1.3853   31.5116 C.3     1  UNL1        0.0729
     30 C           3.2916    1.8281   30.9078 C.3     1  UNL1        0.0264
     31 C           2.2769    0.8089   30.4814 C.3     1  UNL1        0.0795
     32 C           2.5620   -0.6530   30.6588 C.3     1  UNL1        0.0264
     33 C           3.8617   -1.0958   31.2626 C.3     1  UNL1        0.0729
     34 C           6.1761   -0.5195   32.2928 C.3     1  UNL1        0.0993
     35 N           6.6374   -5.6950   32.3264 N.pl3   1  UNL1       -0.3426
     36 C           7.0769   -4.3549   31.8155 C.ar    1  UNL1        0.1251
     37 C           6.4068   -3.1072   32.3096 C.ar    1  UNL1        0.0310
     38 C           6.8463   -1.7671   31.7986 C.ar    1  UNL1       -0.0018
     39 C           7.9559   -1.6747   30.7935 C.ar    1  UNL1        0.0179
     40 C           8.6260   -2.9224   30.2994 C.ar    1  UNL1        0.1000
     41 N           8.1865   -4.2625   30.8104 N.ar    1  UNL1       -0.2296
     42 H           5.9091   -5.7557   32.9860 H       1  UNL1        0.1437
     43 H           7.0773   -6.5139   32.0020 H       1  UNL1        0.1437
@<TRIPOS>BOND
     1    35    36    1
     2    36    37   ar
     3    37    38   ar
     4    38    34    1
     5    34    28    1
     6    28    29    1
     7    29    30    1
     8    30    31    1
     9    31     1    1
    10     1     2    2
    11     1     3   am
    12     3     4    1
    13     4     5    1
    14     5     6    1
    15     6     9    1
    16     9    10   ar
    17    10    11    2
    18    10    12   ar
    19    12    20    1
    20    20    21   ar
    21    21    22   ar
    22    22    23    1
    23    22    24   ar
    24    24    25   ar
    25    25    26    1
    26    25    27   ar
    27    12    13   ar
    28    13    14   ar
    29    14    15   ar
    30    15    16    1
    31    15    17   ar
    32    17    18   ar
    33    18    19   ar
    34     6     7    1
    35     7     8    1
    36    31    32    1
    37    32    33    1
    38    38    39   ar
    39    39    40   ar
    40    40    41   ar
    41    41    36   ar
    42    33    28    1
    43     8     3    1
    44    19     9   ar
    45    27    20   ar
    46    19    13   ar
    47    35    42    1
    48    35    43    1
