@<TRIPOS>MOLECULE
*****
 16 17 0 0 0
SMALL
GASTEIGER

@<TRIPOS>ATOM
      1 F          -5.1485  -15.0027   26.4033 F       1  UNL1       -0.2033
      2 C          -6.3145  -15.3930   25.5443 C.ar    1  UNL1        0.1506
      3 C          -6.1178  -15.6330   24.0768 C.ar    1  UNL1        0.0302
      4 C          -7.2840  -16.0234   23.2177 C.ar    1  UNL1       -0.0019
      5 C          -8.6467  -16.1737   23.8263 C.ar    1  UNL1       -0.0199
      6 C          -8.8433  -15.9337   25.2938 C.ar    1  UNL1        0.0094
      7 C          -7.6773  -15.5434   26.1529 C.ar    1  UNL1        0.0847
      8 CL         -7.8740  -15.3034   27.6205 Cl      1  UNL1       -0.0799
      9 C          -9.8128  -16.5641   22.9673 C.3     1  UNL1        0.0424
     10 C         -10.8665  -17.3943   23.6387 C.3     1  UNL1        0.0315
     11 C         -12.1387  -17.9381   23.0591 C.2     1  UNL1       -0.0289
     12 C         -12.6714  -17.7860   21.6653 C.2     1  UNL1       -0.0136
     13 C         -12.0635  -17.0525   20.5065 C.3     1  UNL1        0.0950
     14 N         -10.7728  -16.2900   20.4556 N.3     1  UNL1       -0.2935
     15 C          -9.7712  -16.0727   21.5508 C.3     1  UNL1        0.0735
     16 H         -11.0426  -15.3500   20.1658 H       1  UNL1        0.1236
@<TRIPOS>BOND
     1     1     2    1
     2     2     3   ar
     3     3     4   ar
     4     4     5   ar
     5     5     9    1
     6     9    10    1
     7    10    11    1
     8    11    12    2
     9    12    13    1
    10    13    14    1
    11    14    15    1
    12     5     6   ar
    13     6     7   ar
    14     7     8    1
    15     7     2   ar
    16    15     9    1
    17    14    16    1
@<TRIPOS>MOLECULE
*****
 16 17 0 0 0
SMALL
GASTEIGER

@<TRIPOS>ATOM
      1 F         -10.4193   -3.9388   19.0300 F       1  UNL1       -0.2033
      2 C         -11.5496   -4.9246   19.0113 C.ar    1  UNL1        0.1506
      3 C         -11.3515   -6.2812   18.4026 C.ar    1  UNL1        0.0302
      4 C         -12.4820   -7.2672   18.3839 C.ar    1  UNL1       -0.0019
      5 C         -13.8103   -6.8964   18.9738 C.ar    1  UNL1       -0.0199
      6 C         -14.0083   -5.5399   19.5824 C.ar    1  UNL1        0.0094
      7 C         -12.8780   -4.5539   19.6012 C.ar    1  UNL1        0.0847
      8 CL        -13.0761   -3.1973   20.2098 Cl      1  UNL1       -0.0799
      9 C         -14.9407   -7.8823   18.9551 C.3     1  UNL1        0.0424
     10 C         -16.2246   -7.4120   19.5721 C.3     1  UNL1        0.0315
     11 C         -17.5227   -8.1513   19.7082 C.2     1  UNL1       -0.0289
     12 C         -17.8573   -9.5434   19.2611 C.2     1  UNL1       -0.0136
     13 C         -16.9768  -10.5401   18.5674 C.3     1  UNL1        0.0950
     14 N         -15.5439  -10.3908   18.1495 N.3     1  UNL1       -0.2935
     15 C         -14.6378   -9.2079   18.3220 C.3     1  UNL1        0.0735
     16 H         -15.5519  -10.5620   17.1440 H       1  UNL1        0.1236
@<TRIPOS>BOND
     1     1     2    1
     2     2     3   ar
     3     3     4   ar
     4     4     5   ar
     5     5     9    1
     6     9    10    1
     7    10    11    1
     8    11    12    2
     9    12    13    1
    10    13    14    1
    11    14    15    1
    12     5     6   ar
    13     6     7   ar
    14     7     8    1
    15     7     2   ar
    16    15     9    1
    17    14    16    1
@<TRIPOS>MOLECULE
*****
 16 17 0 0 0
SMALL
GASTEIGER

@<TRIPOS>ATOM
      1 F          -9.9690   -3.9477   19.0070 F       1  UNL1       -0.2033
      2 C         -11.1633   -4.8552   18.9950 C.ar    1  UNL1        0.1506
      3 C         -12.5174   -4.3175   19.3518 C.ar    1  UNL1        0.0302
      4 C         -13.7118   -5.2251   19.3398 C.ar    1  UNL1       -0.0019
      5 C         -13.5519   -6.6702   18.9710 C.ar    1  UNL1       -0.0199
      6 C         -12.1978   -7.2078   18.6143 C.ar    1  UNL1        0.0094
      7 C         -11.0034   -6.3004   18.6263 C.ar    1  UNL1        0.0847
      8 CL         -9.6493   -6.8381   18.2695 Cl      1  UNL1       -0.0799
      9 C         -14.7461   -7.5777   18.9590 C.3     1  UNL1        0.0424
     10 C         -16.0147   -6.9912   19.5039 C.3     1  UNL1        0.0315
     11 C         -17.3644   -7.6339   19.6281 C.2     1  UNL1       -0.0289
     12 C         -17.7788   -9.0216   19.2381 C.2     1  UNL1       -0.0136
     13 C         -16.9460  -10.1096   18.6275 C.3     1  UNL1        0.0950
     14 N         -15.4931  -10.0784   18.2562 N.3     1  UNL1       -0.2935
     15 C         -14.5141   -8.9516   18.4038 C.3     1  UNL1        0.0735
     16 H         -15.4789  -10.3005   17.2607 H       1  UNL1        0.1236
@<TRIPOS>BOND
     1     1     2    1
     2     2     3   ar
     3     3     4   ar
     4     4     5   ar
     5     5     9    1
     6     9    10    1
     7    10    11    1
     8    11    12    2
     9    12    13    1
    10    13    14    1
    11    14    15    1
    12     5     6   ar
    13     6     7   ar
    14     7     8    1
    15     7     2   ar
    16    15     9    1
    17    14    16    1
@<TRIPOS>MOLECULE
*****
 16 17 0 0 0
SMALL
GASTEIGER

@<TRIPOS>ATOM
      1 F         -18.7568   -7.2481   19.7812 F       1  UNL1       -0.2033
      2 C         -17.3040   -6.9088   19.6254 C.ar    1  UNL1        0.1506
      3 C         -16.8571   -5.4783   19.6878 C.ar    1  UNL1        0.0302
      4 C         -15.4043   -5.1389   19.5320 C.ar    1  UNL1       -0.0019
      5 C         -14.3985   -6.2301   19.3139 C.ar    1  UNL1       -0.0199
      6 C         -14.8454   -7.6606   19.2515 C.ar    1  UNL1        0.0094
      7 C         -16.2982   -8.0000   19.4072 C.ar    1  UNL1        0.0847
      8 CL        -16.7451   -9.4305   19.3449 Cl      1  UNL1       -0.0799
      9 C         -12.9457   -5.8908   19.1581 C.3     1  UNL1        0.0424
     10 C         -12.0365   -7.0453   18.8567 C.3     1  UNL1        0.0315
     11 C         -10.5511   -7.0360   18.6471 C.2     1  UNL1       -0.0289
     12 C          -9.6084   -5.8701   18.6871 C.2     1  UNL1       -0.0136
     13 C          -9.9178   -4.4255   18.9465 C.3     1  UNL1        0.0950
     14 N         -11.2466   -3.7900   19.2301 N.3     1  UNL1       -0.2935
     15 C         -12.5941   -4.4422   19.3242 C.3     1  UNL1        0.0735
     16 H         -11.3540   -3.0857   18.5001 H       1  UNL1        0.1236
@<TRIPOS>BOND
     1     1     2    1
     2     2     3   ar
     3     3     4   ar
     4     4     5   ar
     5     5     9    1
     6     9    10    1
     7    10    11    1
     8    11    12    2
     9    12    13    1
    10    13    14    1
    11    14    15    1
    12     5     6   ar
    13     6     7   ar
    14     7     8    1
    15     7     2   ar
    16    15     9    1
    17    14    16    1
@<TRIPOS>MOLECULE
*****
 16 17 0 0 0
SMALL
GASTEIGER

@<TRIPOS>ATOM
      1 F         -18.8183   -6.7614   19.7329 F       1  UNL1       -0.2033
      2 C         -17.3454   -6.5184   19.5872 C.ar    1  UNL1        0.1506
      3 C         -16.4195   -7.6661   19.3126 C.ar    1  UNL1        0.0302
      4 C         -14.9464   -7.4231   19.1669 C.ar    1  UNL1       -0.0019
      5 C         -14.3994   -6.0324   19.2957 C.ar    1  UNL1       -0.0199
      6 C         -15.3253   -4.8847   19.5702 C.ar    1  UNL1        0.0094
      7 C         -16.7983   -5.1276   19.7160 C.ar    1  UNL1        0.0847
      8 CL        -17.7242   -3.9799   19.9905 Cl      1  UNL1       -0.0799
      9 C         -12.9264   -5.7894   19.1499 C.3     1  UNL1        0.0424
     10 C         -12.0907   -7.0039   18.8726 C.3     1  UNL1        0.0315
     11 C         -10.6060   -7.0929   18.6776 C.2     1  UNL1       -0.0289
     12 C          -9.5905   -5.9896   18.7118 C.2     1  UNL1       -0.0136
     13 C          -9.8086   -4.5247   18.9494 C.3     1  UNL1        0.0950
     14 N         -11.0963   -3.8013   19.2115 N.3     1  UNL1       -0.2935
     15 C         -12.4838   -4.3642   19.3007 C.3     1  UNL1        0.0735
     16 H         -11.1515   -3.1016   18.4714 H       1  UNL1        0.1236
@<TRIPOS>BOND
     1     1     2    1
     2     2     3   ar
     3     3     4   ar
     4     4     5   ar
     5     5     9    1
     6     9    10    1
     7    10    11    1
     8    11    12    2
     9    12    13    1
    10    13    14    1
    11    14    15    1
    12     5     6   ar
    13     6     7   ar
    14     7     8    1
    15     7     2   ar
    16    15     9    1
    17    14    16    1
@<TRIPOS>MOLECULE
*****
 16 17 0 0 0
SMALL
GASTEIGER

@<TRIPOS>ATOM
      1 F         -17.4218   -9.8604   18.4674 F       1  UNL1       -0.2033
      2 C         -16.2292   -8.9532   18.5355 C.ar    1  UNL1        0.1506
      3 C         -14.9519   -9.3409   17.8513 C.ar    1  UNL1        0.0302
      4 C         -13.7593   -8.4335   17.9194 C.ar    1  UNL1       -0.0019
      5 C         -13.8441   -7.1386   18.6716 C.ar    1  UNL1       -0.0199
      6 C         -15.1214   -6.7509   19.3558 C.ar    1  UNL1        0.0094
      7 C         -16.3140   -7.6582   19.2878 C.ar    1  UNL1        0.0847
      8 CL        -17.5913   -7.2705   19.9720 Cl      1  UNL1       -0.0799
      9 C         -12.6516   -6.2313   18.7397 C.3     1  UNL1        0.0424
     10 C         -11.3232   -6.9125   18.8867 C.3     1  UNL1        0.0315
     11 C          -9.9602   -6.2933   18.9821 C.2     1  UNL1       -0.0289
     12 C          -9.5890   -4.8403   18.9541 C.2     1  UNL1       -0.0136
     13 C         -10.4890   -3.6474   18.8237 C.3     1  UNL1        0.0950
     14 N         -11.9826   -3.6130   18.6892 N.3     1  UNL1       -0.2935
     15 C         -12.9450   -4.7630   18.6518 C.3     1  UNL1        0.0735
     16 H         -12.1491   -3.1120   17.8165 H       1  UNL1        0.1236
@<TRIPOS>BOND
     1     1     2    1
     2     2     3   ar
     3     3     4   ar
     4     4     5   ar
     5     5     9    1
     6     9    10    1
     7    10    11    1
     8    11    12    2
     9    12    13    1
    10    13    14    1
    11    14    15    1
    12     5     6   ar
    13     6     7   ar
    14     7     8    1
    15     7     2   ar
    16    15     9    1
    17    14    16    1
@<TRIPOS>MOLECULE
*****
 16 17 0 0 0
SMALL
GASTEIGER

@<TRIPOS>ATOM
      1 F         -19.2072   -9.4830   19.7160 F       1  UNL1       -0.2033
      2 C         -17.8524   -8.9012   19.4406 C.ar    1  UNL1        0.1506
      3 C         -17.5932   -7.4472   19.7025 C.ar    1  UNL1        0.0302
      4 C         -16.2383   -6.8654   19.4272 C.ar    1  UNL1       -0.0019
      5 C         -15.1426   -7.7376   18.8900 C.ar    1  UNL1       -0.0199
      6 C         -15.4017   -9.1916   18.6282 C.ar    1  UNL1        0.0094
      7 C         -16.7566   -9.7735   18.9035 C.ar    1  UNL1        0.0847
      8 CL        -17.0157  -11.2276   18.6416 Cl      1  UNL1       -0.0799
      9 C         -13.7877   -7.1558   18.6147 C.3     1  UNL1        0.0424
     10 C         -13.4113   -5.9628   19.4424 C.3     1  UNL1        0.0315
     11 C         -12.1425   -5.1633   19.4080 C.2     1  UNL1       -0.0289
     12 C         -10.9370   -5.3593   18.5373 C.2     1  UNL1       -0.0136
     13 C         -10.7023   -6.4032   17.4860 C.3     1  UNL1        0.0950
     14 N         -11.6152   -7.5090   17.0458 N.3     1  UNL1       -0.2935
     15 C         -12.9884   -7.8439   17.5482 C.3     1  UNL1        0.0735
     16 H         -11.0743   -8.3610   17.1935 H       1  UNL1        0.1236
@<TRIPOS>BOND
     1     1     2    1
     2     2     3   ar
     3     3     4   ar
     4     4     5   ar
     5     5     9    1
     6     9    10    1
     7    10    11    1
     8    11    12    2
     9    12    13    1
    10    13    14    1
    11    14    15    1
    12     5     6   ar
    13     6     7   ar
    14     7     8    1
    15     7     2   ar
    16    15     9    1
    17    14    16    1
@<TRIPOS>MOLECULE
*****
 16 17 0 0 0
SMALL
GASTEIGER

@<TRIPOS>ATOM
      1 F         -17.6105   -2.1146   19.9512 F       1  UNL1       -0.2033
      2 C         -16.3330   -2.8747   19.7517 C.ar    1  UNL1        0.1506
      3 C         -16.3227   -4.3696   19.8745 C.ar    1  UNL1        0.0302
      4 C         -15.0450   -5.1298   19.6750 C.ar    1  UNL1       -0.0019
      5 C         -13.7777   -4.3950   19.3527 C.ar    1  UNL1       -0.0199
      6 C         -13.7879   -2.9001   19.2299 C.ar    1  UNL1        0.0094
      7 C         -15.0655   -2.1399   19.4294 C.ar    1  UNL1        0.0847
      8 CL        -15.0758   -0.6450   19.3066 Cl      1  UNL1       -0.0799
      9 C         -12.5000   -5.1552   19.1532 C.3     1  UNL1        0.0424
     10 C         -11.2484   -4.3287   19.1276 C.3     1  UNL1        0.0315
     11 C          -9.8304   -4.7842   18.9482 C.2     1  UNL1       -0.0289
     12 C          -9.3140   -6.1784   18.7500 C.2     1  UNL1       -0.0136
     13 C         -10.0879   -7.4617   18.6824 C.3     1  UNL1        0.0950
     14 N         -11.5693   -7.6675   18.7961 N.3     1  UNL1       -0.2935
     15 C         -12.6428   -6.6409   19.0057 C.3     1  UNL1        0.0735
     16 H         -11.6782   -8.3142   19.5774 H       1  UNL1        0.1236
@<TRIPOS>BOND
     1     1     2    1
     2     2     3   ar
     3     3     4   ar
     4     4     5   ar
     5     5     9    1
     6     9    10    1
     7    10    11    1
     8    11    12    2
     9    12    13    1
    10    13    14    1
    11    14    15    1
    12     5     6   ar
    13     6     7   ar
    14     7     8    1
    15     7     2   ar
    16    15     9    1
    17    14    16    1
@<TRIPOS>MOLECULE
*****
 16 17 0 0 0
SMALL
GASTEIGER

@<TRIPOS>ATOM
      1 F         -19.8257   -6.9434   20.0093 F       1  UNL1       -0.2033
      2 C         -18.3499   -6.8461   19.7593 C.ar    1  UNL1        0.1506
      3 C         -17.5078   -8.0873   19.7475 C.ar    1  UNL1        0.0302
      4 C         -16.0319   -7.9899   19.4975 C.ar    1  UNL1       -0.0019
      5 C         -15.3983   -6.6513   19.2594 C.ar    1  UNL1       -0.0199
      6 C         -16.2404   -5.4101   19.2713 C.ar    1  UNL1        0.0094
      7 C         -17.7163   -5.5074   19.5212 C.ar    1  UNL1        0.0847
      8 CL        -18.5584   -4.2662   19.5331 Cl      1  UNL1       -0.0799
      9 C         -13.9225   -6.5539   19.0095 C.3     1  UNL1        0.0424
     10 C         -13.2606   -5.3004   19.5005 C.3     1  UNL1        0.0315
     11 C         -11.8164   -4.9063   19.4048 C.2     1  UNL1       -0.0289
     12 C         -10.6776   -5.6681   18.7946 C.2     1  UNL1       -0.0136
     13 C         -10.7014   -7.0123   18.1293 C.3     1  UNL1        0.0950
     14 N         -11.8701   -7.9266   17.9099 N.3     1  UNL1       -0.2935
     15 C         -13.3036   -7.7225   18.3017 C.3     1  UNL1        0.0735
     16 H         -11.6019   -8.7982   18.3669 H       1  UNL1        0.1236
@<TRIPOS>BOND
     1     1     2    1
     2     2     3   ar
     3     3     4   ar
     4     4     5   ar
     5     5     9    1
     6     9    10    1
     7    10    11    1
     8    11    12    2
     9    12    13    1
    10    13    14    1
    11    14    15    1
    12     5     6   ar
    13     6     7   ar
    14     7     8    1
    15     7     2   ar
    16    15     9    1
    17    14    16    1
