@<TRIPOS>MOLECULE
*****
 30 33 0 0 0
SMALL
GASTEIGER

@<TRIPOS>ATOM
      1 C           0.6909    1.6464   19.3012 C.3     1  UNL1        0.0086
      2 C           2.0626    1.5702   18.6991 C.3     1  UNL1        0.0008
      3 C           2.9264    0.3699   18.9503 C.3     1  UNL1        0.0044
      4 C           2.4184   -0.7543   19.8036 C.3     1  UNL1        0.0224
      5 C           1.0467   -0.6782   20.4057 C.3     1  UNL1        0.0044
      6 C           0.1829    0.5222   20.1545 C.3     1  UNL1        0.0008
      7 C           3.2823   -1.9547   20.0548 C.ar    1  UNL1       -0.0194
      8 C           3.5628   -2.9225   18.9437 C.ar    1  UNL1        0.0164
      9 C           4.4266   -4.1228   19.1949 C.ar    1  UNL1        0.0985
     10 N           5.0098   -4.3552   20.5572 N.ar    1  UNL1       -0.2439
     11 C           4.7293   -3.3874   21.6683 C.ar    1  UNL1        0.0811
     12 C           5.3125   -3.6198   23.0306 C.ar    1  UNL1        0.0214
     13 C           5.0319   -2.6520   24.1416 C.ar    1  UNL1        0.0312
     14 C           4.1681   -1.4516   23.8905 C.ar    1  UNL1        0.1402
     15 F           3.8875   -0.4838   25.0015 F       1  UNL1       -0.2042
     16 C           3.5849   -1.2192   22.5282 C.ar    1  UNL1        0.0308
     17 C           3.8655   -2.1871   21.4171 C.ar    1  UNL1        0.0160
     18 C          -0.0856    3.5725   17.7403 C.3     1  UNL1        0.0096
     19 C          -0.1729    2.8467   19.0500 C.3     1  UNL1        0.0768
     20 C          -1.1239    3.3211   20.1085 C.2     1  UNL1        0.2256
     21 O          -0.6246    3.5991   21.4954 O.2     1  UNL1       -0.2748
     22 N          -2.5742    3.5176   19.7802 N.am    1  UNL1       -0.2839
     23 H          -2.9020    3.3352   18.8700 H       1  UNL1        0.1549
     24 C          -3.5253    3.9920   20.8388 C.ar    1  UNL1        0.0504
     25 C          -4.3912    3.0061   21.5655 C.ar    1  UNL1        0.0155
     26 C          -5.3422    3.4805   22.6241 C.ar    1  UNL1        0.0127
     27 C          -5.4273    4.9409   22.9558 C.ar    1  UNL1        0.0578
     28 CL         -6.3783    5.4154   24.0144 Cl      1  UNL1       -0.0822
     29 C          -4.5614    5.9268   22.2291 C.ar    1  UNL1        0.0127
     30 C          -3.6104    5.4524   21.1706 C.ar    1  UNL1        0.0155
@<TRIPOS>BOND
     1    19    18    1
     2    19    20    1
     3    20    21    2
     4    20    22   am
     5    22    24    1
     6    24    25   ar
     7    25    26   ar
     8    26    27   ar
     9    27    28    1
    10    27    29   ar
    11    29    30   ar
    12    19     1    1
    13     1     2    1
    14     2     3    1
    15     3     4    1
    16     4     7    1
    17     7     8   ar
    18     8     9   ar
    19     9    10   ar
    20    10    11   ar
    21    11    12   ar
    22    12    13   ar
    23    13    14   ar
    24    14    15    1
    25    14    16   ar
    26    16    17   ar
    27     4     5    1
    28     5     6    1
    29    30    24   ar
    30     6     1    1
    31    17     7   ar
    32    17    11   ar
    33    22    23    1
@<TRIPOS>MOLECULE
*****
 30 33 0 0 0
SMALL
GASTEIGER

@<TRIPOS>ATOM
      1 C           0.7241    1.5308   19.7563 C.3     1  UNL1        0.0086
      2 C           2.1088    1.6987   19.2042 C.3     1  UNL1        0.0008
      3 C           3.0776    0.5545   19.2484 C.3     1  UNL1        0.0044
      4 C           2.6619   -0.7577   19.8446 C.3     1  UNL1        0.0224
      5 C           1.2774   -0.9256   20.3966 C.3     1  UNL1        0.0044
      6 C           0.3084    0.2187   20.3525 C.3     1  UNL1        0.0008
      7 C           3.6308   -1.9020   19.8887 C.ar    1  UNL1       -0.0194
      8 C           4.0174   -2.6066   18.6223 C.ar    1  UNL1        0.0164
      9 C           4.9863   -3.7509   18.6665 C.ar    1  UNL1        0.0985
     10 N           5.5686   -4.1904   19.9771 N.ar    1  UNL1       -0.2439
     11 C           5.1820   -3.4858   21.2435 C.ar    1  UNL1        0.0811
     12 C           5.7643   -3.9253   22.5542 C.ar    1  UNL1        0.0214
     13 C           5.3776   -3.2206   23.8206 C.ar    1  UNL1        0.0312
     14 C           4.4087   -2.0764   23.7765 C.ar    1  UNL1        0.1402
     15 F           4.0221   -1.3717   25.0429 F       1  UNL1       -0.2042
     16 C           3.8264   -1.6368   22.4658 C.ar    1  UNL1        0.0308
     17 C           4.2131   -2.3415   21.1994 C.ar    1  UNL1        0.0160
     18 C          -0.2873    3.5758   18.5135 C.3     1  UNL1        0.0096
     19 C          -0.2447    2.6751   19.7121 C.3     1  UNL1        0.0768
     20 C          -1.1709    2.9186   20.8666 C.2     1  UNL1        0.2256
     21 O          -2.6408    2.6602   20.7163 O.2     1  UNL1       -0.2748
     22 N          -0.6273    3.4204   22.1714 N.am    1  UNL1       -0.2839
     23 H           0.3375    3.5899   22.2701 H       1  UNL1        0.1549
     24 C          -1.5535    3.6638   23.3259 C.ar    1  UNL1        0.0504
     25 C          -1.2925    3.0060   24.6485 C.ar    1  UNL1        0.0155
     26 C          -2.2187    3.2495   25.8030 C.ar    1  UNL1        0.0127
     27 C          -3.4060    4.1508   25.6348 C.ar    1  UNL1        0.0578
     28 CL         -4.3322    4.3943   26.7893 Cl      1  UNL1       -0.0822
     29 C          -3.6669    4.8086   24.3123 C.ar    1  UNL1        0.0127
     30 C          -2.7407    4.5651   23.1578 C.ar    1  UNL1        0.0155
@<TRIPOS>BOND
     1    19    18    1
     2    19    20    1
     3    20    21    2
     4    20    22   am
     5    22    24    1
     6    24    25   ar
     7    25    26   ar
     8    26    27   ar
     9    27    28    1
    10    27    29   ar
    11    29    30   ar
    12    19     1    1
    13     1     2    1
    14     2     3    1
    15     3     4    1
    16     4     7    1
    17     7     8   ar
    18     8     9   ar
    19     9    10   ar
    20    10    11   ar
    21    11    12   ar
    22    12    13   ar
    23    13    14   ar
    24    14    15    1
    25    14    16   ar
    26    16    17   ar
    27     4     5    1
    28     5     6    1
    29    30    24   ar
    30     6     1    1
    31    17     7   ar
    32    17    11   ar
    33    22    23    1
@<TRIPOS>MOLECULE
*****
 30 33 0 0 0
SMALL
GASTEIGER

@<TRIPOS>ATOM
      1 C         -12.5751   -4.8325   18.2648 C.3     1  UNL1        0.0086
      2 C         -13.2414   -4.2621   17.0478 C.3     1  UNL1        0.0008
      3 C         -13.4218   -2.7788   16.9173 C.3     1  UNL1        0.0044
      4 C         -12.9360   -1.8657   18.0037 C.3     1  UNL1        0.0224
      5 C         -12.2698   -2.4359   19.2206 C.3     1  UNL1        0.0044
      6 C         -12.0893   -3.9193   19.3512 C.3     1  UNL1        0.0008
      7 C         -13.1165   -0.3823   17.8731 C.ar    1  UNL1       -0.0194
      8 C         -12.1106    0.4317   17.1143 C.ar    1  UNL1        0.0164
      9 C         -12.2911    1.9150   16.9838 C.ar    1  UNL1        0.0985
     10 N         -13.4774    2.5844   17.6120 N.ar    1  UNL1       -0.2439
     11 C         -14.4833    1.7704   18.3707 C.ar    1  UNL1        0.0811
     12 C         -15.6696    2.4398   18.9989 C.ar    1  UNL1        0.0214
     13 C         -16.6754    1.6259   19.7577 C.ar    1  UNL1        0.0312
     14 C         -16.4949    0.1424   19.8882 C.ar    1  UNL1        0.1402
     15 F         -17.5007   -0.6715   20.6470 F       1  UNL1       -0.2042
     16 C         -15.3086   -0.5269   19.2601 C.ar    1  UNL1        0.0308
     17 C         -14.3028    0.2871   18.5013 C.ar    1  UNL1        0.0160
     18 C         -11.0555   -6.8783   18.7693 C.3     1  UNL1        0.0096
     19 C         -12.3947   -6.3158   18.3954 C.3     1  UNL1        0.0768
     20 C         -13.5535   -7.2366   18.1519 C.2     1  UNL1        0.2256
     21 O         -13.4171   -8.3741   17.1837 O.2     1  UNL1       -0.2748
     22 N         -14.8488   -7.0199   18.8766 N.am    1  UNL1       -0.2839
     23 H         -14.9384   -6.2733   19.5121 H       1  UNL1        0.1549
     24 C         -16.0076   -7.9407   18.6332 C.ar    1  UNL1        0.0504
     25 C         -16.3268   -9.0222   19.6223 C.ar    1  UNL1        0.0155
     26 C         -17.4856   -9.9430   19.3789 C.ar    1  UNL1        0.0127
     27 C         -18.3253   -9.7823   18.1462 C.ar    1  UNL1        0.0578
     28 CL        -19.4841  -10.7031   17.9028 Cl      1  UNL1       -0.0822
     29 C         -18.0060   -8.7007   17.1572 C.ar    1  UNL1        0.0127
     30 C         -16.8472   -7.7799   17.4006 C.ar    1  UNL1        0.0155
@<TRIPOS>BOND
     1    19    18    1
     2    19    20    1
     3    20    21    2
     4    20    22   am
     5    22    24    1
     6    24    25   ar
     7    25    26   ar
     8    26    27   ar
     9    27    28    1
    10    27    29   ar
    11    29    30   ar
    12    19     1    1
    13     1     2    1
    14     2     3    1
    15     3     4    1
    16     4     7    1
    17     7     8   ar
    18     8     9   ar
    19     9    10   ar
    20    10    11   ar
    21    11    12   ar
    22    12    13   ar
    23    13    14   ar
    24    14    15    1
    25    14    16   ar
    26    16    17   ar
    27     4     5    1
    28     5     6    1
    29    30    24   ar
    30     6     1    1
    31    17     7   ar
    32    17    11   ar
    33    22    23    1
@<TRIPOS>MOLECULE
*****
 30 33 0 0 0
SMALL
GASTEIGER

@<TRIPOS>ATOM
      1 C           0.3511    2.1267   20.2448 C.3     1  UNL1        0.0086
      2 C           1.5634    2.6354   20.9671 C.3     1  UNL1        0.0008
      3 C           2.4983    1.6711   21.6348 C.3     1  UNL1        0.0044
      4 C           2.2211    0.1979   21.5802 C.3     1  UNL1        0.0224
      5 C           1.0089   -0.3109   20.8580 C.3     1  UNL1        0.0044
      6 C           0.0738    0.6535   20.1903 C.3     1  UNL1        0.0008
      7 C           3.1561   -0.7665   22.2479 C.ar    1  UNL1       -0.0194
      8 C           3.2239   -0.8308   23.7450 C.ar    1  UNL1        0.0164
      9 C           4.1588   -1.7951   24.4126 C.ar    1  UNL1        0.0985
     10 N           5.0260   -2.6952   23.5832 N.ar    1  UNL1       -0.2439
     11 C           4.9582   -2.6309   22.0862 C.ar    1  UNL1        0.0811
     12 C           5.8254   -3.5309   21.2568 C.ar    1  UNL1        0.0214
     13 C           5.7576   -3.4666   19.7597 C.ar    1  UNL1        0.0312
     14 C           4.8226   -2.5022   19.0920 C.ar    1  UNL1        0.1402
     15 F           4.7548   -2.4379   17.5949 F       1  UNL1       -0.2042
     16 C           3.9554   -1.6022   19.9214 C.ar    1  UNL1        0.0308
     17 C           4.0233   -1.6665   21.4185 C.ar    1  UNL1        0.0160
     18 C          -0.3176    3.5427   18.1718 C.3     1  UNL1        0.0096
     19 C          -0.5838    3.0910   19.5771 C.3     1  UNL1        0.0768
     20 C          -1.7850    3.6038   20.3148 C.2     1  UNL1        0.2256
     21 O          -1.7614    4.9731   20.9266 O.2     1  UNL1       -0.2748
     22 N          -3.0099    2.7472   20.4407 N.am    1  UNL1       -0.2839
     23 H          -3.0255    1.8485   20.0391 H       1  UNL1        0.1549
     24 C          -4.2111    3.2600   21.1784 C.ar    1  UNL1        0.0504
     25 C          -5.3769    3.8183   20.4171 C.ar    1  UNL1        0.0155
     26 C          -6.5781    4.3310   21.1548 C.ar    1  UNL1        0.0127
     27 C          -6.6136    4.2855   22.6537 C.ar    1  UNL1        0.0578
     28 CL         -7.8148    4.7982   23.3914 Cl      1  UNL1       -0.0822
     29 C          -5.4479    3.7272   23.4149 C.ar    1  UNL1        0.0127
     30 C          -4.2467    3.2144   22.6772 C.ar    1  UNL1        0.0155
@<TRIPOS>BOND
     1    19    18    1
     2    19    20    1
     3    20    21    2
     4    20    22   am
     5    22    24    1
     6    24    25   ar
     7    25    26   ar
     8    26    27   ar
     9    27    28    1
    10    27    29   ar
    11    29    30   ar
    12    19     1    1
    13     1     2    1
    14     2     3    1
    15     3     4    1
    16     4     7    1
    17     7     8   ar
    18     8     9   ar
    19     9    10   ar
    20    10    11   ar
    21    11    12   ar
    22    12    13   ar
    23    13    14   ar
    24    14    15    1
    25    14    16   ar
    26    16    17   ar
    27     4     5    1
    28     5     6    1
    29    30    24   ar
    30     6     1    1
    31    17     7   ar
    32    17    11   ar
    33    22    23    1
@<TRIPOS>MOLECULE
*****
 30 33 0 0 0
SMALL
GASTEIGER

@<TRIPOS>ATOM
      1 C           0.2883    2.0636   21.4394 C.3     1  UNL1        0.0086
      2 C          -0.1412    0.7547   20.8458 C.3     1  UNL1        0.0008
      3 C           0.8313   -0.0620   20.0477 C.3     1  UNL1        0.0044
      4 C           2.2335    0.4301   19.8432 C.3     1  UNL1        0.0224
      5 C           2.6630    1.7389   20.4368 C.3     1  UNL1        0.0044
      6 C           1.6904    2.5557   21.2349 C.3     1  UNL1        0.0008
      7 C           3.2061   -0.3867   19.0450 C.ar    1  UNL1       -0.0194
      8 C           3.4187   -0.0893   17.5903 C.ar    1  UNL1        0.0164
      9 C           4.3913   -0.9061   16.7922 C.ar    1  UNL1        0.0985
     10 N           5.1512   -2.0202   17.4489 N.ar    1  UNL1       -0.2439
     11 C           4.9386   -2.3176   18.9036 C.ar    1  UNL1        0.0811
     12 C           5.6986   -3.4317   19.5603 C.ar    1  UNL1        0.0214
     13 C           5.4859   -3.7290   21.0151 C.ar    1  UNL1        0.0312
     14 C           4.5133   -2.9122   21.8132 C.ar    1  UNL1        0.1402
     15 F           4.3007   -3.2096   23.2680 F       1  UNL1       -0.2042
     16 C           3.7534   -1.7981   21.1565 C.ar    1  UNL1        0.0308
     17 C           3.9660   -1.5008   19.7017 C.ar    1  UNL1        0.0160
     18 C          -0.5164    3.0062   23.7227 C.3     1  UNL1        0.0096
     19 C          -0.6843    2.8803   22.2375 C.3     1  UNL1        0.0768
     20 C          -1.8248    3.5711   21.5504 C.2     1  UNL1        0.2256
     21 O          -1.9378    5.0659   21.6035 O.2     1  UNL1       -0.2748
     22 N          -2.8522    2.7671   20.8102 N.am    1  UNL1       -0.2839
     23 H          -2.7780    1.7860   20.7753 H       1  UNL1        0.1549
     24 C          -3.9927    3.4579   20.1231 C.ar    1  UNL1        0.0504
     25 C          -3.8539    3.8950   18.6948 C.ar    1  UNL1        0.0155
     26 C          -4.9944    4.5858   18.0077 C.ar    1  UNL1        0.0127
     27 C          -6.2736    4.8395   18.7489 C.ar    1  UNL1        0.0578
     28 CL         -7.4141    5.5303   18.0617 Cl      1  UNL1       -0.0822
     29 C          -6.4124    4.4024   20.1770 C.ar    1  UNL1        0.0127
     30 C          -5.2719    3.7116   20.8641 C.ar    1  UNL1        0.0155
@<TRIPOS>BOND
     1    19    18    1
     2    19    20    1
     3    20    21    2
     4    20    22   am
     5    22    24    1
     6    24    25   ar
     7    25    26   ar
     8    26    27   ar
     9    27    28    1
    10    27    29   ar
    11    29    30   ar
    12    19     1    1
    13     1     2    1
    14     2     3    1
    15     3     4    1
    16     4     7    1
    17     7     8   ar
    18     8     9   ar
    19     9    10   ar
    20    10    11   ar
    21    11    12   ar
    22    12    13   ar
    23    13    14   ar
    24    14    15    1
    25    14    16   ar
    26    16    17   ar
    27     4     5    1
    28     5     6    1
    29    30    24   ar
    30     6     1    1
    31    17     7   ar
    32    17    11   ar
    33    22    23    1
@<TRIPOS>MOLECULE
*****
 30 33 0 0 0
SMALL
GASTEIGER

@<TRIPOS>ATOM
      1 C         -16.6109   -4.5874   19.4352 C.3     1  UNL1        0.0086
      2 C         -15.5212   -4.1277   20.3578 C.3     1  UNL1        0.0008
      3 C         -14.0932   -4.4839   20.0681 C.3     1  UNL1        0.0044
      4 C         -13.7549   -5.3000   18.8559 C.3     1  UNL1        0.0224
      5 C         -14.8446   -5.7598   17.9333 C.3     1  UNL1        0.0044
      6 C         -16.2726   -5.4035   18.2230 C.3     1  UNL1        0.0008
      7 C         -12.3269   -5.6563   18.5662 C.ar    1  UNL1       -0.0194
      8 C         -11.7624   -6.9545   19.0621 C.ar    1  UNL1        0.0164
      9 C         -10.3344   -7.3107   18.7724 C.ar    1  UNL1        0.0985
     10 N          -9.4710   -6.3687   17.9868 N.ar    1  UNL1       -0.2439
     11 C         -10.0355   -5.0705   17.4909 C.ar    1  UNL1        0.0811
     12 C          -9.1720   -4.1286   16.7053 C.ar    1  UNL1        0.0214
     13 C          -9.7366   -2.8304   16.2094 C.ar    1  UNL1        0.0312
     14 C         -11.1646   -2.4741   16.4991 C.ar    1  UNL1        0.1402
     15 F         -11.7291   -1.1759   16.0032 F       1  UNL1       -0.2042
     16 C         -12.0280   -3.4161   17.2847 C.ar    1  UNL1        0.0308
     17 C         -11.4634   -4.7143   17.7806 C.ar    1  UNL1        0.0160
     18 C         -19.1256   -5.2379   19.4896 C.3     1  UNL1        0.0096
     19 C         -18.0389   -4.2312   19.7250 C.3     1  UNL1        0.0768
     20 C         -18.3801   -2.8681   20.2500 C.2     1  UNL1        0.2256
     21 O         -19.2587   -2.7278   21.4576 O.2     1  UNL1       -0.2748
     22 N         -17.8427   -1.6453   19.5674 N.am    1  UNL1       -0.2839
     23 H         -17.2660   -1.7373   18.7748 H       1  UNL1        0.1549
     24 C         -18.1840   -0.2823   20.0924 C.ar    1  UNL1        0.0504
     25 C         -17.1595    0.5067   20.8528 C.ar    1  UNL1        0.0155
     26 C         -17.5007    1.8697   21.3778 C.ar    1  UNL1        0.0127
     27 C         -18.8664    2.4438   21.1425 C.ar    1  UNL1        0.0578
     28 CL        -19.2077    3.8069   21.6675 Cl      1  UNL1       -0.0822
     29 C         -19.8908    1.6549   20.3821 C.ar    1  UNL1        0.0127
     30 C         -19.5496    0.2919   19.8571 C.ar    1  UNL1        0.0155
@<TRIPOS>BOND
     1    19    18    1
     2    19    20    1
     3    20    21    2
     4    20    22   am
     5    22    24    1
     6    24    25   ar
     7    25    26   ar
     8    26    27   ar
     9    27    28    1
    10    27    29   ar
    11    29    30   ar
    12    19     1    1
    13     1     2    1
    14     2     3    1
    15     3     4    1
    16     4     7    1
    17     7     8   ar
    18     8     9   ar
    19     9    10   ar
    20    10    11   ar
    21    11    12   ar
    22    12    13   ar
    23    13    14   ar
    24    14    15    1
    25    14    16   ar
    26    16    17   ar
    27     4     5    1
    28     5     6    1
    29    30    24   ar
    30     6     1    1
    31    17     7   ar
    32    17    11   ar
    33    22    23    1
@<TRIPOS>MOLECULE
*****
 30 33 0 0 0
SMALL
GASTEIGER

@<TRIPOS>ATOM
      1 C           0.5775    1.9713   21.9982 C.3     1  UNL1        0.0086
      2 C           2.0285    2.3340   21.8830 C.3     1  UNL1        0.0008
      3 C           2.9201    1.5719   20.9480 C.3     1  UNL1        0.0044
      4 C           2.3609    0.4472   20.1282 C.3     1  UNL1        0.0224
      5 C           0.9100    0.0844   20.2433 C.3     1  UNL1        0.0044
      6 C           0.0183    0.8465   21.1783 C.3     1  UNL1        0.0008
      7 C           3.2526   -0.3149   19.1931 C.ar    1  UNL1       -0.0194
      8 C           3.4103    0.1374   17.7717 C.ar    1  UNL1        0.0164
      9 C           4.3020   -0.6246   16.8368 C.ar    1  UNL1        0.0985
     10 N           5.0359   -1.8390   17.3232 N.ar    1  UNL1       -0.2439
     11 C           4.8782   -2.2913   18.7447 C.ar    1  UNL1        0.0811
     12 C           5.6122   -3.5056   19.2312 C.ar    1  UNL1        0.0214
     13 C           5.4545   -3.9579   20.6526 C.ar    1  UNL1        0.0312
     14 C           4.5627   -3.1959   21.5876 C.ar    1  UNL1        0.1402
     15 F           4.4050   -3.6482   23.0090 F       1  UNL1       -0.2042
     16 C           3.8288   -1.9815   21.1011 C.ar    1  UNL1        0.0308
     17 C           3.9865   -1.5292   19.6796 C.ar    1  UNL1        0.0160
     18 C          -1.4852    3.5002   22.3944 C.3     1  UNL1        0.0096
     19 C          -0.3141    2.7333   22.9332 C.3     1  UNL1        0.0768
     20 C          -0.0346    2.7284   24.4069 C.2     1  UNL1        0.2256
     21 O          -0.0409    4.0164   25.1757 O.2     1  UNL1       -0.2748
     22 N           0.2512    1.4356   25.1118 N.am    1  UNL1       -0.2839
     23 H           0.2553    0.5903   24.6072 H       1  UNL1        0.1549
     24 C           0.5307    1.4308   26.5855 C.ar    1  UNL1        0.0504
     25 C           1.9014    1.7725   27.0901 C.ar    1  UNL1        0.0155
     26 C           2.1809    1.7676   28.5638 C.ar    1  UNL1        0.0127
     27 C           1.0897    1.4210   29.5330 C.ar    1  UNL1        0.0578
     28 CL          1.3692    1.4161   31.0067 Cl      1  UNL1       -0.0822
     29 C          -0.2809    1.0793   29.0284 C.ar    1  UNL1        0.0127
     30 C          -0.5604    1.0841   27.5547 C.ar    1  UNL1        0.0155
@<TRIPOS>BOND
     1    19    18    1
     2    19    20    1
     3    20    21    2
     4    20    22   am
     5    22    24    1
     6    24    25   ar
     7    25    26   ar
     8    26    27   ar
     9    27    28    1
    10    27    29   ar
    11    29    30   ar
    12    19     1    1
    13     1     2    1
    14     2     3    1
    15     3     4    1
    16     4     7    1
    17     7     8   ar
    18     8     9   ar
    19     9    10   ar
    20    10    11   ar
    21    11    12   ar
    22    12    13   ar
    23    13    14   ar
    24    14    15    1
    25    14    16   ar
    26    16    17   ar
    27     4     5    1
    28     5     6    1
    29    30    24   ar
    30     6     1    1
    31    17     7   ar
    32    17    11   ar
    33    22    23    1
@<TRIPOS>MOLECULE
*****
 30 33 0 0 0
SMALL
GASTEIGER

@<TRIPOS>ATOM
      1 C           4.5623   -1.3626   19.7473 C.3     1  UNL1        0.0086
      2 C           4.8143    0.0936   20.0043 C.3     1  UNL1        0.0008
      3 C           3.6807    0.9924   20.4007 C.3     1  UNL1        0.0044
      4 C           2.2951    0.4350   20.5402 C.3     1  UNL1        0.0224
      5 C           2.0431   -1.0212   20.2832 C.3     1  UNL1        0.0044
      6 C           3.1767   -1.9200   19.8868 C.3     1  UNL1        0.0008
      7 C           1.1615    1.3338   20.9366 C.ar    1  UNL1       -0.0194
      8 C           0.3332    2.0059   19.8821 C.ar    1  UNL1        0.0164
      9 C          -0.8003    2.9047   20.2786 C.ar    1  UNL1        0.0985
     10 N          -1.1055    3.1314   21.7296 N.ar    1  UNL1       -0.2439
     11 C          -0.2772    2.4593   22.7841 C.ar    1  UNL1        0.0811
     12 C          -0.5824    2.6860   24.2352 C.ar    1  UNL1        0.0214
     13 C           0.2460    2.0139   25.2897 C.ar    1  UNL1        0.0312
     14 C           1.3796    1.1151   24.8932 C.ar    1  UNL1        0.1402
     15 F           2.2079    0.4430   25.9478 F       1  UNL1       -0.2042
     16 C           1.6848    0.8884   23.4422 C.ar    1  UNL1        0.0308
     17 C           0.8564    1.5605   22.3877 C.ar    1  UNL1        0.0160
     18 C           6.4182   -2.0310   18.0566 C.3     1  UNL1        0.0096
     19 C           5.6959   -2.2614   19.3508 C.3     1  UNL1        0.0768
     20 C           6.1071   -3.3905   20.2487 C.2     1  UNL1        0.2256
     21 O           5.3855   -4.7037   20.1807 O.2     1  UNL1       -0.2748
     22 N           7.2400   -3.2063   21.2144 N.am    1  UNL1       -0.2839
     23 H           7.7136   -2.3444   21.2590 H       1  UNL1        0.1549
     24 C           7.6512   -4.3354   22.1122 C.ar    1  UNL1        0.0504
     25 C           8.6082   -5.3782   21.6154 C.ar    1  UNL1        0.0155
     26 C           9.0195   -6.5073   22.5133 C.ar    1  UNL1        0.0127
     27 C           8.4736   -6.5936   23.9078 C.ar    1  UNL1        0.0578
     28 CL          8.8849   -7.7227   24.8056 Cl      1  UNL1       -0.0822
     29 C           7.5166   -5.5508   24.4045 C.ar    1  UNL1        0.0127
     30 C           7.1054   -4.4217   23.5067 C.ar    1  UNL1        0.0155
@<TRIPOS>BOND
     1    19    18    1
     2    19    20    1
     3    20    21    2
     4    20    22   am
     5    22    24    1
     6    24    25   ar
     7    25    26   ar
     8    26    27   ar
     9    27    28    1
    10    27    29   ar
    11    29    30   ar
    12    19     1    1
    13     1     2    1
    14     2     3    1
    15     3     4    1
    16     4     7    1
    17     7     8   ar
    18     8     9   ar
    19     9    10   ar
    20    10    11   ar
    21    11    12   ar
    22    12    13   ar
    23    13    14   ar
    24    14    15    1
    25    14    16   ar
    26    16    17   ar
    27     4     5    1
    28     5     6    1
    29    30    24   ar
    30     6     1    1
    31    17     7   ar
    32    17    11   ar
    33    22    23    1
@<TRIPOS>MOLECULE
*****
 30 33 0 0 0
SMALL
GASTEIGER

@<TRIPOS>ATOM
      1 C         -14.1276    0.0917   18.5993 C.3     1  UNL1        0.0086
      2 C         -14.8211   -1.0146   19.3379 C.3     1  UNL1        0.0008
      3 C         -16.0876   -0.7347   20.0912 C.3     1  UNL1        0.0044
      4 C         -16.6609    0.6513   20.1059 C.3     1  UNL1        0.0224
      5 C         -15.9675    1.7576   19.3674 C.3     1  UNL1        0.0044
      6 C         -14.7009    1.4778   18.6141 C.3     1  UNL1        0.0008
      7 C         -17.9275    0.9311   20.8593 C.ar    1  UNL1       -0.0194
      8 C         -19.1867    0.1955   20.5086 C.ar    1  UNL1        0.0164
      9 C         -20.4533    0.4753   21.2619 C.ar    1  UNL1        0.0985
     10 N         -20.4606    1.4907   22.3659 N.ar    1  UNL1       -0.2439
     11 C         -19.2013    2.2264   22.7165 C.ar    1  UNL1        0.0811
     12 C         -19.2086    3.2419   23.8205 C.ar    1  UNL1        0.0214
     13 C         -17.9493    3.9776   24.1712 C.ar    1  UNL1        0.0312
     14 C         -16.6827    3.6978   23.4178 C.ar    1  UNL1        0.1402
     15 F         -15.4234    4.4334   23.7685 F       1  UNL1       -0.2042
     16 C         -16.6754    2.6823   22.3139 C.ar    1  UNL1        0.0308
     17 C         -17.9348    1.9466   21.9632 C.ar    1  UNL1        0.0160
     18 C         -12.1307    0.9311   17.1650 C.3     1  UNL1        0.0096
     19 C         -12.8611   -0.1881   17.8461 C.3     1  UNL1        0.0768
     20 C         -12.3249   -1.5871   17.7738 C.2     1  UNL1        0.2256
     21 O         -12.1851   -2.2691   16.4451 O.2     1  UNL1       -0.2748
     22 N         -11.9286   -2.3042   19.0302 N.am    1  UNL1       -0.2839
     23 H         -12.0203   -1.8567   19.9023 H       1  UNL1        0.1549
     24 C         -11.3924   -3.7033   18.9579 C.ar    1  UNL1        0.0504
     25 C         -12.3164   -4.8709   19.1395 C.ar    1  UNL1        0.0155
     26 C         -11.7803   -6.2700   19.0672 C.ar    1  UNL1        0.0127
     27 C         -10.3201   -6.5014   18.8134 C.ar    1  UNL1        0.0578
     28 CL         -9.7839   -7.9004   18.7411 Cl      1  UNL1       -0.0822
     29 C          -9.3961   -5.3338   18.6319 C.ar    1  UNL1        0.0127
     30 C          -9.9323   -3.9347   18.7041 C.ar    1  UNL1        0.0155
@<TRIPOS>BOND
     1    19    18    1
     2    19    20    1
     3    20    21    2
     4    20    22   am
     5    22    24    1
     6    24    25   ar
     7    25    26   ar
     8    26    27   ar
     9    27    28    1
    10    27    29   ar
    11    29    30   ar
    12    19     1    1
    13     1     2    1
    14     2     3    1
    15     3     4    1
    16     4     7    1
    17     7     8   ar
    18     8     9   ar
    19     9    10   ar
    20    10    11   ar
    21    11    12   ar
    22    12    13   ar
    23    13    14   ar
    24    14    15    1
    25    14    16   ar
    26    16    17   ar
    27     4     5    1
    28     5     6    1
    29    30    24   ar
    30     6     1    1
    31    17     7   ar
    32    17    11   ar
    33    22    23    1
