@<TRIPOS>MOLECULE
*****
 26 28 0 0 0
SMALL
GASTEIGER

@<TRIPOS>ATOM
      1 C          -4.1092  -17.4270   23.0834 C.ar    1  UNL1        0.0641
      2 C          -4.4861  -16.1813   23.8291 C.ar    1  UNL1        0.0155
      3 C          -5.9310  -15.8131   23.9924 C.ar    1  UNL1       -0.0032
      4 C          -6.9991  -16.6906   23.4098 C.ar    1  UNL1       -0.0246
      5 C          -6.6221  -17.9362   22.6641 C.ar    1  UNL1       -0.0234
      6 C          -5.1773  -18.3045   22.5009 C.ar    1  UNL1        0.0113
      7 C          -7.5215  -18.9429   22.0099 C.3     1  UNL1        0.0434
      8 C          -9.0199  -18.9523   21.9398 C.3     1  UNL1        0.0771
      9 N          -9.9888  -17.9576   22.5067 N.3     1  UNL1       -0.2671
     10 C          -9.6990  -16.7076   23.2836 C.3     1  UNL1        0.0771
     11 C          -8.3684  -16.1438   23.6856 C.3     1  UNL1        0.0434
     12 N          -2.6643  -17.7952   22.9202 N.pl3   1  UNL1       -0.2188
     13 H          -2.1014  -17.9434   23.7141 H       1  UNL1        0.1734
     14 S          -2.0771  -17.9375   21.5472 S.O2    1  UNL1        0.0522
     15 O          -2.3768  -16.4942   21.2694 O.2     1  UNL1       -0.1545
     16 O          -1.7775  -19.3808   21.8250 O.2     1  UNL1       -0.1545
     17 C          -0.0294  -17.8196   19.9525 C.3     1  UNL1        0.0273
     18 C          -1.4900  -18.0798   20.1743 C.3     1  UNL1        0.1489
     19 C          -2.3633  -18.4824   19.0230 C.3     1  UNL1        0.0273
     20 C         -11.4397  -18.2516   22.2646 C.3     1  UNL1        0.1180
     21 C         -12.3889  -18.3477   23.4222 C.ar    1  UNL1        0.0693
     22 C         -13.8280  -17.9246   23.4199 C.ar    1  UNL1        0.0379
     23 C         -14.3939  -18.1992   24.7816 C.ar    1  UNL1        0.1211
     24 N         -13.3047  -18.7919   25.6255 N.ar    1  UNL1       -0.1713
     25 N         -12.0654  -18.8837   24.7854 N.ar    1  UNL1       -0.2784
     26 H         -11.1930  -19.2342   25.0774 H       1  UNL1        0.1886
@<TRIPOS>BOND
     1    17    18    1
     2    18    19    1
     3    18    14    1
     4    14    15    2
     5    14    16    2
     6    14    12    1
     7    12     1    1
     8     1     2   ar
     9     2     3   ar
    10     3     4   ar
    11     4     5   ar
    12     5     6   ar
    13     5     7    1
    14     7     8    1
    15     8     9    1
    16     9    20    1
    17    20    21    1
    18    21    22   ar
    19    22    23   ar
    20    23    24   ar
    21    24    25   ar
    22     9    10    1
    23    10    11    1
    24     6     1   ar
    25    25    21   ar
    26    11     4    1
    27    12    13    1
    28    25    26    1
@<TRIPOS>MOLECULE
*****
 26 28 0 0 0
SMALL
GASTEIGER

@<TRIPOS>ATOM
      1 C          -4.3532  -19.9160   20.9966 C.ar    1  UNL1        0.0641
      2 C          -5.0989  -20.8581   20.0986 C.ar    1  UNL1        0.0155
      3 C          -6.5850  -20.7270   19.9423 C.ar    1  UNL1       -0.0032
      4 C          -7.3253  -19.6536   20.6839 C.ar    1  UNL1       -0.0246
      5 C          -6.5796  -18.7116   21.5818 C.ar    1  UNL1       -0.0234
      6 C          -5.0936  -18.8427   21.7382 C.ar    1  UNL1        0.0113
      7 C          -7.1196  -17.5805   22.4059 C.3     1  UNL1        0.0434
      8 C          -8.5388  -17.1121   22.5355 C.3     1  UNL1        0.0771
      9 N          -9.7682  -17.6592   21.8731 N.3     1  UNL1       -0.2671
     10 C          -9.8825  -18.8098   20.9174 C.3     1  UNL1        0.0771
     11 C          -8.7952  -19.6974   20.3882 C.3     1  UNL1        0.0434
     12 N          -2.8672  -20.0472   21.1529 N.pl3   1  UNL1       -0.2188
     13 H          -2.4735  -20.9129   21.4076 H       1  UNL1        0.1734
     14 S          -1.9809  -18.8594   20.9211 S.O2    1  UNL1        0.0522
     15 O          -2.3193  -18.8920   19.4601 O.2     1  UNL1       -0.1545
     16 O          -1.6425  -18.8268   22.3821 O.2     1  UNL1       -0.1545
     17 C           0.1654  -17.8208   19.8893 C.3     1  UNL1        0.0273
     18 C          -1.0947  -17.6716   20.6893 C.3     1  UNL1        0.1489
     19 C          -1.4685  -16.3346   21.2576 C.3     1  UNL1        0.0273
     20 C         -11.0537  -16.9638   22.2110 C.3     1  UNL1        0.1180
     21 C         -12.0024  -17.5787   23.1969 C.ar    1  UNL1        0.0693
     22 C         -13.4937  -17.4173   23.2039 C.ar    1  UNL1        0.0379
     23 C         -14.0392  -18.2017   24.3602 C.ar    1  UNL1        0.1211
     24 N         -12.8852  -18.8478   25.0679 N.ar    1  UNL1       -0.1713
     25 N         -11.6263  -18.4627   24.3489 N.ar    1  UNL1       -0.2784
     26 H         -10.7135  -18.7413   24.5906 H       1  UNL1        0.1886
@<TRIPOS>BOND
     1    17    18    1
     2    18    19    1
     3    18    14    1
     4    14    15    2
     5    14    16    2
     6    14    12    1
     7    12     1    1
     8     1     2   ar
     9     2     3   ar
    10     3     4   ar
    11     4     5   ar
    12     5     6   ar
    13     5     7    1
    14     7     8    1
    15     8     9    1
    16     9    20    1
    17    20    21    1
    18    21    22   ar
    19    22    23   ar
    20    23    24   ar
    21    24    25   ar
    22     9    10    1
    23    10    11    1
    24     6     1   ar
    25    25    21   ar
    26    11     4    1
    27    12    13    1
    28    25    26    1
@<TRIPOS>MOLECULE
*****
 26 28 0 0 0
SMALL
GASTEIGER

@<TRIPOS>ATOM
      1 C          -3.5904  -17.7548   23.0431 C.ar    1  UNL1        0.0641
      2 C          -3.8463  -16.6420   24.0158 C.ar    1  UNL1        0.0155
      3 C          -5.2494  -16.1774   24.2717 C.ar    1  UNL1       -0.0032
      4 C          -6.3966  -16.8257   23.5550 C.ar    1  UNL1       -0.0246
      5 C          -6.1407  -17.9385   22.5824 C.ar    1  UNL1       -0.0234
      6 C          -4.7376  -18.4031   22.3264 C.ar    1  UNL1        0.0113
      7 C          -7.1323  -18.7153   21.7679 C.3     1  UNL1        0.0434
      8 C          -8.6248  -18.5710   21.7250 C.3     1  UNL1        0.0771
      9 N          -9.4941  -17.6144   22.4859 N.3     1  UNL1       -0.2671
     10 C          -9.0858  -16.5657   23.4776 C.3     1  UNL1        0.0771
     11 C          -7.7073  -16.2147   23.9534 C.3     1  UNL1        0.0434
     12 N          -2.1873  -18.2194   22.7872 N.pl3   1  UNL1       -0.2188
     13 H          -1.6487  -18.5880   23.5243 H       1  UNL1        0.1734
     14 S          -1.6049  -18.1223   21.4083 S.O2    1  UNL1        0.0522
     15 O          -1.5641  -19.6191   21.3201 O.2     1  UNL1       -0.1545
     16 O          -1.6457  -16.6254   21.4965 O.2     1  UNL1       -0.1545
     17 C          -1.9081  -18.1800   18.8286 C.3     1  UNL1        0.0273
     18 C          -1.0225  -18.0251   20.0294 C.3     1  UNL1        0.1489
     19 C           0.4455  -17.7732   19.8513 C.3     1  UNL1        0.0273
     20 C         -10.9665  -17.7205   22.2198 C.3     1  UNL1        0.1180
     21 C         -11.5861  -16.9309   21.1049 C.ar    1  UNL1        0.0693
     22 C         -10.8460  -16.2183   20.0120 C.ar    1  UNL1        0.0379
     23 C         -11.8571  -15.5625   19.1190 C.ar    1  UNL1        0.1211
     24 N         -13.2220  -15.8697   19.6599 N.ar    1  UNL1       -0.1713
     25 N         -13.0545  -16.7155   20.8874 N.ar    1  UNL1       -0.2784
     26 H         -13.7809  -17.0675   21.4511 H       1  UNL1        0.1886
@<TRIPOS>BOND
     1    17    18    1
     2    18    19    1
     3    18    14    1
     4    14    15    2
     5    14    16    2
     6    14    12    1
     7    12     1    1
     8     1     2   ar
     9     2     3   ar
    10     3     4   ar
    11     4     5   ar
    12     5     6   ar
    13     5     7    1
    14     7     8    1
    15     8     9    1
    16     9    20    1
    17    20    21    1
    18    21    22   ar
    19    22    23   ar
    20    23    24   ar
    21    24    25   ar
    22     9    10    1
    23    10    11    1
    24     6     1   ar
    25    25    21   ar
    26    11     4    1
    27    12    13    1
    28    25    26    1
@<TRIPOS>MOLECULE
*****
 26 28 0 0 0
SMALL
GASTEIGER

@<TRIPOS>ATOM
      1 C           4.6406    1.8051   37.0615 C.ar    1  UNL1        0.0641
      2 C           6.1142    1.6769   37.3108 C.ar    1  UNL1        0.0155
      3 C           6.9664    0.8735   36.3735 C.ar    1  UNL1       -0.0032
      4 C           6.3449    0.1984   35.1869 C.ar    1  UNL1       -0.0246
      5 C           4.8714    0.3267   34.9376 C.ar    1  UNL1       -0.0234
      6 C           4.0192    1.1300   35.8748 C.ar    1  UNL1        0.0113
      7 C           4.0567   -0.2607   33.8234 C.3     1  UNL1        0.0434
      8 C           4.5145   -1.1214   32.6833 C.3     1  UNL1        0.0771
      9 N           5.8999   -1.6073   32.3760 N.3     1  UNL1       -0.2671
     10 C           7.1698   -1.3525   33.1327 C.3     1  UNL1        0.0771
     11 C           7.3678   -0.5489   34.3836 C.3     1  UNL1        0.0434
     12 N           3.7886    2.6085   37.9988 N.pl3   1  UNL1       -0.2188
     13 H           4.0464    3.5297   38.2313 H       1  UNL1        0.1734
     14 S           2.5437    2.0081   38.5818 S.O2    1  UNL1        0.0522
     15 O           3.3796    1.0680   39.3987 O.2     1  UNL1       -0.1545
     16 O           1.7077    2.9483   37.7649 O.2     1  UNL1       -0.1545
     17 C           1.2689   -0.0458   39.5338 C.3     1  UNL1        0.0273
     18 C           1.2988    1.4078   39.1648 C.3     1  UNL1        0.1489
     19 C           0.0838    2.2611   39.3788 C.3     1  UNL1        0.0273
     20 C           6.0331   -2.4609   31.1498 C.3     1  UNL1        0.1180
     21 C           6.5178   -3.8754   31.2695 C.ar    1  UNL1        0.0693
     22 C           7.3834   -4.5976   30.2800 C.ar    1  UNL1        0.0379
     23 C           7.6226   -5.9845   30.7988 C.ar    1  UNL1        0.1211
     24 N           6.9048   -6.1196   32.1089 N.ar    1  UNL1       -0.1713
     25 N           6.2219   -4.8160   32.3999 N.ar    1  UNL1       -0.2784
     26 H           5.6756   -4.6134   33.1934 H       1  UNL1        0.1886
@<TRIPOS>BOND
     1    17    18    1
     2    18    19    1
     3    18    14    1
     4    14    15    2
     5    14    16    2
     6    14    12    1
     7    12     1    1
     8     1     2   ar
     9     2     3   ar
    10     3     4   ar
    11     4     5   ar
    12     5     6   ar
    13     5     7    1
    14     7     8    1
    15     8     9    1
    16     9    20    1
    17    20    21    1
    18    21    22   ar
    19    22    23   ar
    20    23    24   ar
    21    24    25   ar
    22     9    10    1
    23    10    11    1
    24     6     1   ar
    25    25    21   ar
    26    11     4    1
    27    12    13    1
    28    25    26    1
@<TRIPOS>MOLECULE
*****
 26 28 0 0 0
SMALL
GASTEIGER

@<TRIPOS>ATOM
      1 C         -10.7922   -2.7063   18.1877 C.ar    1  UNL1        0.0641
      2 C         -10.7023   -1.3308   17.5963 C.ar    1  UNL1        0.0155
      3 C         -11.8609   -0.3856   17.7161 C.ar    1  UNL1       -0.0032
      4 C         -13.1095   -0.8161   18.4274 C.ar    1  UNL1       -0.0246
      5 C         -13.1993   -2.1916   19.0188 C.ar    1  UNL1       -0.0234
      6 C         -12.0407   -3.1367   18.8990 C.ar    1  UNL1        0.0113
      7 C         -14.3419   -2.8169   19.7628 C.3     1  UNL1        0.0434
      8 C         -15.6769   -2.2211   20.0990 C.3     1  UNL1        0.0771
      9 N         -16.1988   -0.8529   19.7743 N.3     1  UNL1       -0.2671
     10 C         -15.5149    0.2575   19.0332 C.3     1  UNL1        0.0771
     11 C         -14.1400    0.2739   18.4338 C.3     1  UNL1        0.0434
     12 N          -9.6335   -3.6513   18.0679 N.pl3   1  UNL1       -0.2188
     13 H          -8.7181   -3.2994   17.9819 H       1  UNL1        0.1734
     14 S          -9.8697   -5.1326   18.0790 S.O2    1  UNL1        0.0522
     15 O          -9.3443   -5.2058   19.4821 O.2     1  UNL1       -0.1545
     16 O         -10.3951   -5.0594   16.6760 O.2     1  UNL1       -0.1545
     17 C          -9.2930   -7.4962   18.9907 C.3     1  UNL1        0.0273
     18 C         -10.1058   -6.6139   18.0902 C.3     1  UNL1        0.1489
     19 C         -11.1548   -7.2128   17.2008 C.3     1  UNL1        0.0273
     20 C         -17.5886   -0.5558   20.2541 C.3     1  UNL1        0.1180
     21 C         -18.6718   -1.5816   20.0970 C.ar    1  UNL1        0.0693
     22 C         -19.5106   -1.7977   18.8724 C.ar    1  UNL1        0.0379
     23 C         -20.4634   -2.9210   19.1556 C.ar    1  UNL1        0.1211
     24 N         -20.2135   -3.3992   20.5552 N.ar    1  UNL1       -0.1713
     25 N         -19.1062   -2.5714   21.1371 N.ar    1  UNL1       -0.2784
     26 H         -18.7305   -2.6618   22.0426 H       1  UNL1        0.1886
@<TRIPOS>BOND
     1    17    18    1
     2    18    19    1
     3    18    14    1
     4    14    15    2
     5    14    16    2
     6    14    12    1
     7    12     1    1
     8     1     2   ar
     9     2     3   ar
    10     3     4   ar
    11     4     5   ar
    12     5     6   ar
    13     5     7    1
    14     7     8    1
    15     8     9    1
    16     9    20    1
    17    20    21    1
    18    21    22   ar
    19    22    23   ar
    20    23    24   ar
    21    24    25   ar
    22     9    10    1
    23    10    11    1
    24     6     1   ar
    25    25    21   ar
    26    11     4    1
    27    12    13    1
    28    25    26    1
@<TRIPOS>MOLECULE
*****
 26 28 0 0 0
SMALL
GASTEIGER

@<TRIPOS>ATOM
      1 C         -13.5012   -7.7282   18.3003 C.ar    1  UNL1        0.0641
      2 C         -13.1654   -7.8150   16.8409 C.ar    1  UNL1        0.0155
      3 C         -12.5948   -6.6234   16.1305 C.ar    1  UNL1       -0.0032
      4 C         -12.3600   -5.3451   16.8795 C.ar    1  UNL1       -0.0246
      5 C         -12.6958   -5.2584   18.3387 C.ar    1  UNL1       -0.0234
      6 C         -13.2663   -6.4499   19.0492 C.ar    1  UNL1        0.0113
      7 C         -12.5416   -4.0895   19.2661 C.3     1  UNL1        0.0434
      8 C         -12.0135   -2.7185   18.9630 C.3     1  UNL1        0.0771
      9 N         -11.5093   -2.1781   17.6579 N.3     1  UNL1       -0.2671
     10 C         -11.4085   -2.8749   16.3333 C.3     1  UNL1        0.0771
     11 C         -11.7871   -4.2844   15.9869 C.3     1  UNL1        0.0434
     12 N         -14.0717   -8.9198   19.0107 N.pl3   1  UNL1       -0.2188
     13 H         -13.5362   -9.3917   19.6887 H       1  UNL1        0.1734
     14 S         -15.4583   -9.3922   18.6880 S.O2    1  UNL1        0.0522
     15 O         -16.0248   -8.1393   19.2874 O.2     1  UNL1       -0.1545
     16 O         -14.8919  -10.6452   18.0886 O.2     1  UNL1       -0.1545
     17 C         -17.8270   -8.9276   17.7270 C.3     1  UNL1        0.0273
     18 C         -16.8449   -9.8647   18.3653 C.3     1  UNL1        0.1489
     19 C         -17.2494  -11.2743   18.6809 C.3     1  UNL1        0.0273
     20 C         -11.0443   -0.7521   17.6801 C.3     1  UNL1        0.1180
     21 C         -12.0458    0.3641   17.6435 C.ar    1  UNL1        0.0693
     22 C         -13.4478    0.3084   18.1737 C.ar    1  UNL1        0.0379
     23 C         -14.0895    1.6418   17.9281 C.ar    1  UNL1        0.1211
     24 N         -13.0841    2.5215   17.2460 N.ar    1  UNL1       -0.1713
     25 N         -11.8209    1.7318   17.0701 N.ar    1  UNL1       -0.2784
     26 H         -10.9902    2.0545   16.6518 H       1  UNL1        0.1886
@<TRIPOS>BOND
     1    17    18    1
     2    18    19    1
     3    18    14    1
     4    14    15    2
     5    14    16    2
     6    14    12    1
     7    12     1    1
     8     1     2   ar
     9     2     3   ar
    10     3     4   ar
    11     4     5   ar
    12     5     6   ar
    13     5     7    1
    14     7     8    1
    15     8     9    1
    16     9    20    1
    17    20    21    1
    18    21    22   ar
    19    22    23   ar
    20    23    24   ar
    21    24    25   ar
    22     9    10    1
    23    10    11    1
    24     6     1   ar
    25    25    21   ar
    26    11     4    1
    27    12    13    1
    28    25    26    1
@<TRIPOS>MOLECULE
*****
 26 28 0 0 0
SMALL
GASTEIGER

@<TRIPOS>ATOM
      1 C         -10.8654   -2.5025   18.3142 C.ar    1  UNL1        0.0641
      2 C         -10.6716   -1.2186   17.5632 C.ar    1  UNL1        0.0155
      3 C         -11.7912   -0.2240   17.4764 C.ar    1  UNL1       -0.0032
      4 C         -13.1046   -0.5135   18.1408 C.ar    1  UNL1       -0.0246
      5 C         -13.2983   -1.7973   18.8918 C.ar    1  UNL1       -0.0234
      6 C         -12.1788   -2.7918   18.9786 C.ar    1  UNL1        0.0113
      7 C         -14.5174   -2.2796   19.6208 C.3     1  UNL1        0.0434
      8 C         -15.8437   -1.5970   19.7788 C.3     1  UNL1        0.0771
      9 N         -16.2785   -0.2637   19.2468 N.3     1  UNL1       -0.2671
     10 C         -15.4945    0.7165   18.4254 C.3     1  UNL1        0.0771
     11 C         -14.0819    0.6053   17.9332 C.3     1  UNL1        0.0434
     12 N          -9.7458   -3.4969   18.4010 N.pl3   1  UNL1       -0.2188
     13 H          -8.8266   -3.1895   18.5739 H       1  UNL1        0.1734
     14 S         -10.0266   -4.9597   18.2242 S.O2    1  UNL1        0.0522
     15 O          -9.4435   -5.2353   19.5785 O.2     1  UNL1       -0.1545
     16 O         -10.6097   -4.6841   16.8699 O.2     1  UNL1       -0.1545
     17 C          -9.4510   -7.4399   18.7413 C.3     1  UNL1        0.0273
     18 C         -10.3075   -6.4226   18.0474 C.3     1  UNL1        0.1489
     19 C         -11.4449   -6.8681   17.1768 C.3     1  UNL1        0.0273
     20 C         -17.6832    0.1434   19.5802 C.3     1  UNL1        0.1180
     21 C         -17.9723    0.8535   20.8695 C.ar    1  UNL1        0.0693
     22 C         -17.0438    1.7853   21.5904 C.ar    1  UNL1        0.0379
     23 C         -17.7385    2.2641   22.8306 C.ar    1  UNL1        0.1211
     24 N         -19.0962    1.6282   22.8764 N.ar    1  UNL1       -0.1713
     25 N         -19.2408    0.7564   21.6643 N.ar    1  UNL1       -0.2784
     26 H         -20.0297    0.2154   21.4313 H       1  UNL1        0.1886
@<TRIPOS>BOND
     1    17    18    1
     2    18    19    1
     3    18    14    1
     4    14    15    2
     5    14    16    2
     6    14    12    1
     7    12     1    1
     8     1     2   ar
     9     2     3   ar
    10     3     4   ar
    11     4     5   ar
    12     5     6   ar
    13     5     7    1
    14     7     8    1
    15     8     9    1
    16     9    20    1
    17    20    21    1
    18    21    22   ar
    19    22    23   ar
    20    23    24   ar
    21    24    25   ar
    22     9    10    1
    23    10    11    1
    24     6     1   ar
    25    25    21   ar
    26    11     4    1
    27    12    13    1
    28    25    26    1
@<TRIPOS>MOLECULE
*****
 26 28 0 0 0
SMALL
GASTEIGER

@<TRIPOS>ATOM
      1 C           2.8614    0.2099   30.3209 C.ar    1  UNL1        0.0641
      2 C           3.7924   -0.9193   30.6498 C.ar    1  UNL1        0.0155
      3 C           4.3212   -1.0732   32.0451 C.ar    1  UNL1       -0.0032
      4 C           3.9190   -0.0977   33.1114 C.ar    1  UNL1       -0.0246
      5 C           2.9881    1.0314   32.7824 C.ar    1  UNL1       -0.0234
      6 C           2.4593    1.1853   31.3872 C.ar    1  UNL1        0.0113
      7 C           2.4648    2.1063   33.6884 C.3     1  UNL1        0.0434
      8 C           2.7433    2.3175   35.1472 C.3     1  UNL1        0.0771
      9 N           3.6137    1.5059   36.0601 N.3     1  UNL1       -0.2671
     10 C           4.4208    0.2827   35.7399 C.3     1  UNL1        0.0771
     11 C           4.5566   -0.4310   34.4276 C.3     1  UNL1        0.0434
     12 N           2.3326    0.3636   28.9256 N.pl3   1  UNL1       -0.2188
     13 H           2.9459    0.3060   28.1576 H       1  UNL1        0.1734
     14 S           0.8694    0.6052   28.7005 S.O2    1  UNL1        0.0522
     15 O           0.5426   -0.5999   29.5317 O.2     1  UNL1       -0.1545
     16 O           1.1963    1.8104   27.8694 O.2     1  UNL1       -0.1545
     17 C          -1.6110   -0.0038   29.1769 C.3     1  UNL1        0.0273
     18 C          -0.5938    0.8468   28.4755 C.3     1  UNL1        0.1489
     19 C          -1.0398    1.9390   27.5490 C.3     1  UNL1        0.0273
     20 C           3.6868    1.9803   37.4812 C.3     1  UNL1        0.1180
     21 C           2.6078    1.6055   38.4535 C.ar    1  UNL1        0.0693
     22 C           1.4432    2.4629   38.8519 C.ar    1  UNL1        0.0379
     23 C           0.6197    1.6948   39.8427 C.ar    1  UNL1        0.1211
     24 N           1.2752    0.3627   40.0567 N.ar    1  UNL1       -0.1713
     25 N           2.5040    0.3075   39.1982 N.ar    1  UNL1       -0.2784
     26 H           3.1320   -0.4480   39.1345 H       1  UNL1        0.1886
@<TRIPOS>BOND
     1    17    18    1
     2    18    19    1
     3    18    14    1
     4    14    15    2
     5    14    16    2
     6    14    12    1
     7    12     1    1
     8     1     2   ar
     9     2     3   ar
    10     3     4   ar
    11     4     5   ar
    12     5     6   ar
    13     5     7    1
    14     7     8    1
    15     8     9    1
    16     9    20    1
    17    20    21    1
    18    21    22   ar
    19    22    23   ar
    20    23    24   ar
    21    24    25   ar
    22     9    10    1
    23    10    11    1
    24     6     1   ar
    25    25    21   ar
    26    11     4    1
    27    12    13    1
    28    25    26    1
@<TRIPOS>MOLECULE
*****
 26 28 0 0 0
SMALL
GASTEIGER

@<TRIPOS>ATOM
      1 C           2.7230   -0.8598   19.7709 C.ar    1  UNL1        0.0641
      2 C           1.4420   -0.1408   19.4675 C.ar    1  UNL1        0.0155
      3 C           0.7137    0.5867   20.5585 C.ar    1  UNL1       -0.0032
      4 C           1.2664    0.5952   21.9530 C.ar    1  UNL1       -0.0246
      5 C           2.5473   -0.1238   22.2564 C.ar    1  UNL1       -0.0234
      6 C           3.2757   -0.8513   21.1654 C.ar    1  UNL1        0.0113
      7 C           3.2668   -0.2400   23.5675 C.3     1  UNL1        0.0434
      8 C           2.8828    0.3344   24.8990 C.3     1  UNL1        0.0771
      9 N           1.6847    1.1665   25.2482 N.3     1  UNL1       -0.2671
     10 C           0.5746    1.6300   24.3522 C.3     1  UNL1        0.0771
     11 C           0.3884    1.3757   22.8857 C.3     1  UNL1        0.0434
     12 N           3.4513   -1.5873   18.6799 N.pl3   1  UNL1       -0.2188
     13 H           3.3824   -1.2749   17.7488 H       1  UNL1        0.1734
     14 S           4.2846   -2.7908   19.0075 S.O2    1  UNL1        0.0522
     15 O           3.0373   -3.5963   19.2209 O.2     1  UNL1       -0.1545
     16 O           5.5318   -1.9853   18.7942 O.2     1  UNL1       -0.1545
     17 C           4.7468   -5.3372   18.7795 C.3     1  UNL1        0.0273
     18 C           5.1178   -3.9943   19.3352 C.3     1  UNL1        0.1489
     19 C           6.3222   -3.8547   20.2185 C.3     1  UNL1        0.0273
     20 C           1.5833    1.5914   26.6832 C.3     1  UNL1        0.1180
     21 C           0.5669    0.9546   27.5840 C.ar    1  UNL1        0.0693
     22 C          -0.8380    1.4317   27.8043 C.ar    1  UNL1        0.0379
     23 C          -1.4961    0.5008   28.7791 C.ar    1  UNL1        0.1211
     24 N          -0.4981   -0.5517   29.1612 N.ar    1  UNL1       -0.1713
     25 N           0.7771   -0.2713   28.4226 N.ar    1  UNL1       -0.2784
     26 H           1.6062   -0.7991   28.4784 H       1  UNL1        0.1886
@<TRIPOS>BOND
     1    17    18    1
     2    18    19    1
     3    18    14    1
     4    14    15    2
     5    14    16    2
     6    14    12    1
     7    12     1    1
     8     1     2   ar
     9     2     3   ar
    10     3     4   ar
    11     4     5   ar
    12     5     6   ar
    13     5     7    1
    14     7     8    1
    15     8     9    1
    16     9    20    1
    17    20    21    1
    18    21    22   ar
    19    22    23   ar
    20    23    24   ar
    21    24    25   ar
    22     9    10    1
    23    10    11    1
    24     6     1   ar
    25    25    21   ar
    26    11     4    1
    27    12    13    1
    28    25    26    1
