@<TRIPOS>MOLECULE
*****
 20 22 0 0 0
SMALL
GASTEIGER

@<TRIPOS>ATOM
      1 C          -2.6081  -19.1042   20.2142 C.2     1  UNL1        0.1221
      2 C          -2.6023  -19.5660   21.6413 C.2     1  UNL1        0.0343
      3 C          -3.8974  -19.7501   22.3753 C.2     1  UNL1        0.0232
      4 C          -5.1983  -19.4722   21.6823 C.2     1  UNL1        0.0975
      5 N          -6.6220  -19.5634   22.1457 N.2     1  UNL1       -0.2200
      6 C          -7.5077  -19.1578   21.0051 C.2     1  UNL1        0.1901
      7 N          -6.6314  -18.8160   19.8366 N.2     1  UNL1       -0.2236
      8 C          -5.2041  -19.0103   20.2552 C.2     1  UNL1        0.0863
      9 C          -3.9090  -18.8263   19.5212 C.3     1  UNL1        0.1112
     10 O          -1.3129  -18.9201   19.4802 O.2     1  UNL1       -0.4793
     11 C          -0.8983  -16.5787   20.5269 C.3     1  UNL1        0.0511
     12 C          -0.3689  -17.8279   19.8871 C.3     1  UNL1        0.2051
     13 S          -9.0066  -19.1036   21.0287 S.3     1  UNL1       -0.0692
     14 C          -9.7051  -17.8364   21.4238 C.3     1  UNL1        0.1107
     15 C          -9.0900  -16.9286   22.4473 C.ar    1  UNL1        0.0703
     16 C          -9.5560  -16.9801   23.8721 C.ar    1  UNL1        0.0156
     17 C          -8.9409  -16.0724   24.8956 C.ar    1  UNL1        0.0028
     18 C          -7.8597  -15.1132   24.4943 C.ar    1  UNL1        0.0207
     19 C          -7.3936  -15.0617   23.0695 C.ar    1  UNL1        0.0985
     20 N          -8.0088  -15.9695   22.0460 N.ar    1  UNL1       -0.2473
@<TRIPOS>BOND
     1    11    12    1
     2    12    10    1
     3    10     1    1
     4     1     2    2
     5     2     3    1
     6     3     4    2
     7     4     5    1
     8     5     6    2
     9     6    13    1
    10    13    14    1
    11    14    15    1
    12    15    16   ar
    13    16    17   ar
    14    17    18   ar
    15    18    19   ar
    16    19    20   ar
    17     6     7    1
    18     7     8    2
    19     8     9    1
    20     9     1    1
    21     8     4    1
    22    20    15   ar
@<TRIPOS>MOLECULE
*****
 20 22 0 0 0
SMALL
GASTEIGER

@<TRIPOS>ATOM
      1 C         -11.0483  -18.2336   23.6972 C.2     1  UNL1        0.1221
      2 C         -10.8493  -16.9090   23.0221 C.2     1  UNL1        0.0343
      3 C          -9.6218  -16.6657   22.1950 C.2     1  UNL1        0.0232
      4 C          -8.5933  -17.7469   22.0430 C.2     1  UNL1        0.0975
      5 N          -7.2931  -17.7977   21.2968 N.2     1  UNL1       -0.2200
      6 C          -6.6885  -19.1537   21.5107 C.2     1  UNL1        0.1901
      7 N          -7.6151  -19.9410   22.3892 N.2     1  UNL1       -0.2236
      8 C          -8.7923  -19.0715   22.7181 C.2     1  UNL1        0.0863
      9 C         -10.0198  -19.3149   23.5452 C.3     1  UNL1        0.1112
     10 O         -12.2757  -18.4770   24.5243 O.2     1  UNL1       -0.4793
     11 C         -14.8606  -18.4153   24.7783 C.3     1  UNL1        0.0511
     12 C         -13.6224  -18.0668   24.0066 C.3     1  UNL1        0.2051
     13 S          -5.3860  -19.6375   20.9454 S.3     1  UNL1       -0.0692
     14 C          -4.1292  -19.5273   21.7568 C.3     1  UNL1        0.1107
     15 C          -3.0433  -18.5833   21.3331 C.ar    1  UNL1        0.0703
     16 C          -2.0222  -19.0190   20.3244 C.ar    1  UNL1        0.0156
     17 C          -0.9362  -18.0750   19.9007 C.ar    1  UNL1        0.0028
     18 C          -0.8714  -16.6952   20.4857 C.ar    1  UNL1        0.0207
     19 C          -1.8925  -16.2596   21.4944 C.ar    1  UNL1        0.0985
     20 N          -2.9785  -17.2037   21.9181 N.ar    1  UNL1       -0.2473
@<TRIPOS>BOND
     1    11    12    1
     2    12    10    1
     3    10     1    1
     4     1     2    2
     5     2     3    1
     6     3     4    2
     7     4     5    1
     8     5     6    2
     9     6    13    1
    10    13    14    1
    11    14    15    1
    12    15    16   ar
    13    16    17   ar
    14    17    18   ar
    15    18    19   ar
    16    19    20   ar
    17     6     7    1
    18     7     8    2
    19     8     9    1
    20     9     1    1
    21     8     4    1
    22    20    15   ar
@<TRIPOS>MOLECULE
*****
 20 22 0 0 0
SMALL
GASTEIGER

@<TRIPOS>ATOM
      1 C          -2.8948  -19.1937   20.9483 C.2     1  UNL1        0.1221
      2 C          -3.1950  -18.7758   22.3573 C.2     1  UNL1        0.0343
      3 C          -4.6174  -18.6090   22.8032 C.2     1  UNL1        0.0232
      4 C          -5.7397  -18.8602   21.8402 C.2     1  UNL1        0.0975
      5 N          -7.2297  -18.7774   21.9916 N.2     1  UNL1       -0.2200
      6 C          -7.8504  -19.1441   20.6762 C.2     1  UNL1        0.1901
      7 N          -6.7440  -19.4536   19.7118 N.2     1  UNL1       -0.2236
      8 C          -5.4395  -19.2781   20.4312 C.2     1  UNL1        0.0863
      9 C          -4.0170  -19.4448   19.9853 C.3     1  UNL1        0.1112
     10 O          -1.4723  -19.3604   20.5024 O.2     1  UNL1       -0.4793
     11 C          -0.8687  -16.8391   20.3336 C.3     1  UNL1        0.0511
     12 C          -0.7703  -18.2371   19.7987 C.3     1  UNL1        0.2051
     13 S          -9.3196  -19.1929   20.3777 S.3     1  UNL1       -0.0692
     14 C         -10.2104  -18.0658   20.8092 C.3     1  UNL1        0.1107
     15 C         -11.0581  -18.2083   22.0384 C.ar    1  UNL1        0.0703
     16 C         -12.4631  -17.6829   22.0456 C.ar    1  UNL1        0.0156
     17 C         -13.3108  -17.8254   23.2748 C.ar    1  UNL1        0.0028
     18 C         -12.7536  -18.4933   24.4969 C.ar    1  UNL1        0.0207
     19 C         -11.3486  -19.0187   24.4898 C.ar    1  UNL1        0.0985
     20 N         -10.5009  -18.8762   23.2604 N.ar    1  UNL1       -0.2473
@<TRIPOS>BOND
     1    11    12    1
     2    12    10    1
     3    10     1    1
     4     1     2    2
     5     2     3    1
     6     3     4    2
     7     4     5    1
     8     5     6    2
     9     6    13    1
    10    13    14    1
    11    14    15    1
    12    15    16   ar
    13    16    17   ar
    14    17    18   ar
    15    18    19   ar
    16    19    20   ar
    17     6     7    1
    18     7     8    2
    19     8     9    1
    20     9     1    1
    21     8     4    1
    22    20    15   ar
@<TRIPOS>MOLECULE
*****
 20 22 0 0 0
SMALL
GASTEIGER

@<TRIPOS>ATOM
      1 C          -9.9208  -17.5374   22.8292 C.2     1  UNL1        0.1221
      2 C          -9.9811  -18.8395   23.5714 C.2     1  UNL1        0.0343
      3 C          -8.9611  -19.9054   23.3003 C.2     1  UNL1        0.0232
      4 C          -7.8808  -19.6692   22.2869 C.2     1  UNL1        0.0975
      5 N          -6.7461  -20.5271   21.8109 N.2     1  UNL1       -0.2200
      6 C          -5.9845  -19.7552   20.7745 C.2     1  UNL1        0.1901
      7 N          -6.6484  -18.4202   20.6099 N.2     1  UNL1       -0.2236
      8 C          -7.8204  -18.3671   21.5447 C.2     1  UNL1        0.0863
      9 C          -8.8404  -17.3012   21.8158 C.3     1  UNL1        0.1112
     10 O         -10.9408  -16.4716   23.1004 O.2     1  UNL1       -0.4793
     11 C         -12.6866  -17.3531   21.3901 C.3     1  UNL1        0.0511
     12 C         -12.0332  -16.2087   22.1067 C.3     1  UNL1        0.2051
     13 S          -4.7718  -20.2342   20.0329 S.3     1  UNL1       -0.0692
     14 C          -3.4206  -20.1651   20.6807 C.3     1  UNL1        0.1107
     15 C          -2.7519  -18.8375   20.8810 C.ar    1  UNL1        0.0703
     16 C          -1.5682  -18.4595   20.0408 C.ar    1  UNL1        0.0156
     17 C          -0.8995  -17.1319   20.2412 C.ar    1  UNL1        0.0028
     18 C          -1.4146  -16.1821   21.2818 C.ar    1  UNL1        0.0207
     19 C          -2.5983  -16.5601   22.1220 C.ar    1  UNL1        0.0985
     20 N          -3.2670  -17.8878   21.9216 N.ar    1  UNL1       -0.2473
@<TRIPOS>BOND
     1    11    12    1
     2    12    10    1
     3    10     1    1
     4     1     2    2
     5     2     3    1
     6     3     4    2
     7     4     5    1
     8     5     6    2
     9     6    13    1
    10    13    14    1
    11    14    15    1
    12    15    16   ar
    13    16    17   ar
    14    17    18   ar
    15    18    19   ar
    16    19    20   ar
    17     6     7    1
    18     7     8    2
    19     8     9    1
    20     9     1    1
    21     8     4    1
    22    20    15   ar
@<TRIPOS>MOLECULE
*****
 20 22 0 0 0
SMALL
GASTEIGER

@<TRIPOS>ATOM
      1 C          -8.8240  -15.9751   24.4385 C.2     1  UNL1        0.1221
      2 C         -10.1123  -16.2962   23.7405 C.2     1  UNL1        0.0343
      3 C         -10.1098  -17.1883   22.5347 C.2     1  UNL1        0.0232
      4 C          -8.8192  -17.7594   22.0268 C.2     1  UNL1        0.0975
      5 N          -8.5072  -18.6620   20.8701 N.2     1  UNL1       -0.2200
      6 C          -7.0261  -18.8989   20.8533 C.2     1  UNL1        0.1901
      7 N          -6.4227  -18.1426   21.9995 N.2     1  UNL1       -0.2236
      8 C          -7.5309  -17.4383   22.7248 C.2     1  UNL1        0.0863
      9 C          -7.5333  -16.5462   23.9307 C.3     1  UNL1        0.1112
     10 O          -8.8264  -15.0830   25.6444 O.2     1  UNL1       -0.4793
     11 C          -6.8100  -15.3744   27.2565 C.3     1  UNL1        0.0511
     12 C          -8.2630  -15.5769   26.9439 C.3     1  UNL1        0.2051
     13 S          -6.2795  -19.7437   19.8638 S.3     1  UNL1       -0.0692
     14 C          -5.0120  -20.4339   20.2725 C.3     1  UNL1        0.1107
     15 C          -3.7379  -19.6519   20.3945 C.ar    1  UNL1        0.0703
     16 C          -3.0722  -19.5063   21.7308 C.ar    1  UNL1        0.0156
     17 C          -1.7981  -18.7243   21.8528 C.ar    1  UNL1        0.0028
     18 C          -1.1895  -18.0878   20.6384 C.ar    1  UNL1        0.0207
     19 C          -1.8552  -18.2333   19.3021 C.ar    1  UNL1        0.0985
     20 N          -3.1294  -19.0154   19.1802 N.ar    1  UNL1       -0.2473
@<TRIPOS>BOND
     1    11    12    1
     2    12    10    1
     3    10     1    1
     4     1     2    2
     5     2     3    1
     6     3     4    2
     7     4     5    1
     8     5     6    2
     9     6    13    1
    10    13    14    1
    11    14    15    1
    12    15    16   ar
    13    16    17   ar
    14    17    18   ar
    15    18    19   ar
    16    19    20   ar
    17     6     7    1
    18     7     8    2
    19     8     9    1
    20     9     1    1
    21     8     4    1
    22    20    15   ar
@<TRIPOS>MOLECULE
*****
 20 22 0 0 0
SMALL
GASTEIGER

@<TRIPOS>ATOM
      1 C          -9.4031  -17.4531   22.8835 C.2     1  UNL1        0.1221
      2 C         -10.2127  -18.0399   21.7653 C.2     1  UNL1        0.0343
      3 C          -9.5486  -18.8952   20.7273 C.2     1  UNL1        0.0232
      4 C          -8.0751  -19.1637   20.8074 C.2     1  UNL1        0.0975
      5 N          -7.1515  -19.9622   19.9360 N.2     1  UNL1       -0.2200
      6 C          -5.7711  -19.8688   20.5155 C.2     1  UNL1        0.1901
      7 N          -5.8416  -19.0127   21.7452 N.2     1  UNL1       -0.2236
      8 C          -7.2655  -18.5770   21.9256 C.2     1  UNL1        0.0863
      9 C          -7.9296  -17.7216   22.9636 C.3     1  UNL1        0.1112
     10 O         -10.0672  -16.5978   23.9215 O.2     1  UNL1       -0.4793
     11 C          -8.5652  -15.9069   25.9257 C.3     1  UNL1        0.0511
     12 C          -9.2751  -15.5544   24.6522 C.3     1  UNL1        0.2051
     13 S          -4.5369  -20.5178   19.9625 S.3     1  UNL1       -0.0692
     14 C          -3.2280  -20.3744   20.6810 C.3     1  UNL1        0.1107
     15 C          -2.5735  -19.0288   20.7858 C.ar    1  UNL1        0.0703
     16 C          -1.6808  -18.5411   19.6834 C.ar    1  UNL1        0.0156
     17 C          -1.0263  -17.1955   19.7883 C.ar    1  UNL1        0.0028
     18 C          -1.2643  -16.3377   20.9956 C.ar    1  UNL1        0.0207
     19 C          -2.1569  -16.8255   22.0980 C.ar    1  UNL1        0.0985
     20 N          -2.8115  -18.1711   21.9931 N.ar    1  UNL1       -0.2473
@<TRIPOS>BOND
     1    11    12    1
     2    12    10    1
     3    10     1    1
     4     1     2    2
     5     2     3    1
     6     3     4    2
     7     4     5    1
     8     5     6    2
     9     6    13    1
    10    13    14    1
    11    14    15    1
    12    15    16   ar
    13    16    17   ar
    14    17    18   ar
    15    18    19   ar
    16    19    20   ar
    17     6     7    1
    18     7     8    2
    19     8     9    1
    20     9     1    1
    21     8     4    1
    22    20    15   ar
@<TRIPOS>MOLECULE
*****
 20 22 0 0 0
SMALL
GASTEIGER

@<TRIPOS>ATOM
      1 C         -16.5285   -8.0411   17.6831 C.2     1  UNL1        0.1221
      2 C         -16.7376   -7.0364   18.7772 C.2     1  UNL1        0.0343
      3 C         -15.5563   -6.3830   19.4311 C.2     1  UNL1        0.0232
      4 C         -14.1660   -6.7341   18.9910 C.2     1  UNL1        0.0975
      5 N         -12.8186   -6.2577   19.4465 N.2     1  UNL1       -0.2200
      6 C         -11.7768   -6.9680   18.6339 C.2     1  UNL1        0.1901
      7 N         -12.4803   -7.8833   17.6763 N.2     1  UNL1       -0.2236
      8 C         -13.9570   -7.7388   17.8970 C.2     1  UNL1        0.0863
      9 C         -15.1382   -8.3923   17.2431 C.3     1  UNL1        0.1112
     10 O         -17.7098   -8.6946   17.0292 O.2     1  UNL1       -0.4793
     11 C         -19.4560  -10.4385   17.8413 C.3     1  UNL1        0.0511
     12 C         -18.9231   -9.0363   17.8422 C.3     1  UNL1        0.2051
     13 S         -10.2920   -6.7934   18.7574 S.3     1  UNL1       -0.0692
     14 C          -9.7223   -5.4560   19.1271 C.3     1  UNL1        0.1107
     15 C          -9.9023   -4.2842   18.2083 C.ar    1  UNL1        0.0703
     16 C          -9.1599   -4.2313   16.9059 C.ar    1  UNL1        0.0156
     17 C          -9.3399   -3.0594   15.9871 C.ar    1  UNL1        0.0028
     18 C         -10.2623   -1.9403   16.3706 C.ar    1  UNL1        0.0207
     19 C         -11.0047   -1.9932   17.6730 C.ar    1  UNL1        0.0985
     20 N         -10.8246   -3.1652   18.5918 N.ar    1  UNL1       -0.2473
@<TRIPOS>BOND
     1    11    12    1
     2    12    10    1
     3    10     1    1
     4     1     2    2
     5     2     3    1
     6     3     4    2
     7     4     5    1
     8     5     6    2
     9     6    13    1
    10    13    14    1
    11    14    15    1
    12    15    16   ar
    13    16    17   ar
    14    17    18   ar
    15    18    19   ar
    16    19    20   ar
    17     6     7    1
    18     7     8    2
    19     8     9    1
    20     9     1    1
    21     8     4    1
    22    20    15   ar
@<TRIPOS>MOLECULE
*****
 20 22 0 0 0
SMALL
GASTEIGER

@<TRIPOS>ATOM
      1 C         -16.4246   -9.1311   18.9452 C.2     1  UNL1        0.1221
      2 C         -15.2265   -9.5420   18.1417 C.2     1  UNL1        0.0343
      3 C         -14.1532   -8.5415   17.8303 C.2     1  UNL1        0.0232
      4 C         -14.2780   -7.1300   18.3224 C.2     1  UNL1        0.0975
      5 N         -13.3870   -5.9326   18.1733 N.2     1  UNL1       -0.2200
      6 C         -14.0344   -4.7816   18.8847 C.2     1  UNL1        0.1901
      7 N         -15.3256   -5.2677   19.4734 N.2     1  UNL1       -0.2236
      8 C         -15.4761   -6.7191   19.1259 C.2     1  UNL1        0.0863
      9 C         -16.5494   -7.7197   19.4373 C.3     1  UNL1        0.1112
     10 O         -17.4979  -10.1316   19.2566 O.2     1  UNL1       -0.4793
     11 C         -19.0281  -10.1407   17.1570 C.3     1  UNL1        0.0511
     12 C         -18.8577   -9.9894   18.6396 C.3     1  UNL1        0.2051
     13 S         -13.4868   -3.3890   18.9890 S.3     1  UNL1       -0.0692
     14 C         -12.0300   -3.1755   19.2757 C.3     1  UNL1        0.1107
     15 C         -11.0192   -3.3296   18.1782 C.ar    1  UNL1        0.0703
     16 C         -10.0837   -4.5021   18.1794 C.ar    1  UNL1        0.0156
     17 C          -9.0729   -4.6562   17.0819 C.ar    1  UNL1        0.0028
     18 C          -8.9976   -3.6377   15.9832 C.ar    1  UNL1        0.0207
     19 C          -9.9331   -2.4652   15.9820 C.ar    1  UNL1        0.0985
     20 N         -10.9439   -2.3112   17.0796 N.ar    1  UNL1       -0.2473
@<TRIPOS>BOND
     1    11    12    1
     2    12    10    1
     3    10     1    1
     4     1     2    2
     5     2     3    1
     6     3     4    2
     7     4     5    1
     8     5     6    2
     9     6    13    1
    10    13    14    1
    11    14    15    1
    12    15    16   ar
    13    16    17   ar
    14    17    18   ar
    15    18    19   ar
    16    19    20   ar
    17     6     7    1
    18     7     8    2
    19     8     9    1
    20     9     1    1
    21     8     4    1
    22    20    15   ar
@<TRIPOS>MOLECULE
*****
 20 22 0 0 0
SMALL
GASTEIGER

@<TRIPOS>ATOM
      1 C         -17.9182   -8.0719   19.4064 C.2     1  UNL1        0.1221
      2 C         -18.7483   -6.8245   19.3364 C.2     1  UNL1        0.0343
      3 C         -18.0832   -5.4800   19.3358 C.2     1  UNL1        0.0232
      4 C         -16.5880   -5.3829   19.4053 C.2     1  UNL1        0.0975
      5 N         -15.6582   -4.2059   19.4215 N.2     1  UNL1       -0.2200
      6 C         -14.2535   -4.7259   19.5015 C.2     1  UNL1        0.1901
      7 N         -14.3150   -6.2242   19.5348 N.2     1  UNL1       -0.2236
      8 C         -15.7579   -6.6303   19.4753 C.2     1  UNL1        0.0863
      9 C         -16.4230   -7.9748   19.4759 C.3     1  UNL1        0.1112
     10 O         -18.5833   -9.4163   19.4069 O.2     1  UNL1       -0.4793
     11 C         -19.3890  -10.1949   17.0629 C.3     1  UNL1        0.0511
     12 C         -18.4433  -10.3229   18.2201 C.3     1  UNL1        0.2051
     13 S         -13.0062   -3.8935   19.5413 S.3     1  UNL1       -0.0692
     14 C         -11.9484   -4.0770   18.4938 C.3     1  UNL1        0.1107
     15 C         -11.1695   -5.3574   18.4306 C.ar    1  UNL1        0.0703
     16 C          -9.9490   -5.5357   19.2842 C.ar    1  UNL1        0.0156
     17 C          -9.1701   -6.8160   19.2211 C.ar    1  UNL1        0.0028
     18 C          -9.6117   -7.9181   18.3043 C.ar    1  UNL1        0.0207
     19 C         -10.8322   -7.7398   17.4507 C.ar    1  UNL1        0.0985
     20 N         -11.6111   -6.4594   17.5139 N.ar    1  UNL1       -0.2473
@<TRIPOS>BOND
     1    11    12    1
     2    12    10    1
     3    10     1    1
     4     1     2    2
     5     2     3    1
     6     3     4    2
     7     4     5    1
     8     5     6    2
     9     6    13    1
    10    13    14    1
    11    14    15    1
    12    15    16   ar
    13    16    17   ar
    14    17    18   ar
    15    18    19   ar
    16    19    20   ar
    17     6     7    1
    18     7     8    2
    19     8     9    1
    20     9     1    1
    21     8     4    1
    22    20    15   ar
