@<TRIPOS>MOLECULE
*****
 30 33 0 0 0
SMALL
GASTEIGER

@<TRIPOS>ATOM
      1 N          -5.5990  -16.5724   23.4360 N.pl3   1  UNL1       -0.2567
      2 C          -6.9691  -17.1594   23.6044 C.ar    1  UNL1        0.1408
      3 N          -7.8395  -16.2838   24.4562 N.ar    1  UNL1       -0.2290
      4 C          -9.2534  -16.6898   24.7493 C.ar    1  UNL1        0.0969
      5 C          -9.7969  -17.9714   24.1906 C.ar    1  UNL1        0.0084
      6 C          -8.9265  -18.8470   23.3388 C.ar    1  UNL1        0.0055
      7 C          -7.5126  -18.4410   23.0457 C.ar    1  UNL1        0.0853
      8 C          -6.8202  -19.4520   22.1805 C.2     1  UNL1        0.2523
      9 O          -7.6435  -20.6411   21.7829 O.2     1  UNL1       -0.2697
     10 N          -5.4134  -19.4312   21.6604 N.am    1  UNL1       -0.2784
     11 C          -4.3515  -18.3942   21.8770 C.ar    1  UNL1        0.0789
     12 C          -3.0769  -18.7603   21.1761 C.ar    1  UNL1       -0.0041
     13 C          -2.9943  -20.0325   20.3859 C.3     1  UNL1        0.0325
     14 C          -1.8848  -17.8541   21.2654 C.ar    1  UNL1        0.0177
     15 C          -1.9674  -16.5819   22.0556 C.ar    1  UNL1        0.1001
     16 N          -3.2420  -16.2157   22.7565 N.ar    1  UNL1       -0.2276
     17 C          -4.4341  -17.1218   22.6672 C.ar    1  UNL1        0.1497
     18 H          -5.1526  -20.1998   21.1031 H       1  UNL1        0.1552
     19 C          -5.1390  -15.2273   25.6107 C.3     1  UNL1        0.0237
     20 C          -5.3626  -15.2626   24.1278 C.3     1  UNL1        0.0984
     21 C         -11.2109  -18.3773   24.4837 C.3     1  UNL1        0.0899
     22 S         -12.2184  -18.4404   23.3742 S.3     1  UNL1       -0.1087
     23 C         -11.7833  -18.2353   21.9534 C.ar    1  UNL1        0.0279
     24 C         -11.0604  -19.3293   21.2251 C.ar    1  UNL1        0.0209
     25 C         -10.6253  -19.1242   19.8043 C.ar    1  UNL1        0.0595
     26 C          -9.9023  -20.2182   19.0759 C.3     1  UNL1        0.0521
     27 N         -10.9132  -17.8251   19.1119 N.ar    1  UNL1       -0.2539
     28 C         -11.6362  -16.7311   19.8402 C.ar    1  UNL1        0.0595
     29 C         -11.9241  -15.4320   19.1478 C.3     1  UNL1        0.0521
     30 C         -12.0712  -16.9362   21.2610 C.ar    1  UNL1        0.0209
@<TRIPOS>BOND
     1    19    20    1
     2    20     1    1
     3     1     2    1
     4     2     3   ar
     5     3     4   ar
     6     4     5   ar
     7     5    21    1
     8    21    22    1
     9    22    23    1
    10    23    24   ar
    11    24    25   ar
    12    25    26    1
    13    25    27   ar
    14    27    28   ar
    15    28    29    1
    16    28    30   ar
    17     5     6   ar
    18     6     7   ar
    19     7     8    1
    20     8     9    2
    21     8    10   am
    22    10    11    1
    23    11    12   ar
    24    12    13    1
    25    12    14   ar
    26    14    15   ar
    27    15    16   ar
    28    16    17   ar
    29    17     1    1
    30     7     2   ar
    31    17    11   ar
    32    30    23   ar
    33    10    18    1
@<TRIPOS>MOLECULE
*****
 30 33 0 0 0
SMALL
GASTEIGER

@<TRIPOS>ATOM
      1 N           7.1518   -3.7475   26.9103 N.pl3   1  UNL1       -0.2567
      2 C           6.8580   -3.2842   28.3063 C.ar    1  UNL1        0.1408
      3 N           6.6000   -1.8073   28.3507 N.ar    1  UNL1       -0.2290
      4 C           6.2854   -1.1398   29.6566 C.ar    1  UNL1        0.0969
      5 C           6.2288   -1.9493   30.9182 C.ar    1  UNL1        0.0084
      6 C           6.4868   -3.4262   30.8738 C.ar    1  UNL1        0.0055
      7 C           6.8014   -4.0937   29.5679 C.ar    1  UNL1        0.0853
      8 C           7.0246   -5.5664   29.7449 C.2     1  UNL1        0.2523
      9 O           6.8958   -6.0801   31.1483 O.2     1  UNL1       -0.2697
     10 N           7.3595   -6.5934   28.7042 N.am    1  UNL1       -0.2784
     11 C           7.5539   -6.4012   27.2292 C.ar    1  UNL1        0.0789
     12 C           7.8794   -7.6964   26.5461 C.ar    1  UNL1       -0.0041
     13 C           7.9718   -8.9628   27.3444 C.3     1  UNL1        0.0325
     14 C           8.1124   -7.7250   25.0645 C.ar    1  UNL1        0.0177
     15 C           8.0200   -6.4585   24.2662 C.ar    1  UNL1        0.1001
     16 N           7.6945   -5.1634   24.9494 N.ar    1  UNL1       -0.2276
     17 C           7.4615   -5.1347   26.4308 C.ar    1  UNL1        0.1497
     18 H           7.4657   -7.5154   29.0325 H       1  UNL1        0.1552
     19 C           5.8696   -2.3983   25.0976 C.3     1  UNL1        0.0237
     20 C           7.1334   -2.6828   25.8538 C.3     1  UNL1        0.0984
     21 C           5.9142   -1.2818   32.2242 C.3     1  UNL1        0.0899
     22 S           4.5160   -1.3159   32.7663 S.3     1  UNL1       -0.1087
     23 C           3.4634   -0.4202   32.1832 C.ar    1  UNL1        0.0279
     24 C           3.0389    0.8159   32.9192 C.ar    1  UNL1        0.0209
     25 C           1.9863    1.7115   32.3362 C.ar    1  UNL1        0.0595
     26 C           1.5617    2.9478   33.0722 C.3     1  UNL1        0.0521
     27 N           1.3584    1.3710   31.0172 N.ar    1  UNL1       -0.2539
     28 C           1.7829    0.1349   30.2813 C.ar    1  UNL1        0.0595
     29 C           1.1549   -0.2056   28.9623 C.3     1  UNL1        0.0521
     30 C           2.8354   -0.7607   30.8643 C.ar    1  UNL1        0.0209
@<TRIPOS>BOND
     1    19    20    1
     2    20     1    1
     3     1     2    1
     4     2     3   ar
     5     3     4   ar
     6     4     5   ar
     7     5    21    1
     8    21    22    1
     9    22    23    1
    10    23    24   ar
    11    24    25   ar
    12    25    26    1
    13    25    27   ar
    14    27    28   ar
    15    28    29    1
    16    28    30   ar
    17     5     6   ar
    18     6     7   ar
    19     7     8    1
    20     8     9    2
    21     8    10   am
    22    10    11    1
    23    11    12   ar
    24    12    13    1
    25    12    14   ar
    26    14    15   ar
    27    15    16   ar
    28    16    17   ar
    29    17     1    1
    30     7     2   ar
    31    17    11   ar
    32    30    23   ar
    33    10    18    1
@<TRIPOS>MOLECULE
*****
 30 33 0 0 0
SMALL
GASTEIGER

@<TRIPOS>ATOM
      1 N           2.3474   -0.6905   20.7402 N.pl3   1  UNL1       -0.2567
      2 C           1.8941    0.1115   21.9240 C.ar    1  UNL1        0.1408
      3 N           0.8274    1.0951   21.5436 N.ar    1  UNL1       -0.2290
      4 C           0.2350    1.9987   22.5841 C.ar    1  UNL1        0.0969
      5 C           0.7093    1.9187   24.0049 C.ar    1  UNL1        0.0084
      6 C           1.7759    0.9351   24.3852 C.ar    1  UNL1        0.0055
      7 C           2.3683    0.0315   23.3448 C.ar    1  UNL1        0.0853
      8 C           3.4130   -0.8703   23.9327 C.2     1  UNL1        0.2523
      9 O           3.6622   -0.7058   25.4026 O.2     1  UNL1       -0.2697
     10 N           4.2414   -1.9147   23.2450 N.am    1  UNL1       -0.2784
     11 C           4.2297   -2.3154   21.7995 C.ar    1  UNL1        0.0789
     12 C           5.2203   -3.4079   21.5257 C.ar    1  UNL1       -0.0041
     13 C           6.0632   -3.9527   22.6404 C.3     1  UNL1        0.0325
     14 C           5.3681   -3.9556   20.1370 C.ar    1  UNL1        0.0177
     15 C           4.5252   -3.4107   19.0223 C.ar    1  UNL1        0.1001
     16 N           3.5346   -2.3182   19.2962 N.ar    1  UNL1       -0.2276
     17 C           3.3868   -1.7705   20.6847 C.ar    1  UNL1        0.1497
     18 H           4.8767   -2.4017   23.8181 H       1  UNL1        0.1552
     19 C           2.2607    0.6607   18.5228 C.3     1  UNL1        0.0237
     20 C           1.6718   -0.3700   19.4398 C.3     1  UNL1        0.0984
     21 C           0.1168    2.8223   25.0453 C.3     1  UNL1        0.0899
     22 S           0.8907    3.1418   26.2898 S.3     1  UNL1       -0.1087
     23 C           0.5399    2.4702   27.5844 C.ar    1  UNL1        0.0279
     24 C          -0.3305    1.2486   27.5838 C.ar    1  UNL1        0.0209
     25 C          -0.6813    0.5770   28.8784 C.ar    1  UNL1        0.0595
     26 C          -1.5518   -0.6446   28.8778 C.3     1  UNL1        0.0521
     27 N          -0.1616    1.1270   30.1735 N.ar    1  UNL1       -0.2539
     28 C           0.7089    2.3485   30.1741 C.ar    1  UNL1        0.0595
     29 C           1.2286    2.8985   31.4693 C.3     1  UNL1        0.0521
     30 C           1.0596    3.0201   28.8796 C.ar    1  UNL1        0.0209
@<TRIPOS>BOND
     1    19    20    1
     2    20     1    1
     3     1     2    1
     4     2     3   ar
     5     3     4   ar
     6     4     5   ar
     7     5    21    1
     8    21    22    1
     9    22    23    1
    10    23    24   ar
    11    24    25   ar
    12    25    26    1
    13    25    27   ar
    14    27    28   ar
    15    28    29    1
    16    28    30   ar
    17     5     6   ar
    18     6     7   ar
    19     7     8    1
    20     8     9    2
    21     8    10   am
    22    10    11    1
    23    11    12   ar
    24    12    13    1
    25    12    14   ar
    26    14    15   ar
    27    15    16   ar
    28    16    17   ar
    29    17     1    1
    30     7     2   ar
    31    17    11   ar
    32    30    23   ar
    33    10    18    1
@<TRIPOS>MOLECULE
*****
 30 33 0 0 0
SMALL
GASTEIGER

@<TRIPOS>ATOM
      1 N           4.4318    0.4704   35.5273 N.pl3   1  UNL1       -0.2567
      2 C           4.1114    0.2611   34.0770 C.ar    1  UNL1        0.1408
      3 N           4.9331   -0.8471   33.4884 N.ar    1  UNL1       -0.2290
      4 C           4.7665   -1.2191   32.0449 C.ar    1  UNL1        0.0969
      5 C           3.7781   -0.4829   31.1899 C.ar    1  UNL1        0.0084
      6 C           2.9563    0.6253   31.7784 C.ar    1  UNL1        0.0055
      7 C           3.1230    0.9974   33.2219 C.ar    1  UNL1        0.0853
      8 C           2.2109    2.1246   33.6062 C.2     1  UNL1        0.2523
      9 O           1.3315    2.6522   32.5115 O.2     1  UNL1       -0.2697
     10 N           2.0620    2.7941   34.9402 N.am    1  UNL1       -0.2784
     11 C           2.7885    2.5015   36.2196 C.ar    1  UNL1        0.0789
     12 C           2.3374    3.4088   37.3256 C.ar    1  UNL1       -0.0041
     13 C           1.2827    4.4429   37.0644 C.3     1  UNL1        0.0325
     14 C           2.9409    3.2820   38.6930 C.ar    1  UNL1        0.0177
     15 C           3.9955    2.2479   38.9543 C.ar    1  UNL1        0.1001
     16 N           4.4466    1.3406   37.8483 N.ar    1  UNL1       -0.2276
     17 C           3.8431    1.4674   36.4809 C.ar    1  UNL1        0.1497
     18 H           1.4000    3.5216   34.9816 H       1  UNL1        0.1552
     19 C           6.9244   -0.0366   36.0566 C.3     1  UNL1        0.0237
     20 C           5.4796   -0.4376   36.0998 C.3     1  UNL1        0.0984
     21 C           3.6116   -0.8550   29.7463 C.3     1  UNL1        0.0899
     22 S           3.4140    0.2151   28.7140 S.3     1  UNL1       -0.1087
     23 C           2.0436    0.4865   28.1677 C.ar    1  UNL1        0.0279
     24 C           0.8313    0.0216   28.9187 C.ar    1  UNL1        0.0209
     25 C          -0.5391    0.2930   28.3725 C.ar    1  UNL1        0.0595
     26 C          -1.7515   -0.1719   29.1235 C.3     1  UNL1        0.0521
     27 N          -0.6971    1.0292   27.0752 N.ar    1  UNL1       -0.2539
     28 C           0.5152    1.4941   26.3241 C.ar    1  UNL1        0.0595
     29 C           0.3572    2.2303   25.0268 C.3     1  UNL1        0.0521
     30 C           1.8856    1.2227   26.8704 C.ar    1  UNL1        0.0209
@<TRIPOS>BOND
     1    19    20    1
     2    20     1    1
     3     1     2    1
     4     2     3   ar
     5     3     4   ar
     6     4     5   ar
     7     5    21    1
     8    21    22    1
     9    22    23    1
    10    23    24   ar
    11    24    25   ar
    12    25    26    1
    13    25    27   ar
    14    27    28   ar
    15    28    29    1
    16    28    30   ar
    17     5     6   ar
    18     6     7   ar
    19     7     8    1
    20     8     9    2
    21     8    10   am
    22    10    11    1
    23    11    12   ar
    24    12    13    1
    25    12    14   ar
    26    14    15   ar
    27    15    16   ar
    28    16    17   ar
    29    17     1    1
    30     7     2   ar
    31    17    11   ar
    32    30    23   ar
    33    10    18    1
@<TRIPOS>MOLECULE
*****
 30 33 0 0 0
SMALL
GASTEIGER

@<TRIPOS>ATOM
      1 N           7.1673   -3.6425   27.3068 N.pl3   1  UNL1       -0.2567
      2 C           6.9582   -3.2883   28.7493 C.ar    1  UNL1        0.1408
      3 N           6.7263   -1.8167   28.9243 N.ar    1  UNL1       -0.2290
      4 C           6.4946   -1.2517   30.2944 C.ar    1  UNL1        0.0969
      5 C           6.4948   -2.1583   31.4894 C.ar    1  UNL1        0.0084
      6 C           6.7267   -3.6298   31.3144 C.ar    1  UNL1        0.0055
      7 C           6.9584   -4.1949   29.9444 C.ar    1  UNL1        0.0853
      8 C           7.1677   -5.6794   29.9920 C.2     1  UNL1        0.2523
      9 O           7.1084   -6.3016   31.3556 O.2     1  UNL1       -0.2697
     10 N           7.4286   -6.6241   28.8565 N.am    1  UNL1       -0.2784
     11 C           7.5445   -6.3175   27.3927 C.ar    1  UNL1        0.0789
     12 C           7.8114   -7.5578   26.5925 C.ar    1  UNL1       -0.0041
     13 C           7.9277   -8.8847   27.2821 C.3     1  UNL1        0.0325
     14 C           7.9620   -7.4712   25.1025 C.ar    1  UNL1        0.0177
     15 C           7.8457   -6.1442   24.4129 C.ar    1  UNL1        0.1001
     16 N           7.5788   -4.9039   25.2131 N.ar    1  UNL1       -0.2276
     17 C           7.4282   -4.9905   26.7030 C.ar    1  UNL1        0.1497
     18 H           7.5382   -7.5705   29.1047 H       1  UNL1        0.1552
     19 C           8.3406   -1.6923   26.0537 C.3     1  UNL1        0.0237
     20 C           7.1075   -2.4970   26.3402 C.3     1  UNL1        0.0984
     21 C           6.2632   -1.5932   32.8595 C.3     1  UNL1        0.0899
     22 S           4.8941   -1.6443   33.4702 S.3     1  UNL1       -0.1087
     23 C           4.3525   -0.4498   34.1982 C.ar    1  UNL1        0.0279
     24 C           3.4833    0.5374   33.4772 C.ar    1  UNL1        0.0209
     25 C           2.9417    1.7318   34.2052 C.ar    1  UNL1        0.0595
     26 C           2.0725    2.7190   33.4842 C.3     1  UNL1        0.0521
     27 N           3.2694    1.9390   35.6543 N.ar    1  UNL1       -0.2539
     28 C           4.1386    0.9519   36.3753 C.ar    1  UNL1        0.0595
     29 C           4.4663    1.1591   37.8243 C.3     1  UNL1        0.0521
     30 C           4.6802   -0.2426   35.6473 C.ar    1  UNL1        0.0209
@<TRIPOS>BOND
     1    19    20    1
     2    20     1    1
     3     1     2    1
     4     2     3   ar
     5     3     4   ar
     6     4     5   ar
     7     5    21    1
     8    21    22    1
     9    22    23    1
    10    23    24   ar
    11    24    25   ar
    12    25    26    1
    13    25    27   ar
    14    27    28   ar
    15    28    29    1
    16    28    30   ar
    17     5     6   ar
    18     6     7   ar
    19     7     8    1
    20     8     9    2
    21     8    10   am
    22    10    11    1
    23    11    12   ar
    24    12    13    1
    25    12    14   ar
    26    14    15   ar
    27    15    16   ar
    28    16    17   ar
    29    17     1    1
    30     7     2   ar
    31    17    11   ar
    32    30    23   ar
    33    10    18    1
@<TRIPOS>MOLECULE
*****
 30 33 0 0 0
SMALL
GASTEIGER

@<TRIPOS>ATOM
      1 N           1.7525   -0.1592   20.7833 N.pl3   1  UNL1       -0.2567
      2 C           1.1951    0.7601   21.8294 C.ar    1  UNL1        0.1408
      3 N           0.1910    1.7094   21.2460 N.ar    1  UNL1       -0.2290
      4 C          -0.4883    2.7165   22.1259 C.ar    1  UNL1        0.0969
      5 C          -0.1635    2.7743   23.5891 C.ar    1  UNL1        0.0084
      6 C           0.8406    1.8250   24.1726 C.ar    1  UNL1        0.0055
      7 C           1.5199    0.8179   23.2927 C.ar    1  UNL1        0.0853
      8 C           2.4824   -0.0293   24.0712 C.2     1  UNL1        0.2523
      9 O           2.5828    0.2784   25.5359 O.2     1  UNL1       -0.2697
     10 N           3.3577   -1.1434   23.5788 N.am    1  UNL1       -0.2784
     11 C           3.4868   -1.6856   22.1861 C.ar    1  UNL1        0.0789
     12 C           4.4803   -2.8077   22.1248 C.ar    1  UNL1       -0.0041
     13 C           5.1947   -3.2457   23.3689 C.3     1  UNL1        0.0325
     14 C           4.7595   -3.4918   20.8194 C.ar    1  UNL1        0.0177
     15 C           4.0451   -3.0538   19.5753 C.ar    1  UNL1        0.1001
     16 N           3.0516   -1.9317   19.6366 N.ar    1  UNL1       -0.2276
     17 C           2.7724   -1.2476   20.9420 C.ar    1  UNL1        0.1497
     18 H           3.9222   -1.5760   24.2596 H       1  UNL1        0.1552
     19 C           1.9218    0.9603   18.4449 C.3     1  UNL1        0.0237
     20 C           1.2196    0.0359   19.3948 C.3     1  UNL1        0.0984
     21 C          -0.8429    3.7815   24.4690 C.3     1  UNL1        0.0899
     22 S          -1.9075    3.3413   25.4296 S.3     1  UNL1       -0.1087
     23 C          -3.3110    3.8484   25.2777 C.ar    1  UNL1        0.0279
     24 C          -3.9571    4.6133   26.3946 C.ar    1  UNL1        0.0209
     25 C          -5.3605    5.1204   26.2427 C.ar    1  UNL1        0.0595
     26 C          -6.0067    5.8853   27.3596 C.3     1  UNL1        0.0521
     27 N          -6.1179    4.8627   24.9739 N.ar    1  UNL1       -0.2539
     28 C          -5.4719    4.0978   23.8569 C.ar    1  UNL1        0.0595
     29 C          -6.2292    3.8401   22.5881 C.3     1  UNL1        0.0521
     30 C          -4.0684    3.5907   24.0089 C.ar    1  UNL1        0.0209
@<TRIPOS>BOND
     1    19    20    1
     2    20     1    1
     3     1     2    1
     4     2     3   ar
     5     3     4   ar
     6     4     5   ar
     7     5    21    1
     8    21    22    1
     9    22    23    1
    10    23    24   ar
    11    24    25   ar
    12    25    26    1
    13    25    27   ar
    14    27    28   ar
    15    28    29    1
    16    28    30   ar
    17     5     6   ar
    18     6     7   ar
    19     7     8    1
    20     8     9    2
    21     8    10   am
    22    10    11    1
    23    11    12   ar
    24    12    13    1
    25    12    14   ar
    26    14    15   ar
    27    15    16   ar
    28    16    17   ar
    29    17     1    1
    30     7     2   ar
    31    17    11   ar
    32    30    23   ar
    33    10    18    1
@<TRIPOS>MOLECULE
*****
 30 33 0 0 0
SMALL
GASTEIGER

@<TRIPOS>ATOM
      1 N           5.5506   -3.1638   23.4337 N.pl3   1  UNL1       -0.2567
      2 C           5.2962   -2.3504   24.6681 C.ar    1  UNL1        0.1408
      3 N           6.1908   -2.7717   25.7960 N.ar    1  UNL1       -0.2290
      4 C           6.0973   -2.0824   27.1249 C.ar    1  UNL1        0.0969
      5 C           5.1092   -0.9719   27.3260 C.ar    1  UNL1        0.0084
      6 C           4.2146   -0.5506   26.1981 C.ar    1  UNL1        0.0055
      7 C           4.3081   -1.2399   24.8691 C.ar    1  UNL1        0.0853
      8 C           3.3305   -0.6685   23.8854 C.2     1  UNL1        0.2523
      9 O           2.4701    0.4486   24.3970 O.2     1  UNL1       -0.2697
     10 N           3.0994   -1.0664   22.4577 N.am    1  UNL1       -0.2784
     11 C           3.7889   -2.1342   21.6612 C.ar    1  UNL1        0.0789
     12 C           3.2539   -2.2055   20.2617 C.ar    1  UNL1       -0.0041
     13 C           2.1630   -1.2721   19.8274 C.3     1  UNL1        0.0325
     14 C           3.8097   -3.2103   19.2965 C.ar    1  UNL1        0.0177
     15 C           4.9006   -4.1436   19.7308 C.ar    1  UNL1        0.1001
     16 N           5.4357   -4.0723   21.1303 N.ar    1  UNL1       -0.2276
     17 C           4.8799   -3.0676   22.0955 C.ar    1  UNL1        0.1497
     18 H           2.4031   -0.5599   21.9804 H       1  UNL1        0.1552
     19 C           8.0396   -3.8767   23.2164 C.3     1  UNL1        0.0237
     20 C           6.6168   -4.2121   23.5534 C.3     1  UNL1        0.0984
     21 C           5.0158   -0.2826   28.6550 C.3     1  UNL1        0.0899
     22 S           4.0644   -0.7900   29.6978 S.3     1  UNL1       -0.1087
     23 C           2.7614   -0.0844   29.9312 C.ar    1  UNL1        0.0279
     24 C           2.6387    0.9160   31.0420 C.ar    1  UNL1        0.0209
     25 C           1.3357    1.6215   31.2754 C.ar    1  UNL1        0.0595
     26 C           1.2129    2.6219   32.3863 C.3     1  UNL1        0.0521
     27 N           0.1554    1.3266   30.3979 N.ar    1  UNL1       -0.2539
     28 C           0.2782    0.3262   29.2870 C.ar    1  UNL1        0.0595
     29 C          -0.9021    0.0313   28.4094 C.3     1  UNL1        0.0521
     30 C           1.5811   -0.3793   29.0536 C.ar    1  UNL1        0.0209
@<TRIPOS>BOND
     1    19    20    1
     2    20     1    1
     3     1     2    1
     4     2     3   ar
     5     3     4   ar
     6     4     5   ar
     7     5    21    1
     8    21    22    1
     9    22    23    1
    10    23    24   ar
    11    24    25   ar
    12    25    26    1
    13    25    27   ar
    14    27    28   ar
    15    28    29    1
    16    28    30   ar
    17     5     6   ar
    18     6     7   ar
    19     7     8    1
    20     8     9    2
    21     8    10   am
    22    10    11    1
    23    11    12   ar
    24    12    13    1
    25    12    14   ar
    26    14    15   ar
    27    15    16   ar
    28    16    17   ar
    29    17     1    1
    30     7     2   ar
    31    17    11   ar
    32    30    23   ar
    33    10    18    1
@<TRIPOS>MOLECULE
*****
 30 33 0 0 0
SMALL
GASTEIGER

@<TRIPOS>ATOM
      1 N           2.8251    1.6775   34.1044 N.pl3   1  UNL1       -0.2567
      2 C           3.7141    0.5061   33.8087 C.ar    1  UNL1        0.1408
      3 N           3.4832   -0.0212   32.4236 N.ar    1  UNL1       -0.2290
      4 C           4.2733   -1.1955   31.9268 C.ar    1  UNL1        0.0969
      5 C           5.2943   -1.8424   32.8151 C.ar    1  UNL1        0.0084
      6 C           5.5251   -1.3151   34.2002 C.ar    1  UNL1        0.0055
      7 C           4.7350   -0.1409   34.6970 C.ar    1  UNL1        0.0853
      8 C           5.1191    0.2239   36.1004 C.2     1  UNL1        0.2523
      9 O           6.1863   -0.6254   36.7247 O.2     1  UNL1       -0.2697
     10 N           4.5771    1.3256   36.9621 N.am    1  UNL1       -0.2784
     11 C           3.5172    2.3347   36.6332 C.ar    1  UNL1        0.0789
     12 C           3.2715    3.2660   37.7831 C.ar    1  UNL1       -0.0041
     13 C           4.0512    3.1094   39.0548 C.3     1  UNL1        0.0325
     14 C           2.2460    4.3540   37.6612 C.ar    1  UNL1        0.0177
     15 C           1.4663    4.5106   36.3894 C.ar    1  UNL1        0.1001
     16 N           1.7120    3.5793   35.2395 N.ar    1  UNL1       -0.2276
     17 C           2.7374    2.4914   35.3613 C.ar    1  UNL1        0.1497
     18 H           4.9689    1.3956   37.8626 H       1  UNL1        0.1552
     19 C           2.3523    3.0960   31.9796 C.3     1  UNL1        0.0237
     20 C           1.9015    2.0896   32.9965 C.3     1  UNL1        0.0984
     21 C           6.0844   -3.0167   32.3182 C.3     1  UNL1        0.0899
     22 S           6.2472   -3.2415   30.8442 S.3     1  UNL1       -0.1087
     23 C           6.9899   -4.4461   30.3467 C.ar    1  UNL1        0.0279
     24 C           7.8879   -5.2095   31.2744 C.ar    1  UNL1        0.0209
     25 C           8.6305   -6.4141   30.7769 C.ar    1  UNL1        0.0595
     26 C           9.5286   -7.1775   31.7046 C.3     1  UNL1        0.0521
     27 N           8.4751   -6.8552   29.3517 N.ar    1  UNL1       -0.2539
     28 C           7.5771   -6.0918   28.4240 C.ar    1  UNL1        0.0595
     29 C           7.4217   -6.5330   26.9988 C.3     1  UNL1        0.0521
     30 C           6.8344   -4.8873   28.9215 C.ar    1  UNL1        0.0209
@<TRIPOS>BOND
     1    19    20    1
     2    20     1    1
     3     1     2    1
     4     2     3   ar
     5     3     4   ar
     6     4     5   ar
     7     5    21    1
     8    21    22    1
     9    22    23    1
    10    23    24   ar
    11    24    25   ar
    12    25    26    1
    13    25    27   ar
    14    27    28   ar
    15    28    29    1
    16    28    30   ar
    17     5     6   ar
    18     6     7   ar
    19     7     8    1
    20     8     9    2
    21     8    10   am
    22    10    11    1
    23    11    12   ar
    24    12    13    1
    25    12    14   ar
    26    14    15   ar
    27    15    16   ar
    28    16    17   ar
    29    17     1    1
    30     7     2   ar
    31    17    11   ar
    32    30    23   ar
    33    10    18    1
@<TRIPOS>MOLECULE
*****
 30 33 0 0 0
SMALL
GASTEIGER

@<TRIPOS>ATOM
      1 N           7.7248   -5.6123   27.1977 N.pl3   1  UNL1       -0.2567
      2 C           7.3387   -4.8799   25.9468 C.ar    1  UNL1        0.1408
      3 N           7.7810   -5.6204   24.7196 N.ar    1  UNL1       -0.2290
      4 C           7.4926   -5.0575   23.3595 C.ar    1  UNL1        0.0969
      5 C           6.7620   -3.7543   23.2266 C.ar    1  UNL1        0.0084
      6 C           6.3197   -3.0138   24.4538 C.ar    1  UNL1        0.0055
      7 C           6.6081   -3.5767   25.8139 C.ar    1  UNL1        0.0853
      8 C           6.0831   -2.6840   26.8991 C.2     1  UNL1        0.2523
      9 O           5.3906   -1.4362   26.4371 O.2     1  UNL1       -0.2697
     10 N           6.1591   -2.8739   28.3850 N.am    1  UNL1       -0.2784
     11 C           6.7788   -4.0037   29.1529 C.ar    1  UNL1        0.0789
     12 C           6.6356   -3.8040   30.6327 C.ar    1  UNL1       -0.0041
     13 C           5.9389   -2.5854   31.1611 C.3     1  UNL1        0.0325
     14 C           7.1893   -4.8231   31.5840 C.ar    1  UNL1        0.0177
     15 C           7.8861   -6.0418   31.0556 C.ar    1  UNL1        0.1001
     16 N           8.0293   -6.2414   29.5759 N.ar    1  UNL1       -0.2276
     17 C           7.4757   -5.2224   28.6245 C.ar    1  UNL1        0.1497
     18 H           5.7478   -2.1632   28.9281 H       1  UNL1        0.1552
     19 C           7.6917   -8.1638   26.7087 C.3     1  UNL1        0.0237
     20 C           8.4569   -6.9057   26.9948 C.3     1  UNL1        0.0984
     21 C           6.4736   -3.1914   21.8664 C.3     1  UNL1        0.0899
     22 S           5.1906   -3.5347   21.1692 S.3     1  UNL1       -0.1087
     23 C           4.3787   -2.4545   20.5179 C.ar    1  UNL1        0.0279
     24 C           4.5077   -2.2044   19.0446 C.ar    1  UNL1        0.0209
     25 C           3.6958   -1.1243   18.3933 C.ar    1  UNL1        0.0595
     26 C           3.8248   -0.8741   16.9199 C.3     1  UNL1        0.0521
     27 N           2.7548   -0.2943   19.2154 N.ar    1  UNL1       -0.2539
     28 C           2.6258   -0.5445   20.6887 C.ar    1  UNL1        0.0595
     29 C           1.6849    0.2855   21.5108 C.3     1  UNL1        0.0521
     30 C           3.4377   -1.6246   21.3400 C.ar    1  UNL1        0.0209
@<TRIPOS>BOND
     1    19    20    1
     2    20     1    1
     3     1     2    1
     4     2     3   ar
     5     3     4   ar
     6     4     5   ar
     7     5    21    1
     8    21    22    1
     9    22    23    1
    10    23    24   ar
    11    24    25   ar
    12    25    26    1
    13    25    27   ar
    14    27    28   ar
    15    28    29    1
    16    28    30   ar
    17     5     6   ar
    18     6     7   ar
    19     7     8    1
    20     8     9    2
    21     8    10   am
    22    10    11    1
    23    11    12   ar
    24    12    13    1
    25    12    14   ar
    26    14    15   ar
    27    15    16   ar
    28    16    17   ar
    29    17     1    1
    30     7     2   ar
    31    17    11   ar
    32    30    23   ar
    33    10    18    1
