@<TRIPOS>MOLECULE
*****
 37 42 0 0 0
SMALL
GASTEIGER

@<TRIPOS>ATOM
      1 C          -0.2102    3.5560   22.5383 C.3     1  UNL1        0.0468
      2 C          -0.8750    3.3280   23.8635 C.ar    1  UNL1        0.0146
      3 C          -2.2356    3.9010   24.1284 C.ar    1  UNL1       -0.0011
      4 C          -2.9004    3.6730   25.4536 C.ar    1  UNL1        0.0014
      5 C          -2.2045    2.8720   26.5138 C.ar    1  UNL1        0.0206
      6 C          -0.8438    2.2990   26.2489 C.ar    1  UNL1        0.0989
      7 C          -0.1791    2.5270   24.9237 C.ar    1  UNL1        0.1511
      8 O           1.1816    1.9539   24.6587 O.3     1  UNL1       -0.4678
      9 C           1.8775    1.1529   25.7190 C.3     1  UNL1        0.2510
     10 C           1.2127    0.9249   27.0442 C.ar    1  UNL1        0.1087
     11 C           1.6503    0.1828   28.2720 C.ar    1  UNL1        0.1518
     12 N           0.5600    0.2972   29.2959 N.ar    1  UNL1       -0.2192
     13 C          -0.5513    1.1100   28.7008 C.ar    1  UNL1        0.1828
     14 N          -0.1480    1.4979   27.3091 N.ar    1  UNL1       -0.2851
     15 C           2.9499   -0.5458   28.4456 C.2     1  UNL1        0.2682
     16 O           3.2680   -1.7288   27.5801 O.2     1  UNL1       -0.2682
     17 N           3.9315   -0.0912   29.4848 N.am    1  UNL1       -0.2713
     18 C           5.2311   -0.8198   29.6584 C.3     1  UNL1        0.1153
     19 C           3.6136    1.0919   30.3504 C.3     1  UNL1        0.1153
     20 C          -0.4401    2.5960   21.4089 C.3     1  UNL1        0.0770
     21 N           2.6577   -0.5206   20.4389 N.pl3   1  UNL1       -0.3046
     22 C           3.0820    0.8282   20.9396 C.3     1  UNL1        0.1081
     23 C           2.0494    1.8671   21.2630 C.3     1  UNL1        0.0938
     24 N           0.5925    1.5572   21.0855 N.3     1  UNL1       -0.2695
     25 C           0.1682    0.2083   20.5848 C.3     1  UNL1        0.0938
     26 C           1.2008   -0.8305   20.2615 C.3     1  UNL1        0.1081
     27 C           6.5678   -4.4089   24.5428 C.3     1  UNL1        0.0521
     28 C           5.8484   -3.6965   23.4360 C.ar    1  UNL1        0.0593
     29 C           4.8158   -2.6577   23.7593 C.ar    1  UNL1        0.0148
     30 C           4.0964   -1.9453   22.6525 C.ar    1  UNL1        0.0039
     31 C           4.4096   -2.2718   21.2224 C.ar    1  UNL1        0.0310
     32 C           3.6903   -1.5594   20.1156 C.ar    1  UNL1        0.0493
     33 C           4.0035   -1.8859   18.6854 C.ar    1  UNL1        0.0146
     34 C           5.0361   -2.9247   18.3621 C.ar    1  UNL1        0.0028
     35 C           5.7555   -3.6371   19.4689 C.ar    1  UNL1        0.0192
     36 C           5.4423   -3.3106   20.8990 C.ar    1  UNL1        0.0821
     37 N           6.1617   -4.0230   22.0058 N.ar    1  UNL1       -0.2496
@<TRIPOS>BOND
     1    27    28    1
     2    28    29   ar
     3    29    30   ar
     4    30    31   ar
     5    31    32   ar
     6    32    21    1
     7    21    22    1
     8    22    23    1
     9    23    24    1
    10    24    20    1
    11    20     1    1
    12     1     2    1
    13     2     3   ar
    14     3     4   ar
    15     4     5   ar
    16     5     6   ar
    17     6     7   ar
    18     7     8    1
    19     8     9    1
    20     9    10    1
    21    10    11   ar
    22    11    15    1
    23    15    16    2
    24    15    17   am
    25    17    18    1
    26    17    19    1
    27    11    12   ar
    28    12    13   ar
    29    13    14   ar
    30    24    25    1
    31    25    26    1
    32    32    33   ar
    33    33    34   ar
    34    34    35   ar
    35    35    36   ar
    36    36    37   ar
    37    37    28   ar
    38    36    31   ar
    39    26    21    1
    40     7     2   ar
    41    14    10   ar
    42    14     6    1
@<TRIPOS>MOLECULE
*****
 37 42 0 0 0
SMALL
GASTEIGER

@<TRIPOS>ATOM
      1 C          -0.4808    3.2986   24.7232 C.3     1  UNL1        0.0468
      2 C          -1.9200    3.5580   25.0571 C.ar    1  UNL1        0.0146
      3 C          -2.3498    3.6660   26.4901 C.ar    1  UNL1       -0.0011
      4 C          -3.7890    3.9254   26.8238 C.ar    1  UNL1        0.0014
      5 C          -4.7984    4.0767   25.7246 C.ar    1  UNL1        0.0206
      6 C          -4.3685    3.9686   24.2916 C.ar    1  UNL1        0.0989
      7 C          -2.9294    3.7093   23.9578 C.ar    1  UNL1        0.1511
      8 O          -2.4995    3.6012   22.5248 O.3     1  UNL1       -0.4678
      9 C          -3.5088    3.7525   21.4255 C.3     1  UNL1        0.2510
     10 C          -4.9481    4.0119   21.7594 C.ar    1  UNL1        0.1087
     11 C          -6.1597    4.2040   20.8962 C.ar    1  UNL1        0.1518
     12 N          -7.3384    4.4308   21.7958 N.ar    1  UNL1       -0.2192
     13 C          -6.8552    4.3788   23.2149 C.ar    1  UNL1        0.1828
     14 N          -5.3779    4.1199   23.1924 N.ar    1  UNL1       -0.2851
     15 C          -6.1877    4.1744   19.3968 C.2     1  UNL1        0.2682
     16 O          -6.2425    2.8616   18.6733 O.2     1  UNL1       -0.2682
     17 N          -6.1609    5.4579   18.6208 N.am    1  UNL1       -0.2713
     18 C          -6.1889    5.4284   17.1213 C.3     1  UNL1        0.1153
     19 C          -6.1061    6.7708   19.3441 C.3     1  UNL1        0.1153
     20 C          -0.0027    1.8935   24.5063 C.3     1  UNL1        0.0770
     21 N           2.6334    0.9315   20.9884 N.pl3   1  UNL1       -0.3046
     22 C           1.1600    1.1304   20.7893 C.3     1  UNL1        0.1081
     23 C           0.2813    1.4511   21.9620 C.3     1  UNL1        0.0938
     24 N           0.8760    1.5728   23.3337 N.3     1  UNL1       -0.2695
     25 C           2.3494    1.3738   23.5327 C.3     1  UNL1        0.0938
     26 C           3.2280    1.0532   22.3601 C.3     1  UNL1        0.1081
     27 C           4.8499   -5.0976   18.5417 C.3     1  UNL1        0.0521
     28 C           4.5154   -3.6705   18.8602 C.ar    1  UNL1        0.0593
     29 C           3.6368   -3.3499   20.0328 C.ar    1  UNL1        0.0148
     30 C           3.3023   -1.9228   20.3513 C.ar    1  UNL1        0.0039
     31 C           3.8465   -0.8163   19.4972 C.ar    1  UNL1        0.0310
     32 C           3.5120    0.6108   19.8158 C.ar    1  UNL1        0.0493
     33 C           4.0562    1.7173   18.9616 C.ar    1  UNL1        0.0146
     34 C           4.9349    1.3967   17.7889 C.ar    1  UNL1        0.0028
     35 C           5.2694   -0.0304   17.4704 C.ar    1  UNL1        0.0192
     36 C           4.7252   -1.1369   18.3245 C.ar    1  UNL1        0.0821
     37 N           5.0597   -2.5640   18.0060 N.ar    1  UNL1       -0.2496
@<TRIPOS>BOND
     1    27    28    1
     2    28    29   ar
     3    29    30   ar
     4    30    31   ar
     5    31    32   ar
     6    32    21    1
     7    21    22    1
     8    22    23    1
     9    23    24    1
    10    24    20    1
    11    20     1    1
    12     1     2    1
    13     2     3   ar
    14     3     4   ar
    15     4     5   ar
    16     5     6   ar
    17     6     7   ar
    18     7     8    1
    19     8     9    1
    20     9    10    1
    21    10    11   ar
    22    11    15    1
    23    15    16    2
    24    15    17   am
    25    17    18    1
    26    17    19    1
    27    11    12   ar
    28    12    13   ar
    29    13    14   ar
    30    24    25    1
    31    25    26    1
    32    32    33   ar
    33    33    34   ar
    34    34    35   ar
    35    35    36   ar
    36    36    37   ar
    37    37    28   ar
    38    36    31   ar
    39    26    21    1
    40     7     2   ar
    41    14    10   ar
    42    14     6    1
@<TRIPOS>MOLECULE
*****
 37 42 0 0 0
SMALL
GASTEIGER

@<TRIPOS>ATOM
      1 C           7.6416   -1.7748   32.2533 C.3     1  UNL1        0.0468
      2 C           6.6924   -0.8813   32.9954 C.ar    1  UNL1        0.0146
      3 C           7.0341   -0.4061   34.3764 C.ar    1  UNL1       -0.0011
      4 C           6.0849    0.4874   35.1184 C.ar    1  UNL1        0.0014
      5 C           4.7939    0.9058   34.4793 C.ar    1  UNL1        0.0206
      6 C           4.4522    0.4306   33.0982 C.ar    1  UNL1        0.0989
      7 C           5.4014   -0.4629   32.3563 C.ar    1  UNL1        0.1511
      8 O           5.0597   -0.9382   30.9751 O.3     1  UNL1       -0.4678
      9 C           3.7688   -0.5199   30.3360 C.3     1  UNL1        0.2510
     10 C           2.8195    0.3737   31.0781 C.ar    1  UNL1        0.1087
     11 C           1.4839    0.9471   30.7077 C.ar    1  UNL1        0.1518
     12 N           1.0001    1.7768   31.8600 N.ar    1  UNL1       -0.2192
     13 C           2.0368    1.7161   32.9424 C.ar    1  UNL1        0.1828
     14 N           3.1613    0.8489   32.4591 N.ar    1  UNL1       -0.2851
     15 C           0.7592    0.7292   29.4126 C.2     1  UNL1        0.2682
     16 O          -0.1773   -0.4329   29.2635 O.2     1  UNL1       -0.2682
     17 N           0.9712    1.6735   28.2665 N.am    1  UNL1       -0.2713
     18 C           0.2466    1.4556   26.9714 C.3     1  UNL1        0.1153
     19 C           1.9078    2.8357   28.4156 C.3     1  UNL1        0.1153
     20 C           7.3341   -3.2352   32.1024 C.3     1  UNL1        0.0770
     21 N           8.0449   -5.2887   28.1619 N.pl3   1  UNL1       -0.3046
     22 C           6.9312   -5.7468   29.0562 C.3     1  UNL1        0.1081
     23 C           6.6943   -5.0623   30.3697 C.3     1  UNL1        0.0938
     24 N           7.5710   -3.9197   30.7889 N.3     1  UNL1       -0.2695
     25 C           8.6847   -3.4616   29.8946 C.3     1  UNL1        0.0938
     26 C           8.9217   -4.1461   28.5811 C.3     1  UNL1        0.1081
     27 C           6.0730   -3.6126   21.7938 C.3     1  UNL1        0.0521
     28 C           6.6252   -4.2028   23.0575 C.ar    1  UNL1        0.0593
     29 C           6.3883   -3.5183   24.3709 C.ar    1  UNL1        0.0148
     30 C           6.9405   -4.1084   25.6346 C.ar    1  UNL1        0.0039
     31 C           7.7296   -5.3831   25.5847 C.ar    1  UNL1        0.0310
     32 C           8.2818   -5.9732   26.8484 C.ar    1  UNL1        0.0493
     33 C           9.0710   -7.2479   26.7985 C.ar    1  UNL1        0.0146
     34 C           9.3079   -7.9324   25.4850 C.ar    1  UNL1        0.0028
     35 C           8.7557   -7.3423   24.2214 C.ar    1  UNL1        0.0192
     36 C           7.9666   -6.0676   24.2712 C.ar    1  UNL1        0.0821
     37 N           7.4144   -5.4775   23.0076 N.ar    1  UNL1       -0.2496
@<TRIPOS>BOND
     1    27    28    1
     2    28    29   ar
     3    29    30   ar
     4    30    31   ar
     5    31    32   ar
     6    32    21    1
     7    21    22    1
     8    22    23    1
     9    23    24    1
    10    24    20    1
    11    20     1    1
    12     1     2    1
    13     2     3   ar
    14     3     4   ar
    15     4     5   ar
    16     5     6   ar
    17     6     7   ar
    18     7     8    1
    19     8     9    1
    20     9    10    1
    21    10    11   ar
    22    11    15    1
    23    15    16    2
    24    15    17   am
    25    17    18    1
    26    17    19    1
    27    11    12   ar
    28    12    13   ar
    29    13    14   ar
    30    24    25    1
    31    25    26    1
    32    32    33   ar
    33    33    34   ar
    34    34    35   ar
    35    35    36   ar
    36    36    37   ar
    37    37    28   ar
    38    36    31   ar
    39    26    21    1
    40     7     2   ar
    41    14    10   ar
    42    14     6    1
@<TRIPOS>MOLECULE
*****
 37 42 0 0 0
SMALL
GASTEIGER

@<TRIPOS>ATOM
      1 C           0.2022    1.0245   25.4795 C.3     1  UNL1        0.0468
      2 C           0.3352    1.8391   26.7321 C.ar    1  UNL1        0.0146
      3 C          -0.3229    3.1838   26.8257 C.ar    1  UNL1       -0.0011
      4 C          -0.1898    3.9983   28.0782 C.ar    1  UNL1        0.0014
      5 C           0.6013    3.4682   29.2371 C.ar    1  UNL1        0.0206
      6 C           1.2595    2.1235   29.1435 C.ar    1  UNL1        0.0989
      7 C           1.1264    1.3090   27.8910 C.ar    1  UNL1        0.1511
      8 O           1.7845   -0.0357   27.7973 O.3     1  UNL1       -0.4678
      9 C           2.5757   -0.5658   28.9562 C.3     1  UNL1        0.2510
     10 C           2.7087    0.2488   30.2088 C.ar    1  UNL1        0.1087
     11 C           3.4196   -0.0106   31.5039 C.ar    1  UNL1        0.1518
     12 N           3.2008    1.1738   32.3980 N.ar    1  UNL1       -0.2192
     13 C           2.3547    2.1651   31.6554 C.ar    1  UNL1        0.1828
     14 N           2.0506    1.5934   30.3024 N.ar    1  UNL1       -0.2851
     15 C           4.2104   -1.2387   31.8450 C.2     1  UNL1        0.2682
     16 O           3.5683   -2.3543   32.6151 O.2     1  UNL1       -0.2682
     17 N           5.6434   -1.3511   31.4160 N.am    1  UNL1       -0.2713
     18 C           6.4342   -2.5792   31.7572 C.3     1  UNL1        0.1153
     19 C           6.2855   -0.2355   30.6460 C.3     1  UNL1        0.1153
     20 C           0.5712    1.6216   24.1539 C.3     1  UNL1        0.0770
     21 N           2.9686   -0.7760   21.1953 N.pl3   1  UNL1       -0.3046
     22 C           3.3918   -0.7197   22.6332 C.3     1  UNL1        0.1081
     23 C           2.5927    0.0796   23.6194 C.3     1  UNL1        0.0938
     24 N           1.3703    0.8224   23.1677 N.3     1  UNL1       -0.2695
     25 C           0.9471    0.7660   21.7297 C.3     1  UNL1        0.0938
     26 C           1.7463   -0.0332   20.7435 C.3     1  UNL1        0.1081
     27 C           7.1169    1.2234   16.0919 C.3     1  UNL1        0.0521
     28 C           6.2796    0.5238   17.1212 C.ar    1  UNL1        0.0593
     29 C           5.4805    1.3230   18.1074 C.ar    1  UNL1        0.0148
     30 C           4.6432    0.6233   19.1367 C.ar    1  UNL1        0.0039
     31 C           4.6051   -0.8756   19.1798 C.ar    1  UNL1        0.0310
     32 C           3.7678   -1.5752   20.2091 C.ar    1  UNL1        0.0493
     33 C           3.7297   -3.0742   20.2521 C.ar    1  UNL1        0.0146
     34 C           4.5288   -3.8734   19.2660 C.ar    1  UNL1        0.0028
     35 C           5.3661   -3.1737   18.2367 C.ar    1  UNL1        0.0192
     36 C           5.4042   -1.6748   18.1936 C.ar    1  UNL1        0.0821
     37 N           6.2415   -0.9752   17.1643 N.ar    1  UNL1       -0.2496
@<TRIPOS>BOND
     1    27    28    1
     2    28    29   ar
     3    29    30   ar
     4    30    31   ar
     5    31    32   ar
     6    32    21    1
     7    21    22    1
     8    22    23    1
     9    23    24    1
    10    24    20    1
    11    20     1    1
    12     1     2    1
    13     2     3   ar
    14     3     4   ar
    15     4     5   ar
    16     5     6   ar
    17     6     7   ar
    18     7     8    1
    19     8     9    1
    20     9    10    1
    21    10    11   ar
    22    11    15    1
    23    15    16    2
    24    15    17   am
    25    17    18    1
    26    17    19    1
    27    11    12   ar
    28    12    13   ar
    29    13    14   ar
    30    24    25    1
    31    25    26    1
    32    32    33   ar
    33    33    34   ar
    34    34    35   ar
    35    35    36   ar
    36    36    37   ar
    37    37    28   ar
    38    36    31   ar
    39    26    21    1
    40     7     2   ar
    41    14    10   ar
    42    14     6    1
@<TRIPOS>MOLECULE
*****
 37 42 0 0 0
SMALL
GASTEIGER

@<TRIPOS>ATOM
      1 C           7.7105   -2.3127   32.1626 C.3     1  UNL1        0.0468
      2 C           6.3145   -1.7642   32.1868 C.ar    1  UNL1        0.0146
      3 C           5.6064   -1.5729   33.4952 C.ar    1  UNL1       -0.0011
      4 C           4.2105   -1.0244   33.5193 C.ar    1  UNL1        0.0014
      5 C           3.5227   -0.6673   32.2350 C.ar    1  UNL1        0.0206
      6 C           4.2308   -0.8586   30.9266 C.ar    1  UNL1        0.0989
      7 C           5.6267   -1.4070   30.9025 C.ar    1  UNL1        0.1511
      8 O           6.3349   -1.5984   29.5941 O.3     1  UNL1       -0.4678
      9 C           5.6471   -1.2412   28.3098 C.3     1  UNL1        0.2510
     10 C           4.2511   -0.6928   28.3339 C.ar    1  UNL1        0.1087
     11 C           3.3258   -0.2546   27.2377 C.ar    1  UNL1        0.1518
     12 N           2.0458    0.2075   27.8686 N.ar    1  UNL1       -0.2192
     13 C           2.1800    0.0549   29.3547 C.ar    1  UNL1        0.1828
     14 N           3.5430   -0.5015   29.6423 N.ar    1  UNL1       -0.2851
     15 C           3.6276   -0.2750   25.7685 C.2     1  UNL1        0.2682
     16 O           3.7015   -1.5819   25.0360 O.2     1  UNL1       -0.2682
     17 N           3.8553    1.0116   25.0317 N.am    1  UNL1       -0.2713
     18 C           4.1570    0.9912   23.5625 C.3     1  UNL1        0.1153
     19 C           3.7814    2.3186   25.7641 C.3     1  UNL1        0.1153
     20 C           7.9345   -3.7862   31.9939 C.3     1  UNL1        0.0770
     21 N           8.4054   -5.5334   27.8738 N.pl3   1  UNL1       -0.3046
     22 C           7.1905   -5.8577   28.6916 C.3     1  UNL1        0.1081
     23 C           7.0335   -5.2753   30.0650 C.3     1  UNL1        0.0938
     24 N           8.0914   -4.3686   30.6206 N.3     1  UNL1       -0.2695
     25 C           9.3064   -4.0443   29.8027 C.3     1  UNL1        0.0938
     26 C           9.4633   -4.6267   28.4293 C.3     1  UNL1        0.1081
     27 C           5.9952   -3.4276   21.7905 C.3     1  UNL1        0.0521
     28 C           6.6369   -4.0996   22.9680 C.ar    1  UNL1        0.0593
     29 C           6.4800   -3.5172   24.3413 C.ar    1  UNL1        0.0148
     30 C           7.1218   -4.1893   25.5188 C.ar    1  UNL1        0.0039
     31 C           7.9205   -5.4437   25.3229 C.ar    1  UNL1        0.0310
     32 C           8.5623   -6.1157   26.5004 C.ar    1  UNL1        0.0493
     33 C           9.3610   -7.3702   26.3045 C.ar    1  UNL1        0.0146
     34 C           9.5180   -7.9526   24.9311 C.ar    1  UNL1        0.0028
     35 C           8.8762   -7.2806   23.7537 C.ar    1  UNL1        0.0192
     36 C           8.0775   -6.0261   23.9495 C.ar    1  UNL1        0.0821
     37 N           7.4357   -5.3541   22.7720 N.ar    1  UNL1       -0.2496
@<TRIPOS>BOND
     1    27    28    1
     2    28    29   ar
     3    29    30   ar
     4    30    31   ar
     5    31    32   ar
     6    32    21    1
     7    21    22    1
     8    22    23    1
     9    23    24    1
    10    24    20    1
    11    20     1    1
    12     1     2    1
    13     2     3   ar
    14     3     4   ar
    15     4     5   ar
    16     5     6   ar
    17     6     7   ar
    18     7     8    1
    19     8     9    1
    20     9    10    1
    21    10    11   ar
    22    11    15    1
    23    15    16    2
    24    15    17   am
    25    17    18    1
    26    17    19    1
    27    11    12   ar
    28    12    13   ar
    29    13    14   ar
    30    24    25    1
    31    25    26    1
    32    32    33   ar
    33    33    34   ar
    34    34    35   ar
    35    35    36   ar
    36    36    37   ar
    37    37    28   ar
    38    36    31   ar
    39    26    21    1
    40     7     2   ar
    41    14    10   ar
    42    14     6    1
@<TRIPOS>MOLECULE
*****
 37 42 0 0 0
SMALL
GASTEIGER

@<TRIPOS>ATOM
      1 C           3.6598   -3.2350   19.2047 C.3     1  UNL1        0.0468
      2 C           3.8560   -1.8366   18.6985 C.ar    1  UNL1        0.0146
      3 C           4.9748   -1.5338   17.7465 C.ar    1  UNL1       -0.0011
      4 C           5.1710   -0.1355   17.2402 C.ar    1  UNL1        0.0014
      5 C           4.2483    0.9599   17.6860 C.ar    1  UNL1        0.0206
      6 C           3.1294    0.6570   18.6380 C.ar    1  UNL1        0.0989
      7 C           2.9332   -0.7413   19.1442 C.ar    1  UNL1        0.1511
      8 O           1.8143   -1.0442   20.0963 O.3     1  UNL1       -0.4678
      9 C           0.8916    0.0512   20.5421 C.3     1  UNL1        0.2510
     10 C           1.0878    1.4495   20.0358 C.ar    1  UNL1        0.1087
     11 C           0.3431    2.7251   20.2968 C.ar    1  UNL1        0.1518
     12 N           1.0018    3.8165   19.5061 N.ar    1  UNL1       -0.2192
     13 C           2.1535    3.2153   18.7564 C.ar    1  UNL1        0.1828
     14 N           2.2067    1.7524   19.0838 N.ar    1  UNL1       -0.2851
     15 C          -0.8506    2.8819   21.1915 C.2     1  UNL1        0.2682
     16 O          -2.2179    2.5276   20.6867 O.2     1  UNL1       -0.2682
     17 N          -0.6769    3.3931   22.5910 N.am    1  UNL1       -0.2713
     18 C          -1.8707    3.5499   23.4857 C.3     1  UNL1        0.1153
     19 C           0.6904    3.7474   23.0959 C.3     1  UNL1        0.1153
     20 C           4.8474   -4.1191   19.4451 C.3     1  UNL1        0.0770
     21 N           7.0114   -3.9578   23.3873 N.pl3   1  UNL1       -0.3046
     22 C           7.7727   -4.2333   22.1246 C.3     1  UNL1        0.1081
     23 C           7.0514   -4.2871   20.8105 C.3     1  UNL1        0.0938
     24 N           5.5687   -4.0653   20.7591 N.3     1  UNL1       -0.2695
     25 C           4.8074   -3.7898   22.0219 C.3     1  UNL1        0.0938
     26 C           5.5288   -3.7360   23.3360 C.3     1  UNL1        0.1081
     27 C           9.3083   -8.9890   27.4691 C.3     1  UNL1        0.0521
     28 C           8.9144   -7.7177   26.7772 C.ar    1  UNL1        0.0593
     29 C           8.1931   -7.7715   25.4631 C.ar    1  UNL1        0.0148
     30 C           7.7992   -6.5003   24.7712 C.ar    1  UNL1        0.0039
     31 C           8.1266   -5.1753   25.3933 C.ar    1  UNL1        0.0310
     32 C           7.7327   -3.9040   24.7013 C.ar    1  UNL1        0.0493
     33 C           8.0602   -2.5789   25.3235 C.ar    1  UNL1        0.0146
     34 C           8.7816   -2.5252   26.6375 C.ar    1  UNL1        0.0028
     35 C           9.1754   -3.7964   27.3295 C.ar    1  UNL1        0.0192
     36 C           8.8480   -5.1214   26.7074 C.ar    1  UNL1        0.0821
     37 N           9.2419   -6.3927   27.3993 N.ar    1  UNL1       -0.2496
@<TRIPOS>BOND
     1    27    28    1
     2    28    29   ar
     3    29    30   ar
     4    30    31   ar
     5    31    32   ar
     6    32    21    1
     7    21    22    1
     8    22    23    1
     9    23    24    1
    10    24    20    1
    11    20     1    1
    12     1     2    1
    13     2     3   ar
    14     3     4   ar
    15     4     5   ar
    16     5     6   ar
    17     6     7   ar
    18     7     8    1
    19     8     9    1
    20     9    10    1
    21    10    11   ar
    22    11    15    1
    23    15    16    2
    24    15    17   am
    25    17    18    1
    26    17    19    1
    27    11    12   ar
    28    12    13   ar
    29    13    14   ar
    30    24    25    1
    31    25    26    1
    32    32    33   ar
    33    33    34   ar
    34    34    35   ar
    35    35    36   ar
    36    36    37   ar
    37    37    28   ar
    38    36    31   ar
    39    26    21    1
    40     7     2   ar
    41    14    10   ar
    42    14     6    1
@<TRIPOS>MOLECULE
*****
 37 42 0 0 0
SMALL
GASTEIGER

@<TRIPOS>ATOM
      1 C           8.7279   -4.1151   21.8228 C.3     1  UNL1        0.0468
      2 C           8.4408   -5.0058   22.9952 C.ar    1  UNL1        0.0146
      3 C           8.7082   -6.4787   22.9013 C.ar    1  UNL1       -0.0011
      4 C           8.4211   -7.3693   24.0736 C.ar    1  UNL1        0.0014
      5 C           7.8665   -6.7869   25.3398 C.ar    1  UNL1        0.0206
      6 C           7.5991   -5.3140   25.4337 C.ar    1  UNL1        0.0989
      7 C           7.8862   -4.4234   24.2614 C.ar    1  UNL1        0.1511
      8 O           7.6187   -2.9504   24.3553 O.3     1  UNL1       -0.4678
      9 C           7.0642   -2.3680   25.6215 C.3     1  UNL1        0.2510
     10 C           6.7770   -3.2587   26.7938 C.ar    1  UNL1        0.1087
     11 C           6.2322   -2.9727   28.1618 C.ar    1  UNL1        0.1518
     12 N           6.1630   -4.2690   28.9134 N.ar    1  UNL1       -0.2192
     13 C           6.6650   -5.3560   28.0099 C.ar    1  UNL1        0.1828
     14 N           7.0445   -4.7316   26.7000 N.ar    1  UNL1       -0.2851
     15 C           5.8277   -1.6268   28.6861 C.2     1  UNL1        0.2682
     16 O           6.6765   -0.9352   29.7114 O.2     1  UNL1       -0.2682
     17 N           4.5743   -0.9725   28.1851 N.am    1  UNL1       -0.2713
     18 C           4.1698    0.3734   28.7094 C.3     1  UNL1        0.1153
     19 C           3.7255   -1.6641   27.1598 C.3     1  UNL1        0.1153
     20 C           7.8657   -4.1870   20.5975 C.3     1  UNL1        0.0770
     21 N           4.2506   -1.5324   20.2311 N.pl3   1  UNL1       -0.3046
     22 C           5.6054   -0.9281   20.4530 C.3     1  UNL1        0.1081
     23 C           6.8105   -1.8129   20.5752 C.3     1  UNL1        0.0938
     24 N           6.6607   -3.3021   20.4753 N.3     1  UNL1       -0.2695
     25 C           5.3058   -3.9064   20.2534 C.3     1  UNL1        0.0938
     26 C           4.1008   -3.0215   20.1312 C.3     1  UNL1        0.1081
     27 C           0.3873    1.4987   25.0411 C.3     1  UNL1        0.0521
     28 C           1.0519    0.9622   23.8081 C.ar    1  UNL1        0.0593
     29 C           2.2568    0.0773   23.9302 C.ar    1  UNL1        0.0148
     30 C           2.9214   -0.4593   22.6972 C.ar    1  UNL1        0.0039
     31 C           2.3810   -0.1110   21.3420 C.ar    1  UNL1        0.0310
     32 C           3.0456   -0.6475   20.1089 C.ar    1  UNL1        0.0493
     33 C           2.5052   -0.2992   18.7537 C.ar    1  UNL1        0.0146
     34 C           1.3002    0.5857   18.6315 C.ar    1  UNL1        0.0028
     35 C           0.6356    1.1223   19.8646 C.ar    1  UNL1        0.0192
     36 C           1.1760    0.7740   21.2198 C.ar    1  UNL1        0.0821
     37 N           0.5114    1.3105   22.4528 N.ar    1  UNL1       -0.2496
@<TRIPOS>BOND
     1    27    28    1
     2    28    29   ar
     3    29    30   ar
     4    30    31   ar
     5    31    32   ar
     6    32    21    1
     7    21    22    1
     8    22    23    1
     9    23    24    1
    10    24    20    1
    11    20     1    1
    12     1     2    1
    13     2     3   ar
    14     3     4   ar
    15     4     5   ar
    16     5     6   ar
    17     6     7   ar
    18     7     8    1
    19     8     9    1
    20     9    10    1
    21    10    11   ar
    22    11    15    1
    23    15    16    2
    24    15    17   am
    25    17    18    1
    26    17    19    1
    27    11    12   ar
    28    12    13   ar
    29    13    14   ar
    30    24    25    1
    31    25    26    1
    32    32    33   ar
    33    33    34   ar
    34    34    35   ar
    35    35    36   ar
    36    36    37   ar
    37    37    28   ar
    38    36    31   ar
    39    26    21    1
    40     7     2   ar
    41    14    10   ar
    42    14     6    1
@<TRIPOS>MOLECULE
*****
 37 42 0 0 0
SMALL
GASTEIGER

@<TRIPOS>ATOM
      1 C           8.1177   -2.2459   27.4983 C.3     1  UNL1        0.0468
      2 C           7.7119   -2.9477   28.7605 C.ar    1  UNL1        0.0146
      3 C           8.2794   -4.2981   29.0835 C.ar    1  UNL1       -0.0011
      4 C           7.8735   -4.9997   30.3456 C.ar    1  UNL1        0.0014
      5 C           6.9001   -4.3511   31.2846 C.ar    1  UNL1        0.0206
      6 C           6.3326   -3.0007   30.9615 C.ar    1  UNL1        0.0989
      7 C           6.7385   -2.2990   29.6995 C.ar    1  UNL1        0.1511
      8 O           6.1710   -0.9486   29.3764 O.3     1  UNL1       -0.4678
      9 C           5.1976   -0.2999   30.3154 C.3     1  UNL1        0.2510
     10 C           4.7918   -1.0017   31.5775 C.ar    1  UNL1        0.1087
     11 C           3.8591   -0.6134   32.6862 C.ar    1  UNL1        0.1518
     12 N           3.8501   -1.7239   33.6946 N.ar    1  UNL1       -0.2192
     13 C           4.7773   -2.7984   33.2090 C.ar    1  UNL1        0.1828
     14 N           5.3593   -2.3520   31.9006 N.ar    1  UNL1       -0.2851
     15 C           3.0733    0.6614   32.7717 C.2     1  UNL1        0.2682
     16 O           1.9650    0.9262   31.7962 O.2     1  UNL1       -0.2682
     17 N           3.3958    1.6715   33.8327 N.am    1  UNL1       -0.2713
     18 C           2.6100    2.9463   33.9181 C.3     1  UNL1        0.1153
     19 C           4.5041    1.4068   34.8082 C.3     1  UNL1        0.1153
     20 C           8.5910   -3.0405   26.3174 C.3     1  UNL1        0.0770
     21 N           6.1953   -3.0532   22.5081 N.pl3   1  UNL1       -0.3046
     22 C           7.3823   -2.1464   22.6445 C.3     1  UNL1        0.1081
     23 C           8.1809   -2.1422   23.9143 C.3     1  UNL1        0.0938
     24 N           7.7924   -3.0447   25.0476 N.3     1  UNL1       -0.2695
     25 C           6.6053   -3.9516   24.9112 C.3     1  UNL1        0.0938
     26 C           5.8068   -3.9558   23.6414 C.3     1  UNL1        0.1081
     27 C           0.5146    0.3965   20.7532 C.3     1  UNL1        0.0521
     28 C           1.7351   -0.4670   20.8745 C.ar    1  UNL1        0.0593
     29 C           2.5337   -0.4628   22.1442 C.ar    1  UNL1        0.0148
     30 C           3.7542   -1.3263   22.2655 C.ar    1  UNL1        0.0039
     31 C           4.1762   -2.1940   21.1171 C.ar    1  UNL1        0.0310
     32 C           5.3968   -3.0574   21.2384 C.ar    1  UNL1        0.0493
     33 C           5.8187   -3.9251   20.0898 C.ar    1  UNL1        0.0146
     34 C           5.0202   -3.9294   18.8201 C.ar    1  UNL1        0.0028
     35 C           3.7997   -3.0659   18.6988 C.ar    1  UNL1        0.0192
     36 C           3.3777   -2.1982   19.8472 C.ar    1  UNL1        0.0821
     37 N           2.1571   -1.3347   19.7260 N.ar    1  UNL1       -0.2496
@<TRIPOS>BOND
     1    27    28    1
     2    28    29   ar
     3    29    30   ar
     4    30    31   ar
     5    31    32   ar
     6    32    21    1
     7    21    22    1
     8    22    23    1
     9    23    24    1
    10    24    20    1
    11    20     1    1
    12     1     2    1
    13     2     3   ar
    14     3     4   ar
    15     4     5   ar
    16     5     6   ar
    17     6     7   ar
    18     7     8    1
    19     8     9    1
    20     9    10    1
    21    10    11   ar
    22    11    15    1
    23    15    16    2
    24    15    17   am
    25    17    18    1
    26    17    19    1
    27    11    12   ar
    28    12    13   ar
    29    13    14   ar
    30    24    25    1
    31    25    26    1
    32    32    33   ar
    33    33    34   ar
    34    34    35   ar
    35    35    36   ar
    36    36    37   ar
    37    37    28   ar
    38    36    31   ar
    39    26    21    1
    40     7     2   ar
    41    14    10   ar
    42    14     6    1
@<TRIPOS>MOLECULE
*****
 37 42 0 0 0
SMALL
GASTEIGER

@<TRIPOS>ATOM
      1 C           0.9743    1.1789   26.4088 C.3     1  UNL1        0.0468
      2 C           1.0681    1.8595   27.7423 C.ar    1  UNL1        0.0146
      3 C           0.4830    3.2279   27.9287 C.ar    1  UNL1       -0.0011
      4 C           0.5769    3.9084   29.2622 C.ar    1  UNL1        0.0014
      5 C           1.2559    3.2204   30.4091 C.ar    1  UNL1        0.0206
      6 C           1.8410    1.8519   30.2227 C.ar    1  UNL1        0.0989
      7 C           1.7471    1.1714   28.8893 C.ar    1  UNL1        0.1511
      8 O           2.3322   -0.1972   28.7028 O.3     1  UNL1       -0.4678
      9 C           3.0112   -0.8852   29.8497 C.3     1  UNL1        0.2510
     10 C           3.1051   -0.2047   31.1832 C.ar    1  UNL1        0.1087
     11 C           3.7102   -0.6318   32.4876 C.ar    1  UNL1        0.1518
     12 N           3.4991    0.4729   33.4802 N.ar    1  UNL1       -0.2192
     13 C           2.7635    1.5826   32.7893 C.ar    1  UNL1        0.1828
     14 N           2.5200    1.1638   31.3697 N.ar    1  UNL1       -0.2851
     15 C           4.4046   -1.9346   32.7528 C.2     1  UNL1        0.2682
     16 O           3.7660   -2.9567   33.6458 O.2     1  UNL1       -0.2682
     17 N           5.7376   -2.2155   32.1248 N.am    1  UNL1       -0.2713
     18 C           6.4320   -3.5183   32.3900 C.3     1  UNL1        0.1153
     19 C           6.3762   -1.1934   31.2317 C.3     1  UNL1        0.1153
     20 C           0.7277    1.9876   25.1698 C.3     1  UNL1        0.0770
     21 N           2.8869    0.9736   21.3541 N.pl3   1  UNL1       -0.3046
     22 C           3.6607    1.1728   22.6235 C.3     1  UNL1        0.1081
     23 C           2.9410    1.5108   23.8954 C.3     1  UNL1        0.0938
     24 N           1.4474    1.6496   23.8979 N.3     1  UNL1       -0.2695
     25 C           0.6736    1.4504   22.6284 C.3     1  UNL1        0.0938
     26 C           1.3933    1.1123   21.3565 C.3     1  UNL1        0.1081
     27 C           4.7366   -5.0942   18.7063 C.3     1  UNL1        0.0521
     28 C           4.4541   -3.6618   19.0503 C.ar    1  UNL1        0.0593
     29 C           3.7344   -3.3238   20.3221 C.ar    1  UNL1        0.0148
     30 C           3.4519   -1.8913   20.6661 C.ar    1  UNL1        0.0039
     31 C           3.8891   -0.7969   19.7382 C.ar    1  UNL1        0.0310
     32 C           3.6066    0.6355   20.0822 C.ar    1  UNL1        0.0493
     33 C           4.0439    1.7300   19.1543 C.ar    1  UNL1        0.0146
     34 C           4.7637    1.3920   17.8824 C.ar    1  UNL1        0.0028
     35 C           5.0462   -0.0405   17.5384 C.ar    1  UNL1        0.0192
     36 C           4.6089   -1.1349   18.4663 C.ar    1  UNL1        0.0821
     37 N           4.8914   -2.5673   18.1223 N.ar    1  UNL1       -0.2496
@<TRIPOS>BOND
     1    27    28    1
     2    28    29   ar
     3    29    30   ar
     4    30    31   ar
     5    31    32   ar
     6    32    21    1
     7    21    22    1
     8    22    23    1
     9    23    24    1
    10    24    20    1
    11    20     1    1
    12     1     2    1
    13     2     3   ar
    14     3     4   ar
    15     4     5   ar
    16     5     6   ar
    17     6     7   ar
    18     7     8    1
    19     8     9    1
    20     9    10    1
    21    10    11   ar
    22    11    15    1
    23    15    16    2
    24    15    17   am
    25    17    18    1
    26    17    19    1
    27    11    12   ar
    28    12    13   ar
    29    13    14   ar
    30    24    25    1
    31    25    26    1
    32    32    33   ar
    33    33    34   ar
    34    34    35   ar
    35    35    36   ar
    36    36    37   ar
    37    37    28   ar
    38    36    31   ar
    39    26    21    1
    40     7     2   ar
    41    14    10   ar
    42    14     6    1
