@<TRIPOS>MOLECULE
*****
 27 30 0 0 0
SMALL
GASTEIGER

@<TRIPOS>ATOM
      1 C          -8.6042  -19.2702   23.0807 C.ar    1  UNL1        0.0814
      2 C          -7.5627  -19.7151   22.0971 C.ar    1  UNL1        0.0380
      3 C          -6.3180  -18.9009   21.9031 C.ar    1  UNL1        0.1017
      4 C          -6.1147  -17.6417   22.6926 C.ar    1  UNL1        0.1004
      5 N          -7.1562  -17.1968   23.6761 N.ar    1  UNL1       -0.2905
      6 C          -7.2319  -16.0096   24.5897 C.ar    1  UNL1        0.0567
      7 C          -6.1976  -14.9312   24.7214 C.3     1  UNL1        0.0517
      8 C          -8.5234  -16.0900   25.3484 C.ar    1  UNL1        0.0730
      9 C          -9.0074  -15.1061   26.3721 C.3     1  UNL1        0.0534
     10 N          -9.2459  -17.3270   24.9037 N.ar    1  UNL1       -0.2299
     11 C          -8.4009  -18.0111   23.8701 C.ar    1  UNL1        0.1604
     12 N          -5.2764  -19.3458   20.9195 N.ar    1  UNL1       -0.2266
     13 C          -5.0839  -20.7437   20.4111 C.ar    1  UNL1        0.1021
     14 C          -3.9331  -20.7327   19.4491 C.ar    1  UNL1        0.0431
     15 C          -3.4143  -19.3279   19.3630 C.ar    1  UNL1        0.1221
     16 N          -4.2445  -18.4707   20.2718 N.ar    1  UNL1       -0.1634
     17 N          -9.8489  -20.0844   23.2747 N.pl3   1  UNL1       -0.3267
     18 H          -9.9572  -20.6326   24.0853 H       1  UNL1        0.1472
     19 C         -10.9287  -20.0635   22.2338 C.3     1  UNL1        0.1137
     20 C         -10.0507  -19.4289   19.4362 C.3     1  UNL1        0.0307
     21 C         -10.8927  -18.4491   20.1984 C.ar    1  UNL1       -0.0245
     22 C         -11.2958  -17.1520   19.5619 C.ar    1  UNL1       -0.0045
     23 C         -12.1378  -16.1723   20.3241 C.ar    1  UNL1       -0.0007
     24 C         -12.5768  -16.4896   21.7229 C.ar    1  UNL1       -0.0045
     25 C         -12.1738  -17.7866   22.3595 C.ar    1  UNL1       -0.0245
     26 C         -12.6128  -18.1039   23.7583 C.3     1  UNL1        0.0307
     27 C         -11.3317  -18.7664   21.5972 C.ar    1  UNL1       -0.0105
@<TRIPOS>BOND
     1    20    21    1
     2    21    22   ar
     3    22    23   ar
     4    23    24   ar
     5    24    25   ar
     6    25    26    1
     7    25    27   ar
     8    27    19    1
     9    19    17    1
    10    17     1    1
    11     1     2   ar
    12     2     3   ar
    13     3    12    1
    14    12    13   ar
    15    13    14   ar
    16    14    15   ar
    17    15    16   ar
    18     3     4   ar
    19     4     5   ar
    20     5     6   ar
    21     6     7    1
    22     6     8   ar
    23     8     9    1
    24     8    10   ar
    25    10    11   ar
    26    27    21   ar
    27    11     1   ar
    28    16    12   ar
    29    11     5   ar
    30    17    18    1
@<TRIPOS>MOLECULE
*****
 27 30 0 0 0
SMALL
GASTEIGER

@<TRIPOS>ATOM
      1 C          -7.6340  -17.8863   21.7684 C.ar    1  UNL1        0.0814
      2 C          -7.9048  -17.1737   23.0603 C.ar    1  UNL1        0.0380
      3 C          -6.7748  -16.8631   23.9966 C.ar    1  UNL1        0.1017
      4 C          -5.3741  -17.2649   23.6410 C.ar    1  UNL1        0.1004
      5 N          -5.1033  -17.9775   22.3491 N.ar    1  UNL1       -0.2905
      6 C          -3.8364  -18.4934   21.7338 C.ar    1  UNL1        0.0567
      7 C          -2.4635  -18.3967   22.3304 C.3     1  UNL1        0.0517
      8 C          -4.1833  -19.1229   20.4172 C.ar    1  UNL1        0.0730
      9 C          -3.2182  -19.7663   19.4661 C.3     1  UNL1        0.0534
     10 N          -5.6647  -18.9961   20.2188 N.ar    1  UNL1       -0.2299
     11 C          -6.2333  -18.2881   21.4129 C.ar    1  UNL1        0.1604
     12 N          -7.0456  -16.1505   25.2885 N.ar    1  UNL1       -0.2266
     13 C          -8.3888  -15.9703   25.9314 C.ar    1  UNL1        0.1021
     14 C          -8.1940  -15.2015   27.2045 C.ar    1  UNL1        0.0431
     15 C          -6.7303  -14.9065   27.3485 C.ar    1  UNL1        0.1221
     16 N          -6.0206  -15.4930   26.1644 N.ar    1  UNL1       -0.1634
     17 N          -8.7640  -18.1970   20.8321 N.pl3   1  UNL1       -0.3267
     18 H          -8.8324  -17.7266   19.9699 H       1  UNL1        0.1472
     19 C          -9.7897  -19.2244   21.2094 C.3     1  UNL1        0.1137
     20 C          -9.6076  -20.3994   23.9637 C.3     1  UNL1        0.0307
     21 C         -10.7444  -19.4864   23.6114 C.ar    1  UNL1       -0.0245
     22 C         -11.7903  -19.1610   24.6363 C.ar    1  UNL1       -0.0045
     23 C         -12.9271  -18.2481   24.2841 C.ar    1  UNL1       -0.0007
     24 C         -13.0182  -17.6606   22.9069 C.ar    1  UNL1       -0.0045
     25 C         -11.9724  -17.9860   21.8820 C.ar    1  UNL1       -0.0245
     26 C         -12.0635  -17.3985   20.5049 C.3     1  UNL1        0.0307
     27 C         -10.8355  -18.8989   22.2343 C.ar    1  UNL1       -0.0105
@<TRIPOS>BOND
     1    20    21    1
     2    21    22   ar
     3    22    23   ar
     4    23    24   ar
     5    24    25   ar
     6    25    26    1
     7    25    27   ar
     8    27    19    1
     9    19    17    1
    10    17     1    1
    11     1     2   ar
    12     2     3   ar
    13     3    12    1
    14    12    13   ar
    15    13    14   ar
    16    14    15   ar
    17    15    16   ar
    18     3     4   ar
    19     4     5   ar
    20     5     6   ar
    21     6     7    1
    22     6     8   ar
    23     8     9    1
    24     8    10   ar
    25    10    11   ar
    26    27    21   ar
    27    11     1   ar
    28    16    12   ar
    29    11     5   ar
    30    17    18    1
@<TRIPOS>MOLECULE
*****
 27 30 0 0 0
SMALL
GASTEIGER

@<TRIPOS>ATOM
      1 C          -7.6674  -17.8787   21.7633 C.ar    1  UNL1        0.0814
      2 C          -7.9342  -17.1685   23.0573 C.ar    1  UNL1        0.0380
      3 C          -6.8023  -16.8650   23.9935 C.ar    1  UNL1        0.1017
      4 C          -5.4035  -17.2718   23.6358 C.ar    1  UNL1        0.1004
      5 N          -5.1367  -17.9821   22.3418 N.ar    1  UNL1       -0.2905
      6 C          -3.8724  -18.5017   21.7242 C.ar    1  UNL1        0.0567
      7 C          -2.4987  -18.4124   22.3199 C.3     1  UNL1        0.0517
      8 C          -4.2230  -19.1262   20.4062 C.ar    1  UNL1        0.0730
      9 C          -3.2613  -19.7712   19.4526 C.3     1  UNL1        0.0534
     10 N          -5.7039  -18.9927   20.2093 N.ar    1  UNL1       -0.2299
     11 C          -6.2687  -18.2855   21.4056 C.ar    1  UNL1        0.1604
     12 N          -7.0690  -16.1548   25.2875 N.ar    1  UNL1       -0.2266
     13 C          -8.4123  -15.9610   25.9264 C.ar    1  UNL1        0.1021
     14 C          -8.2128  -15.2001   27.2035 C.ar    1  UNL1        0.0431
     15 C          -6.7461  -14.9235   27.3540 C.ar    1  UNL1        0.1221
     16 N          -6.0393  -15.5135   26.1699 N.ar    1  UNL1       -0.1634
     17 N          -8.7994  -18.1822   20.8270 N.pl3   1  UNL1       -0.3267
     18 H          -8.8677  -17.7077   19.9671 H       1  UNL1        0.1472
     19 C          -9.8273  -19.2086   21.2010 C.3     1  UNL1        0.1137
     20 C         -12.1053  -17.3653   20.5582 C.3     1  UNL1        0.0307
     21 C         -11.9945  -17.9723   21.9254 C.ar    1  UNL1       -0.0245
     22 C         -13.0227  -17.6576   22.9713 C.ar    1  UNL1       -0.0045
     23 C         -12.9120  -18.2647   24.3385 C.ar    1  UNL1       -0.0007
     24 C         -11.7730  -19.1863   24.6598 C.ar    1  UNL1       -0.0045
     25 C         -10.7448  -19.5010   23.6140 C.ar    1  UNL1       -0.0245
     26 C          -9.6058  -20.4226   23.9354 C.3     1  UNL1        0.0307
     27 C         -10.8555  -18.8939   22.2468 C.ar    1  UNL1       -0.0105
@<TRIPOS>BOND
     1    20    21    1
     2    21    22   ar
     3    22    23   ar
     4    23    24   ar
     5    24    25   ar
     6    25    26    1
     7    25    27   ar
     8    27    19    1
     9    19    17    1
    10    17     1    1
    11     1     2   ar
    12     2     3   ar
    13     3    12    1
    14    12    13   ar
    15    13    14   ar
    16    14    15   ar
    17    15    16   ar
    18     3     4   ar
    19     4     5   ar
    20     5     6   ar
    21     6     7    1
    22     6     8   ar
    23     8     9    1
    24     8    10   ar
    25    10    11   ar
    26    27    21   ar
    27    11     1   ar
    28    16    12   ar
    29    11     5   ar
    30    17    18    1
@<TRIPOS>MOLECULE
*****
 27 30 0 0 0
SMALL
GASTEIGER

@<TRIPOS>ATOM
      1 C          -7.3184  -17.9647   21.9188 C.ar    1  UNL1        0.0814
      2 C          -5.9994  -18.3815   21.3388 C.ar    1  UNL1        0.0380
      3 C          -4.7222  -17.9777   22.0138 C.ar    1  UNL1        0.1017
      4 C          -4.7640  -17.1572   23.2688 C.ar    1  UNL1        0.1004
      5 N          -6.0830  -16.7405   23.8488 N.ar    1  UNL1       -0.2905
      6 C          -6.4355  -15.9363   25.0649 C.ar    1  UNL1        0.0567
      7 C          -5.4636  -15.3316   26.0343 C.3     1  UNL1        0.0517
      8 C          -7.9307  -15.8431   25.1416 C.ar    1  UNL1        0.0730
      9 C          -8.7164  -15.1287   26.2011 C.3     1  UNL1        0.0534
     10 N          -8.5022  -16.5896   23.9728 N.ar    1  UNL1       -0.2299
     11 C          -7.3602  -17.1442   23.1738 C.ar    1  UNL1        0.1604
     12 N          -3.4031  -18.3945   21.4338 N.ar    1  UNL1       -0.2266
     13 C          -2.7258  -19.7163   21.6437 C.ar    1  UNL1        0.1021
     14 C          -1.4338  -19.7013   20.8817 C.ar    1  UNL1        0.0431
     15 C          -1.3126  -18.3702   20.2008 C.ar    1  UNL1        0.1221
     16 N          -2.5297  -17.5626   20.5420 N.ar    1  UNL1       -0.1634
     17 N          -8.5957  -18.3685   21.2438 N.pl3   1  UNL1       -0.3267
     18 H          -8.8265  -17.9945   20.3628 H       1  UNL1        0.1472
     19 C          -9.5214  -19.3420   21.9112 C.3     1  UNL1        0.1137
     20 C         -10.1550  -19.8093   24.8060 C.3     1  UNL1        0.0307
     21 C         -11.1428  -19.1013   23.9269 C.ar    1  UNL1       -0.0245
     22 C         -12.4474  -18.6268   24.4952 C.ar    1  UNL1       -0.0045
     23 C         -13.4352  -17.9188   23.6160 C.ar    1  UNL1       -0.0007
     24 C         -13.1184  -17.6851   22.1686 C.ar    1  UNL1       -0.0045
     25 C         -11.8138  -18.1595   21.6003 C.ar    1  UNL1       -0.0245
     26 C         -11.4970  -17.9259   20.1529 C.3     1  UNL1        0.0307
     27 C         -10.8260  -18.8676   22.4795 C.ar    1  UNL1       -0.0105
@<TRIPOS>BOND
     1    20    21    1
     2    21    22   ar
     3    22    23   ar
     4    23    24   ar
     5    24    25   ar
     6    25    26    1
     7    25    27   ar
     8    27    19    1
     9    19    17    1
    10    17     1    1
    11     1     2   ar
    12     2     3   ar
    13     3    12    1
    14    12    13   ar
    15    13    14   ar
    16    14    15   ar
    17    15    16   ar
    18     3     4   ar
    19     4     5   ar
    20     5     6   ar
    21     6     7    1
    22     6     8   ar
    23     8     9    1
    24     8    10   ar
    25    10    11   ar
    26    27    21   ar
    27    11     1   ar
    28    16    12   ar
    29    11     5   ar
    30    17    18    1
@<TRIPOS>MOLECULE
*****
 27 30 0 0 0
SMALL
GASTEIGER

@<TRIPOS>ATOM
      1 C          -7.3713  -18.0192   21.9075 C.ar    1  UNL1        0.0814
      2 C          -6.0498  -18.4322   21.3305 C.ar    1  UNL1        0.0380
      3 C          -4.7748  -18.0067   21.9963 C.ar    1  UNL1        0.1017
      4 C          -4.8213  -17.1681   23.2391 C.ar    1  UNL1        0.1004
      5 N          -6.1428  -16.7551   23.8161 N.ar    1  UNL1       -0.2905
      6 C          -6.5000  -15.9363   25.0211 C.ar    1  UNL1        0.0567
      7 C          -5.5314  -15.3083   25.9790 C.3     1  UNL1        0.0517
      8 C          -7.9958  -15.8558   25.1001 C.ar    1  UNL1        0.0730
      9 C          -8.7856  -15.1332   26.1508 C.3     1  UNL1        0.0534
     10 N          -8.5630  -16.6248   23.9439 N.ar    1  UNL1       -0.2299
     11 C          -7.4178  -17.1806   23.1503 C.ar    1  UNL1        0.1604
     12 N          -3.4532  -18.4198   21.4192 N.ar    1  UNL1       -0.2266
     13 C          -2.7913  -19.7538   21.5982 C.ar    1  UNL1        0.1021
     14 C          -1.4906  -19.7298   20.8515 C.ar    1  UNL1        0.0431
     15 C          -1.3486  -18.3808   20.2110 C.ar    1  UNL1        0.1221
     16 N          -2.5616  -17.5712   20.5619 N.ar    1  UNL1       -0.1634
     17 N          -8.6463  -18.4447   21.2417 N.pl3   1  UNL1       -0.3267
     18 H          -8.8740  -18.0997   20.3482 H       1  UNL1        0.1472
     19 C          -9.5744  -19.3959   21.9373 C.3     1  UNL1        0.1137
     20 C         -11.5275  -17.9442   20.1830 C.3     1  UNL1        0.0307
     21 C         -11.8456  -18.1721   21.6310 C.ar    1  UNL1       -0.0245
     22 C         -13.1403  -17.6742   22.2020 C.ar    1  UNL1       -0.0045
     23 C         -13.4584  -17.9022   23.6500 C.ar    1  UNL1       -0.0007
     24 C         -12.4818  -18.6281   24.5272 C.ar    1  UNL1       -0.0045
     25 C         -11.1872  -19.1260   23.9563 C.ar    1  UNL1       -0.0245
     26 C         -10.2106  -19.8519   24.8334 C.3     1  UNL1        0.0307
     27 C         -10.8690  -18.8980   22.5082 C.ar    1  UNL1       -0.0105
@<TRIPOS>BOND
     1    20    21    1
     2    21    22   ar
     3    22    23   ar
     4    23    24   ar
     5    24    25   ar
     6    25    26    1
     7    25    27   ar
     8    27    19    1
     9    19    17    1
    10    17     1    1
    11     1     2   ar
    12     2     3   ar
    13     3    12    1
    14    12    13   ar
    15    13    14   ar
    16    14    15   ar
    17    15    16   ar
    18     3     4   ar
    19     4     5   ar
    20     5     6   ar
    21     6     7    1
    22     6     8   ar
    23     8     9    1
    24     8    10   ar
    25    10    11   ar
    26    27    21   ar
    27    11     1   ar
    28    16    12   ar
    29    11     5   ar
    30    17    18    1
@<TRIPOS>MOLECULE
*****
 27 30 0 0 0
SMALL
GASTEIGER

@<TRIPOS>ATOM
      1 C          -7.0554  -18.0772   22.0466 C.ar    1  UNL1        0.0814
      2 C          -6.7764  -17.3868   23.3487 C.ar    1  UNL1        0.0380
      3 C          -7.8941  -16.7322   24.1051 C.ar    1  UNL1        0.1017
      4 C          -9.2908  -16.7680   23.5595 C.ar    1  UNL1        0.1004
      5 N          -9.5699  -17.4584   22.2574 N.ar    1  UNL1       -0.2905
      6 C         -10.8354  -17.6549   21.4765 C.ar    1  UNL1        0.0567
      7 C         -12.1974  -17.1619   21.8663 C.3     1  UNL1        0.0517
      8 C         -10.4999  -18.4309   20.2375 C.ar    1  UNL1        0.0730
      9 C         -11.4675  -18.8502   19.1706 C.3     1  UNL1        0.0534
     10 N          -9.0269  -18.7141   20.2526 N.ar    1  UNL1       -0.2299
     11 C          -8.4522  -18.1130   21.5010 C.ar    1  UNL1        0.1604
     12 N          -7.6151  -16.0418   25.4073 N.ar    1  UNL1       -0.2266
     13 C          -8.6078  -15.7933   26.5039 C.ar    1  UNL1        0.1021
     14 C          -7.9006  -15.0766   27.6158 C.ar    1  UNL1        0.0431
     15 C          -6.4707  -14.8821   27.2063 C.ar    1  UNL1        0.1221
     16 N          -6.2943  -15.4787   25.8414 N.ar    1  UNL1       -0.1634
     17 N          -5.9377  -18.7318   21.2902 N.pl3   1  UNL1       -0.3267
     18 H          -6.0803  -19.0326   20.3636 H       1  UNL1        0.1472
     19 C          -4.6027  -18.9281   21.9454 C.3     1  UNL1        0.1137
     20 C          -3.4286  -20.1883   19.4891 C.3     1  UNL1        0.0307
     21 C          -2.7814  -18.9776   20.0933 C.ar    1  UNL1       -0.0245
     22 C          -1.5470  -18.3969   19.4694 C.ar    1  UNL1       -0.0045
     23 C          -0.8997  -17.1862   20.0737 C.ar    1  UNL1       -0.0007
     24 C          -1.4867  -16.5561   21.3018 C.ar    1  UNL1       -0.0045
     25 C          -2.7210  -17.1367   21.9257 C.ar    1  UNL1       -0.0245
     26 C          -3.3081  -16.5066   23.1539 C.3     1  UNL1        0.0307
     27 C          -3.3684  -18.3475   21.3215 C.ar    1  UNL1       -0.0105
@<TRIPOS>BOND
     1    20    21    1
     2    21    22   ar
     3    22    23   ar
     4    23    24   ar
     5    24    25   ar
     6    25    26    1
     7    25    27   ar
     8    27    19    1
     9    19    17    1
    10    17     1    1
    11     1     2   ar
    12     2     3   ar
    13     3    12    1
    14    12    13   ar
    15    13    14   ar
    16    14    15   ar
    17    15    16   ar
    18     3     4   ar
    19     4     5   ar
    20     5     6   ar
    21     6     7    1
    22     6     8   ar
    23     8     9    1
    24     8    10   ar
    25    10    11   ar
    26    27    21   ar
    27    11     1   ar
    28    16    12   ar
    29    11     5   ar
    30    17    18    1
@<TRIPOS>MOLECULE
*****
 27 30 0 0 0
SMALL
GASTEIGER

@<TRIPOS>ATOM
      1 C         -14.9094   -6.5791   19.3118 C.ar    1  UNL1        0.0814
      2 C         -15.5155   -5.2244   19.5296 C.ar    1  UNL1        0.0380
      3 C         -17.0036   -5.0791   19.6494 C.ar    1  UNL1        0.1017
      4 C         -17.8856   -6.2884   19.5514 C.ar    1  UNL1        0.1004
      5 N         -17.2795   -7.6431   19.3335 N.ar    1  UNL1       -0.2905
      6 C         -17.8908   -9.0060   19.1971 C.ar    1  UNL1        0.0567
      7 C         -19.3553   -9.3252   19.2546 C.3     1  UNL1        0.0517
      8 C         -16.7805   -9.9938   18.9929 C.ar    1  UNL1        0.0730
      9 C         -16.9398  -11.4741   18.8105 C.3     1  UNL1        0.0534
     10 N         -15.4830   -9.2413   19.0032 N.ar    1  UNL1       -0.2299
     11 C         -15.7914   -7.7884   19.2137 C.ar    1  UNL1        0.1604
     12 N         -17.6097   -3.7244   19.8673 N.ar    1  UNL1       -0.2266
     13 C         -16.9691   -2.4086   19.5384 C.ar    1  UNL1        0.1021
     14 C         -17.9264   -1.3187   19.9202 C.ar    1  UNL1        0.0431
     15 C         -19.1587   -1.9609   20.4850 C.ar    1  UNL1        0.1221
     16 N         -18.9630   -3.4477   20.4523 N.ar    1  UNL1       -0.1634
     17 N         -13.4212   -6.7245   19.1920 N.pl3   1  UNL1       -0.3267
     18 H         -13.0371   -7.5309   18.7779 H       1  UNL1        0.1472
     19 C         -12.5183   -5.6412   19.7030 C.3     1  UNL1        0.1137
     20 C         -10.1566   -7.2178   18.7351 C.3     1  UNL1        0.0307
     21 C         -10.3358   -5.7930   18.3017 C.ar    1  UNL1       -0.0245
     22 C          -9.3342   -5.1565   17.3842 C.ar    1  UNL1       -0.0045
     23 C          -9.5135   -3.7317   16.9508 C.ar    1  UNL1       -0.0007
     24 C         -10.6943   -2.9435   17.4347 C.ar    1  UNL1       -0.0045
     25 C         -11.6959   -3.5799   18.3521 C.ar    1  UNL1       -0.0245
     26 C         -12.8767   -2.7916   18.8361 C.3     1  UNL1        0.0307
     27 C         -11.5167   -5.0047   18.7856 C.ar    1  UNL1       -0.0105
@<TRIPOS>BOND
     1    20    21    1
     2    21    22   ar
     3    22    23   ar
     4    23    24   ar
     5    24    25   ar
     6    25    26    1
     7    25    27   ar
     8    27    19    1
     9    19    17    1
    10    17     1    1
    11     1     2   ar
    12     2     3   ar
    13     3    12    1
    14    12    13   ar
    15    13    14   ar
    16    14    15   ar
    17    15    16   ar
    18     3     4   ar
    19     4     5   ar
    20     5     6   ar
    21     6     7    1
    22     6     8   ar
    23     8     9    1
    24     8    10   ar
    25    10    11   ar
    26    27    21   ar
    27    11     1   ar
    28    16    12   ar
    29    11     5   ar
    30    17    18    1
@<TRIPOS>MOLECULE
*****
 27 30 0 0 0
SMALL
GASTEIGER

@<TRIPOS>ATOM
      1 C         -14.3697   -7.0760   19.1315 C.ar    1  UNL1        0.0814
      2 C         -14.6752   -5.6166   19.2945 C.ar    1  UNL1        0.0380
      3 C         -16.0962   -5.1599   19.4432 C.ar    1  UNL1        0.1017
      4 C         -17.2117   -6.1627   19.4289 C.ar    1  UNL1        0.1004
      5 N         -16.9061   -7.6221   19.2659 N.ar    1  UNL1       -0.2905
      6 C         -17.7899   -8.8330   19.2145 C.ar    1  UNL1        0.0567
      7 C         -19.2859   -8.8379   19.3243 C.3     1  UNL1        0.0517
      8 C         -16.9151  -10.0381   19.0340 C.ar    1  UNL1        0.0730
      9 C         -17.3828  -11.4597   18.9316 C.3     1  UNL1        0.0534
     10 N         -15.4907   -9.5720   18.9738 N.ar    1  UNL1       -0.2299
     11 C         -15.4851   -8.0788   19.1172 C.ar    1  UNL1        0.1604
     12 N         -16.4018   -3.7004   19.6063 N.ar    1  UNL1       -0.2266
     13 C         -15.3955   -2.5892   19.6573 C.ar    1  UNL1        0.1021
     14 C         -16.1391   -1.2979   19.8294 C.ar    1  UNL1        0.0431
     15 C         -17.6051   -1.6111   19.8849 C.ar    1  UNL1        0.1221
     16 N         -17.7674   -3.0959   19.7469 N.ar    1  UNL1       -0.1634
     17 N         -12.9486   -7.5327   18.9827 N.pl3   1  UNL1       -0.3267
     18 H         -12.4638   -7.8940   19.7597 H       1  UNL1        0.1472
     19 C         -12.2663   -7.4390   17.6502 C.3     1  UNL1        0.1137
     20 C         -13.3837   -5.2070   15.9860 C.3     1  UNL1        0.0307
     21 C         -11.9742   -5.1311   16.4933 C.ar    1  UNL1       -0.0245
     22 C         -11.1233   -3.9392   16.1686 C.ar    1  UNL1       -0.0045
     23 C          -9.7137   -3.8634   16.6759 C.ar    1  UNL1       -0.0007
     24 C          -9.1550   -4.9794   17.5080 C.ar    1  UNL1       -0.0045
     25 C         -10.0059   -6.1712   17.8328 C.ar    1  UNL1       -0.0245
     26 C          -9.4472   -7.2872   18.6648 C.3     1  UNL1        0.0307
     27 C         -11.4155   -6.2471   17.3254 C.ar    1  UNL1       -0.0105
@<TRIPOS>BOND
     1    20    21    1
     2    21    22   ar
     3    22    23   ar
     4    23    24   ar
     5    24    25   ar
     6    25    26    1
     7    25    27   ar
     8    27    19    1
     9    19    17    1
    10    17     1    1
    11     1     2   ar
    12     2     3   ar
    13     3    12    1
    14    12    13   ar
    15    13    14   ar
    16    14    15   ar
    17    15    16   ar
    18     3     4   ar
    19     4     5   ar
    20     5     6   ar
    21     6     7    1
    22     6     8   ar
    23     8     9    1
    24     8    10   ar
    25    10    11   ar
    26    27    21   ar
    27    11     1   ar
    28    16    12   ar
    29    11     5   ar
    30    17    18    1
@<TRIPOS>MOLECULE
*****
 27 30 0 0 0
SMALL
GASTEIGER

@<TRIPOS>ATOM
      1 C          -6.3332  -19.4558   21.3397 C.ar    1  UNL1        0.0814
      2 C          -6.4591  -18.4819   22.4735 C.ar    1  UNL1        0.0380
      3 C          -7.7351  -17.7176   22.6675 C.ar    1  UNL1        0.1017
      4 C          -8.8852  -17.9272   21.7276 C.ar    1  UNL1        0.1004
      5 N          -8.7592  -18.9011   20.5937 N.ar    1  UNL1       -0.2905
      6 C          -9.7158  -19.3148   19.5150 C.ar    1  UNL1        0.0567
      7 C         -11.1121  -18.7990   19.3295 C.3     1  UNL1        0.0517
      8 C          -9.0311  -20.3347   18.6543 C.ar    1  UNL1        0.0730
      9 C          -9.6224  -21.0180   17.4570 C.3     1  UNL1        0.0534
     10 N          -7.6512  -20.5514   19.2011 N.ar    1  UNL1       -0.2299
     11 C          -7.4832  -19.6654   20.3998 C.ar    1  UNL1        0.1604
     12 N          -7.8611  -16.7437   23.8014 N.ar    1  UNL1       -0.2266
     13 C          -9.1253  -16.3992   24.5314 C.ar    1  UNL1        0.1021
     14 C          -8.7905  -15.3859   25.5855 C.ar    1  UNL1        0.0431
     15 C          -7.3192  -15.1041   25.5069 C.ar    1  UNL1        0.1221
     16 N          -6.7449  -15.9433   24.4043 N.ar    1  UNL1       -0.1634
     17 N          -5.0571  -20.2201   21.1457 N.pl3   1  UNL1       -0.3267
     18 H          -5.0243  -20.9696   20.5082 H       1  UNL1        0.1472
     19 C          -3.8311  -19.8424   21.9230 C.3     1  UNL1        0.1137
     20 C          -2.7291  -19.6512   19.1393 C.3     1  UNL1        0.0307
     21 C          -2.4735  -18.5493   20.1244 C.ar    1  UNL1       -0.0245
     22 C          -1.6669  -17.3518   19.7177 C.ar    1  UNL1       -0.0045
     23 C          -1.4113  -16.2499   20.7029 C.ar    1  UNL1       -0.0007
     24 C          -1.9623  -16.3455   22.0947 C.ar    1  UNL1       -0.0045
     25 C          -2.7689  -17.5430   22.5015 C.ar    1  UNL1       -0.0245
     26 C          -3.3199  -17.6386   23.8933 C.3     1  UNL1        0.0307
     27 C          -3.0245  -18.6449   21.5163 C.ar    1  UNL1       -0.0105
@<TRIPOS>BOND
     1    20    21    1
     2    21    22   ar
     3    22    23   ar
     4    23    24   ar
     5    24    25   ar
     6    25    26    1
     7    25    27   ar
     8    27    19    1
     9    19    17    1
    10    17     1    1
    11     1     2   ar
    12     2     3   ar
    13     3    12    1
    14    12    13   ar
    15    13    14   ar
    16    14    15   ar
    17    15    16   ar
    18     3     4   ar
    19     4     5   ar
    20     5     6   ar
    21     6     7    1
    22     6     8   ar
    23     8     9    1
    24     8    10   ar
    25    10    11   ar
    26    27    21   ar
    27    11     1   ar
    28    16    12   ar
    29    11     5   ar
    30    17    18    1
