@<TRIPOS>MOLECULE
*****
 35 38 0 0 0
SMALL
GASTEIGER

@<TRIPOS>ATOM
      1 C           0.1017    2.3892   18.9813 C.ar    1  UNL1        0.1074
      2 C          -0.1253    3.1507   17.7091 C.ar    1  UNL1        0.0588
      3 S          -1.1187    4.2386   17.9910 S.2     1  UNL1       -0.0508
      4 C          -1.5058    4.1495   19.4375 C.ar    1  UNL1        0.1646
      5 N          -0.7515    3.0065   20.0495 N.ar    1  UNL1       -0.2224
      6 C           3.1199   -0.1256   18.4187 C.ar    1  UNL1        0.2416
      7 N           2.2011    1.0473   18.2452 N.ar    1  UNL1       -0.2089
      8 C           1.0205    1.2163   19.1549 C.ar    1  UNL1        0.1026
      9 C           0.7587    0.2124   20.2383 C.ar    1  UNL1        0.0224
     10 C           1.6775   -0.9605   20.4118 C.ar    1  UNL1        0.0239
     11 C           2.8581   -1.1295   19.5020 C.ar    1  UNL1        0.1189
     12 N           3.7769   -2.3024   19.6756 N.ar    1  UNL1       -0.2826
     13 C           3.4769   -3.7215   19.2937 C.ar    1  UNL1        0.1826
     14 N           4.6716   -4.5583   19.6437 N.ar    1  UNL1       -0.2280
     15 C           5.7101   -3.6562   20.2420 C.ar    1  UNL1        0.0786
     16 C           7.0638   -4.0749   20.7341 C.3     1  UNL1        0.0538
     17 C           5.1571   -2.2620   20.2617 C.ar    1  UNL1        0.0963
     18 C           5.4081    0.7168   17.5219 C.3     1  UNL1        0.2543
     19 O           4.3004   -0.2945   17.5089 O.3     1  UNL1       -0.4551
     20 N          -2.4766    5.0460   20.1473 N.pl3   1  UNL1       -0.2784
     21 H          -2.5849    5.9809   19.8586 H       1  UNL1        0.1555
     22 C          -3.2824    4.5179   21.2970 C.ar    1  UNL1        0.1320
     23 C          -2.9705    4.7056   22.7521 C.ar    1  UNL1        0.0505
     24 C          -4.0369    4.0131   23.5479 C.ar    1  UNL1        0.0807
     25 N          -5.0079    3.3975   22.5846 N.ar    1  UNL1       -0.1723
     26 N          -4.5417    3.7095   21.1934 N.ar    1  UNL1       -0.2291
     27 C          -4.1180    3.9478   25.0443 C.3     1  UNL1        0.0372
     28 C          -2.6748    3.5435   25.1049 C.3     1  UNL1        0.0060
     29 C          -5.5612    4.3521   24.9837 C.3     1  UNL1        0.0060
     30 C          -4.1992    3.8825   26.5407 C.3     1  UNL1        0.0060
     31 C          -5.2162    3.2871   19.9220 C.3     1  UNL1        0.2315
     32 C          -6.4890    3.9536   19.4910 C.3     1  UNL1        0.4200
     33 F          -7.7618    4.6201   19.0601 F       1  UNL1       -0.1679
     34 F          -6.1113    5.1785   20.2701 F       1  UNL1       -0.1679
     35 F          -6.8667    2.7287   18.7120 F       1  UNL1       -0.1679
@<TRIPOS>BOND
     1    18    19    1
     2    19     6    1
     3     6     7   ar
     4     7     8   ar
     5     8     1    1
     6     1     2   ar
     7     2     3   ar
     8     3     4   ar
     9     4    20    1
    10    20    22    1
    11    22    23   ar
    12    23    24   ar
    13    24    27    1
    14    27    28    1
    15    27    29    1
    16    27    30    1
    17    24    25   ar
    18    25    26   ar
    19    26    31    1
    20    31    32    1
    21    32    33    1
    22    32    34    1
    23    32    35    1
    24     4     5   ar
    25     8     9   ar
    26     9    10   ar
    27    10    11   ar
    28    11    12    1
    29    12    13   ar
    30    13    14   ar
    31    14    15   ar
    32    15    16    1
    33    15    17   ar
    34    11     6   ar
    35    17    12   ar
    36     5     1   ar
    37    26    22   ar
    38    20    21    1
@<TRIPOS>MOLECULE
*****
 35 38 0 0 0
SMALL
GASTEIGER

@<TRIPOS>ATOM
      1 C          -0.6150    2.4638   20.5636 C.ar    1  UNL1        0.1074
      2 C           0.4701    3.3143   19.9726 C.ar    1  UNL1        0.0588
      3 S           1.5405    2.4028   19.4499 S.2     1  UNL1       -0.0508
      4 C           1.1171    0.9889   19.7178 C.ar    1  UNL1        0.1646
      5 N          -0.2151    1.0267   20.4062 N.ar    1  UNL1       -0.2224
      6 C          -4.4476    3.3370   21.1102 C.ar    1  UNL1        0.2416
      7 N          -3.1844    2.8380   20.4736 N.ar    1  UNL1       -0.2089
      8 C          -1.8782    2.9628   21.2003 C.ar    1  UNL1        0.1026
      9 C          -1.8352    3.5866   22.5638 C.ar    1  UNL1        0.0224
     10 C          -3.0983    4.0855   23.2004 C.ar    1  UNL1        0.0239
     11 C          -4.4046    3.9607   22.4736 C.ar    1  UNL1        0.1189
     12 N          -5.6678    4.4598   23.1104 N.ar    1  UNL1       -0.2826
     13 C          -7.0527    4.3166   22.5522 C.ar    1  UNL1        0.1826
     14 N          -8.0086    4.9579   23.5139 N.ar    1  UNL1       -0.2280
     15 C          -7.2145    5.4974   24.6665 C.ar    1  UNL1        0.0786
     16 C          -7.7697    6.2182   25.8591 C.3     1  UNL1        0.0538
     17 C          -5.7678    5.1895   24.4171 C.ar    1  UNL1        0.0963
     18 C          -5.8367    3.5553   18.9256 C.3     1  UNL1        0.2543
     19 O          -5.7538    3.2122   20.3834 O.3     1  UNL1       -0.4551
     20 N           1.8901   -0.2458   19.3602 N.pl3   1  UNL1       -0.2784
     21 H           1.8999   -0.5683   18.4301 H       1  UNL1        0.1555
     22 C           2.6482   -0.9891   20.4198 C.ar    1  UNL1        0.1320
     23 C           2.7750   -0.5870   21.8593 C.ar    1  UNL1        0.0505
     24 C           3.6178   -1.6144   22.5551 C.ar    1  UNL1        0.0807
     25 N           4.0119   -2.6515   21.5456 N.ar    1  UNL1       -0.1723
     26 N           3.4126   -2.2651   20.2259 N.ar    1  UNL1       -0.2291
     27 C           3.9995   -1.6061   24.0057 C.3     1  UNL1        0.0372
     28 C           4.9864   -2.7069   23.7523 C.3     1  UNL1        0.0060
     29 C           3.0126   -0.5053   24.2592 C.3     1  UNL1        0.0060
     30 C           4.3812   -1.5979   25.4563 C.3     1  UNL1        0.0060
     31 C           3.5531   -3.0218   18.9384 C.3     1  UNL1        0.2315
     32 C           4.1250   -4.4084   18.9420 C.3     1  UNL1        0.4200
     33 F           4.6969   -5.7951   18.9457 F       1  UNL1       -0.1679
     34 F           2.7924   -4.9569   19.3584 F       1  UNL1       -0.1679
     35 F           5.4576   -3.8600   18.5258 F       1  UNL1       -0.1679
@<TRIPOS>BOND
     1    18    19    1
     2    19     6    1
     3     6     7   ar
     4     7     8   ar
     5     8     1    1
     6     1     2   ar
     7     2     3   ar
     8     3     4   ar
     9     4    20    1
    10    20    22    1
    11    22    23   ar
    12    23    24   ar
    13    24    27    1
    14    27    28    1
    15    27    29    1
    16    27    30    1
    17    24    25   ar
    18    25    26   ar
    19    26    31    1
    20    31    32    1
    21    32    33    1
    22    32    34    1
    23    32    35    1
    24     4     5   ar
    25     8     9   ar
    26     9    10   ar
    27    10    11   ar
    28    11    12    1
    29    12    13   ar
    30    13    14   ar
    31    14    15   ar
    32    15    16    1
    33    15    17   ar
    34    11     6   ar
    35    17    12   ar
    36     5     1   ar
    37    26    22   ar
    38    20    21    1
@<TRIPOS>MOLECULE
*****
 35 38 0 0 0
SMALL
GASTEIGER

@<TRIPOS>ATOM
      1 C           7.6068   -3.2414   23.0394 C.ar    1  UNL1        0.1074
      2 C           8.5098   -3.6501   21.9135 C.ar    1  UNL1        0.0588
      3 S           8.0964   -2.8897   20.6884 S.2     1  UNL1       -0.0508
      4 C           6.9380   -2.0110   21.0571 C.ar    1  UNL1        0.1646
      5 N           6.6354   -2.2284   22.5101 N.ar    1  UNL1       -0.2224
      6 C           7.2830   -5.6705   26.1610 C.ar    1  UNL1        0.2416
      7 N           7.2248   -5.1564   24.7531 N.ar    1  UNL1       -0.2089
      8 C           7.6651   -3.7555   24.4474 C.ar    1  UNL1        0.1026
      9 C           8.1635   -2.8686   25.5496 C.ar    1  UNL1        0.0224
     10 C           8.2217   -3.3827   26.9575 C.ar    1  UNL1        0.0239
     11 C           7.7814   -4.7836   27.2632 C.ar    1  UNL1        0.1189
     12 N           7.8397   -5.2977   28.6712 N.ar    1  UNL1       -0.2826
     13 C           6.7478   -5.1920   29.6943 C.ar    1  UNL1        0.1826
     14 N           7.2333   -5.8367   30.9587 N.ar    1  UNL1       -0.2280
     15 C           8.6253   -6.3409   30.7170 C.ar    1  UNL1        0.0786
     16 C           9.4905   -7.0531   31.7140 C.3     1  UNL1        0.0538
     17 C           9.0000   -6.0078   29.3033 C.ar    1  UNL1        0.0963
     18 C           7.8498   -8.1824   26.5063 C.3     1  UNL1        0.2543
     19 O           6.8427   -7.0715   26.4667 O.3     1  UNL1       -0.4551
     20 N           6.2099   -1.0786   20.1348 N.pl3   1  UNL1       -0.2784
     21 H           6.7105   -0.5564   19.4670 H       1  UNL1        0.1555
     22 C           4.7192   -0.9420   20.2299 C.ar    1  UNL1        0.1320
     23 C           3.9770    0.1899   20.8764 C.ar    1  UNL1        0.0505
     24 C           2.5080   -0.0818   20.7413 C.ar    1  UNL1        0.0807
     25 N           2.3424   -1.3816   20.0112 N.ar    1  UNL1       -0.1723
     26 N           3.7089   -1.9133   19.6951 N.ar    1  UNL1       -0.2291
     27 C           1.3994    0.7927   21.2474 C.3     1  UNL1        0.0372
     28 C           2.3860    1.5675   22.0698 C.3     1  UNL1        0.0060
     29 C           0.4128    0.0180   20.4250 C.3     1  UNL1        0.0060
     30 C           0.2908    1.6673   21.7535 C.3     1  UNL1        0.0060
     31 C           4.0119   -3.1917   18.9714 C.3     1  UNL1        0.2315
     32 C           3.6075   -4.5063   19.5697 C.3     1  UNL1        0.4200
     33 F           3.2030   -5.8209   20.1681 F       1  UNL1       -0.1679
     34 F           2.4815   -4.6085   18.5840 F       1  UNL1       -0.1679
     35 F           4.7334   -4.4041   20.5555 F       1  UNL1       -0.1679
@<TRIPOS>BOND
     1    18    19    1
     2    19     6    1
     3     6     7   ar
     4     7     8   ar
     5     8     1    1
     6     1     2   ar
     7     2     3   ar
     8     3     4   ar
     9     4    20    1
    10    20    22    1
    11    22    23   ar
    12    23    24   ar
    13    24    27    1
    14    27    28    1
    15    27    29    1
    16    27    30    1
    17    24    25   ar
    18    25    26   ar
    19    26    31    1
    20    31    32    1
    21    32    33    1
    22    32    34    1
    23    32    35    1
    24     4     5   ar
    25     8     9   ar
    26     9    10   ar
    27    10    11   ar
    28    11    12    1
    29    12    13   ar
    30    13    14   ar
    31    14    15   ar
    32    15    16    1
    33    15    17   ar
    34    11     6   ar
    35    17    12   ar
    36     5     1   ar
    37    26    22   ar
    38    20    21    1
@<TRIPOS>MOLECULE
*****
 35 38 0 0 0
SMALL
GASTEIGER

@<TRIPOS>ATOM
      1 C           6.4464   -1.6253   33.0138 C.ar    1  UNL1        0.1074
      2 C           7.3929   -0.5193   33.3756 C.ar    1  UNL1        0.0588
      3 S           6.8248    0.2089   34.5575 S.2     1  UNL1       -0.0508
      4 C           5.5271   -0.4470   34.9262 C.ar    1  UNL1        0.1646
      5 N           5.2933   -1.5806   33.9722 N.ar    1  UNL1       -0.2224
      6 C           6.8579   -3.0956   29.3506 C.ar    1  UNL1        0.2416
      7 N           6.6822   -2.1168   30.4735 N.ar    1  UNL1       -0.2089
      8 C           6.6221   -2.6042   31.8909 C.ar    1  UNL1        0.1026
      9 C           6.7377   -4.0705   32.1853 C.ar    1  UNL1        0.0224
     10 C           6.9134   -5.0493   31.0623 C.ar    1  UNL1        0.0239
     11 C           6.9735   -4.5618   29.6450 C.ar    1  UNL1        0.1189
     12 N           7.1492   -5.5407   28.5220 N.ar    1  UNL1       -0.2826
     13 C           6.2503   -5.6857   27.3300 C.ar    1  UNL1        0.1826
     14 N           6.8003   -6.7811   26.4653 N.ar    1  UNL1       -0.2280
     15 C           8.0391   -7.3131   27.1229 C.ar    1  UNL1        0.0786
     16 C           8.9094   -8.4177   26.6010 C.3     1  UNL1        0.0538
     17 C           8.2547   -6.5465   28.3940 C.ar    1  UNL1        0.0963
     18 C           5.7720   -1.8294   27.3588 C.3     1  UNL1        0.2543
     19 O           6.9180   -2.6082   27.9333 O.3     1  UNL1       -0.4551
     20 N           4.6223   -0.0406   36.0514 N.pl3   1  UNL1       -0.2784
     21 H           4.6629   -0.5166   36.9122 H       1  UNL1        0.1555
     22 C           3.6555    1.0910   35.8649 C.ar    1  UNL1        0.1320
     23 C           3.2922    1.7343   34.5595 C.ar    1  UNL1        0.0505
     24 C           2.2944    2.8189   34.8389 C.ar    1  UNL1        0.0807
     25 N           2.0410    2.8458   36.3171 N.ar    1  UNL1       -0.1723
     26 N           2.8821    1.7780   36.9512 N.ar    1  UNL1       -0.2291
     27 C           1.6613    3.7185   33.8192 C.3     1  UNL1        0.0372
     28 C           1.6090    2.5784   32.8458 C.3     1  UNL1        0.0060
     29 C           1.7135    4.8586   34.7925 C.3     1  UNL1        0.0060
     30 C           1.0281    4.6181   32.7995 C.3     1  UNL1        0.0060
     31 C           2.9398    1.4540   38.4147 C.3     1  UNL1        0.2315
     32 C           1.6787    1.4228   39.2261 C.3     1  UNL1        0.4200
     33 F           0.4175    1.3915   40.0376 F       1  UNL1       -0.1679
     34 F           1.8908    2.8570   39.6109 F       1  UNL1       -0.1679
     35 F           1.4665   -0.0114   38.8414 F       1  UNL1       -0.1679
@<TRIPOS>BOND
     1    18    19    1
     2    19     6    1
     3     6     7   ar
     4     7     8   ar
     5     8     1    1
     6     1     2   ar
     7     2     3   ar
     8     3     4   ar
     9     4    20    1
    10    20    22    1
    11    22    23   ar
    12    23    24   ar
    13    24    27    1
    14    27    28    1
    15    27    29    1
    16    27    30    1
    17    24    25   ar
    18    25    26   ar
    19    26    31    1
    20    31    32    1
    21    32    33    1
    22    32    34    1
    23    32    35    1
    24     4     5   ar
    25     8     9   ar
    26     9    10   ar
    27    10    11   ar
    28    11    12    1
    29    12    13   ar
    30    13    14   ar
    31    14    15   ar
    32    15    16    1
    33    15    17   ar
    34    11     6   ar
    35    17    12   ar
    36     5     1   ar
    37    26    22   ar
    38    20    21    1
@<TRIPOS>MOLECULE
*****
 35 38 0 0 0
SMALL
GASTEIGER

@<TRIPOS>ATOM
      1 C           4.2774   -0.3393   26.1175 C.ar    1  UNL1        0.1074
      2 C           5.7230   -0.3214   25.7179 C.ar    1  UNL1        0.0588
      3 S           5.8619   -1.1032   24.4453 S.2     1  UNL1       -0.0508
      4 C           4.5019   -1.6043   24.0584 C.ar    1  UNL1        0.1646
      5 N           3.5227   -1.1321   25.0919 N.ar    1  UNL1       -0.2224
      6 C           1.8389    0.4435   29.1492 C.ar    1  UNL1        0.2416
      7 N           2.4267   -0.2157   27.9369 N.ar    1  UNL1       -0.2089
      8 C           3.6895    0.3200   27.3300 C.ar    1  UNL1        0.1026
      9 C           4.3645    1.5149   27.9354 C.ar    1  UNL1        0.0224
     10 C           3.7766    2.1741   29.1477 C.ar    1  UNL1        0.0239
     11 C           2.5138    1.6384   29.7546 C.ar    1  UNL1        0.1189
     12 N           1.9260    2.2977   30.9671 N.ar    1  UNL1       -0.2826
     13 C           2.2857    2.0023   32.3930 C.ar    1  UNL1        0.1826
     14 N           1.4573    2.8902   33.2735 N.ar    1  UNL1       -0.2280
     15 C           0.5854    3.7343   32.3918 C.ar    1  UNL1        0.0786
     16 C          -0.4026    4.7638   32.8543 C.3     1  UNL1        0.0538
     17 C           0.8751    3.3681   30.9663 C.ar    1  UNL1        0.0963
     18 C          -0.7408    0.1432   29.0777 C.3     1  UNL1        0.2543
     19 O           0.5761   -0.0922   29.7562 O.3     1  UNL1       -0.4551
     20 N           4.1782   -2.4322   22.8502 N.pl3   1  UNL1       -0.2784
     21 H           4.2764   -3.4112   22.8836 H       1  UNL1        0.1555
     22 C           3.7048   -1.7684   21.5912 C.ar    1  UNL1        0.1320
     23 C           2.6338   -0.7225   21.4948 C.ar    1  UNL1        0.0505
     24 C           2.4864   -0.3416   20.0515 C.ar    1  UNL1        0.0807
     25 N           3.4662   -1.1520   19.2558 N.ar    1  UNL1       -0.1723
     26 N           4.2192   -2.0338   20.2074 N.ar    1  UNL1       -0.2291
     27 C           1.5274    0.6718   19.5006 C.3     1  UNL1        0.0372
     28 C           2.6125    1.2214   18.6229 C.3     1  UNL1        0.0060
     29 C           0.4423    0.1222   20.3784 C.3     1  UNL1        0.0060
     30 C           0.5685    1.6852   18.9497 C.3     1  UNL1        0.0060
     31 C           5.2974   -3.0097   19.8396 C.3     1  UNL1        0.2315
     32 C           4.9725   -4.2000   18.9868 C.3     1  UNL1        0.4200
     33 F           4.6476   -5.3904   18.1339 F       1  UNL1       -0.1679
     34 F           4.3154   -4.8622   20.1614 F       1  UNL1       -0.1679
     35 F           5.6296   -3.5379   17.8122 F       1  UNL1       -0.1679
@<TRIPOS>BOND
     1    18    19    1
     2    19     6    1
     3     6     7   ar
     4     7     8   ar
     5     8     1    1
     6     1     2   ar
     7     2     3   ar
     8     3     4   ar
     9     4    20    1
    10    20    22    1
    11    22    23   ar
    12    23    24   ar
    13    24    27    1
    14    27    28    1
    15    27    29    1
    16    27    30    1
    17    24    25   ar
    18    25    26   ar
    19    26    31    1
    20    31    32    1
    21    32    33    1
    22    32    34    1
    23    32    35    1
    24     4     5   ar
    25     8     9   ar
    26     9    10   ar
    27    10    11   ar
    28    11    12    1
    29    12    13   ar
    30    13    14   ar
    31    14    15   ar
    32    15    16    1
    33    15    17   ar
    34    11     6   ar
    35    17    12   ar
    36     5     1   ar
    37    26    22   ar
    38    20    21    1
@<TRIPOS>MOLECULE
*****
 35 38 0 0 0
SMALL
GASTEIGER

@<TRIPOS>ATOM
      1 C         -13.6287   -0.9836   18.4428 C.ar    1  UNL1        0.1074
      2 C         -12.1312   -0.9390   18.5169 C.ar    1  UNL1        0.0588
      3 S         -11.5969   -2.1674   17.8419 S.2     1  UNL1       -0.0508
      4 C         -12.7642   -2.9712   17.3506 C.ar    1  UNL1        0.1646
      5 N         -14.0199   -2.2396   17.7220 N.ar    1  UNL1       -0.2224
      6 C         -15.2192    2.5364   19.3536 C.ar    1  UNL1        0.2416
      7 N         -14.2782    1.5060   18.8035 N.ar    1  UNL1       -0.2089
      8 C         -14.5698    0.0468   18.9928 C.ar    1  UNL1        0.1026
      9 C         -15.8025   -0.3819   19.7322 C.ar    1  UNL1        0.0224
     10 C         -16.7435    0.6486   20.2822 C.ar    1  UNL1        0.0239
     11 C         -16.4519    2.1077   20.0929 C.ar    1  UNL1        0.1189
     12 N         -17.3930    3.1382   20.6430 N.ar    1  UNL1       -0.2826
     13 C         -18.5174    3.7932   19.8968 C.ar    1  UNL1        0.1826
     14 N         -19.1942    4.7543   20.8285 N.ar    1  UNL1       -0.2280
     15 C         -18.4882    4.6933   22.1506 C.ar    1  UNL1        0.0786
     16 C         -18.8346    5.4911   23.3727 C.3     1  UNL1        0.0538
     17 C         -17.3750    3.6945   22.0359 C.ar    1  UNL1        0.0963
     18 C         -15.3232    4.6803   17.8897 C.3     1  UNL1        0.2543
     19 O         -14.9276    3.9956   19.1643 O.3     1  UNL1       -0.4551
     20 N         -12.6890   -4.2773   16.6168 N.pl3   1  UNL1       -0.2784
     21 H         -12.3853   -4.2992   15.6806 H       1  UNL1        0.1555
     22 C         -13.0764   -5.5501   17.3096 C.ar    1  UNL1        0.1320
     23 C         -14.4691   -5.9599   17.6869 C.ar    1  UNL1        0.0505
     24 C         -14.3926   -7.2996   18.3571 C.ar    1  UNL1        0.0807
     25 N         -12.9526   -7.7179   18.3940 N.ar    1  UNL1       -0.1723
     26 N         -12.1391   -6.6366   17.7466 N.ar    1  UNL1       -0.2291
     27 C         -15.5525   -8.0835   18.8958 C.3     1  UNL1        0.0372
     28 C         -14.9651   -9.3421   18.3293 C.3     1  UNL1        0.0060
     29 C         -16.1400   -6.8249   19.4623 C.3     1  UNL1        0.0060
     30 C         -16.7124   -8.8674   19.4345 C.3     1  UNL1        0.0060
     31 C         -10.6498   -6.6411   17.5677 C.3     1  UNL1        0.2315
     32 C          -9.7504   -6.6723   18.7676 C.3     1  UNL1        0.4200
     33 F          -8.8509   -6.7035   19.9676 F       1  UNL1       -0.1679
     34 F         -10.2531   -5.3204   19.1796 F       1  UNL1       -0.1679
     35 F          -9.2477   -8.0241   18.3557 F       1  UNL1       -0.1679
@<TRIPOS>BOND
     1    18    19    1
     2    19     6    1
     3     6     7   ar
     4     7     8   ar
     5     8     1    1
     6     1     2   ar
     7     2     3   ar
     8     3     4   ar
     9     4    20    1
    10    20    22    1
    11    22    23   ar
    12    23    24   ar
    13    24    27    1
    14    27    28    1
    15    27    29    1
    16    27    30    1
    17    24    25   ar
    18    25    26   ar
    19    26    31    1
    20    31    32    1
    21    32    33    1
    22    32    34    1
    23    32    35    1
    24     4     5   ar
    25     8     9   ar
    26     9    10   ar
    27    10    11   ar
    28    11    12    1
    29    12    13   ar
    30    13    14   ar
    31    14    15   ar
    32    15    16    1
    33    15    17   ar
    34    11     6   ar
    35    17    12   ar
    36     5     1   ar
    37    26    22   ar
    38    20    21    1
@<TRIPOS>MOLECULE
*****
 35 38 0 0 0
SMALL
GASTEIGER

@<TRIPOS>ATOM
      1 C           4.8990   -3.6405   21.0470 C.ar    1  UNL1        0.1074
      2 C           3.9671   -4.6639   20.4690 C.ar    1  UNL1        0.0588
      3 S           3.5582   -4.1992   19.1027 S.2     1  UNL1       -0.0508
      4 C           4.2373   -2.8885   18.8363 C.ar    1  UNL1        0.1646
      5 N           5.0660   -2.5432   20.0380 N.ar    1  UNL1       -0.2224
      6 C           7.3347   -4.7172   23.9895 C.ar    1  UNL1        0.2416
      7 N           6.6840   -4.6544   22.6395 N.ar    1  UNL1       -0.2089
      8 C           5.5497   -3.7032   22.3971 C.ar    1  UNL1        0.1026
      9 C           5.0662   -2.8149   23.5048 C.ar    1  UNL1        0.0224
     10 C           5.7169   -2.8777   24.8548 C.ar    1  UNL1        0.0239
     11 C           6.8511   -3.8288   25.0972 C.ar    1  UNL1        0.1189
     12 N           7.5018   -3.8916   26.4473 N.ar    1  UNL1       -0.2826
     13 C           8.7741   -3.2041   26.8457 C.ar    1  UNL1        0.1826
     14 N           9.0530   -3.5405   28.2806 N.ar    1  UNL1       -0.2280
     15 C           7.9531   -4.4359   28.7691 C.ar    1  UNL1        0.0786
     16 C           7.8330   -5.0129   30.1484 C.3     1  UNL1        0.0538
     17 C           6.9944   -4.6528   27.6360 C.ar    1  UNL1        0.0963
     18 C           8.2454   -7.1471   24.1167 C.3     1  UNL1        0.2543
     19 O           8.4689   -5.6683   24.2319 O.3     1  UNL1       -0.4551
     20 N           4.1101   -2.0673   17.5875 N.pl3   1  UNL1       -0.2784
     21 H           3.8205   -2.4908   16.7472 H       1  UNL1        0.1555
     22 C           4.4241   -0.6009   17.6190 C.ar    1  UNL1        0.1320
     23 C           5.6309    0.0555   17.0165 C.ar    1  UNL1        0.0505
     24 C           5.5392    1.5286   17.2836 C.ar    1  UNL1        0.0807
     25 N           4.2757    1.7827   18.0511 N.ar    1  UNL1       -0.1723
     26 N           3.5866    0.4666   18.2584 N.ar    1  UNL1       -0.2291
     27 C           6.5359    2.5656   16.8579 C.3     1  UNL1        0.0372
     28 C           7.3714    1.4986   16.2149 C.3     1  UNL1        0.0060
     29 C           5.7005    3.6326   17.5009 C.3     1  UNL1        0.0060
     30 C           7.5327    3.6026   16.4322 C.3     1  UNL1        0.0060
     31 C           2.2879    0.2552   18.9786 C.3     1  UNL1        0.2315
     32 C           2.2746   -0.4171   20.3193 C.3     1  UNL1        0.4200
     33 F           2.2614   -1.0895   21.6601 F       1  UNL1       -0.1679
     34 F           3.5563    0.2744   20.6788 F       1  UNL1       -0.1679
     35 F           0.9931   -1.1087   19.9599 F       1  UNL1       -0.1679
@<TRIPOS>BOND
     1    18    19    1
     2    19     6    1
     3     6     7   ar
     4     7     8   ar
     5     8     1    1
     6     1     2   ar
     7     2     3   ar
     8     3     4   ar
     9     4    20    1
    10    20    22    1
    11    22    23   ar
    12    23    24   ar
    13    24    27    1
    14    27    28    1
    15    27    29    1
    16    27    30    1
    17    24    25   ar
    18    25    26   ar
    19    26    31    1
    20    31    32    1
    21    32    33    1
    22    32    34    1
    23    32    35    1
    24     4     5   ar
    25     8     9   ar
    26     9    10   ar
    27    10    11   ar
    28    11    12    1
    29    12    13   ar
    30    13    14   ar
    31    14    15   ar
    32    15    16    1
    33    15    17   ar
    34    11     6   ar
    35    17    12   ar
    36     5     1   ar
    37    26    22   ar
    38    20    21    1
@<TRIPOS>MOLECULE
*****
 35 38 0 0 0
SMALL
GASTEIGER

@<TRIPOS>ATOM
      1 C           5.7557   -2.2354   32.2356 C.ar    1  UNL1        0.1074
      2 C           4.5368   -2.6819   32.9873 C.ar    1  UNL1        0.0588
      3 S           4.3246   -1.7345   34.1308 S.2     1  UNL1       -0.0508
      4 C           5.4124   -0.7026   34.0858 C.ar    1  UNL1        0.1646
      5 N           6.2968   -1.0122   32.9145 N.ar    1  UNL1       -0.2224
      6 C           7.6269   -4.8678   29.9292 C.ar    1  UNL1        0.2416
      7 N           7.0504   -4.2070   31.1461 N.ar    1  UNL1       -0.2089
      8 C           6.3322   -2.8963   31.0186 C.ar    1  UNL1        0.1026
      9 C           6.1906   -2.2463   29.6742 C.ar    1  UNL1        0.0224
     10 C           6.7672   -2.9072   28.4573 C.ar    1  UNL1        0.0239
     11 C           7.4853   -4.2179   28.5848 C.ar    1  UNL1        0.1189
     12 N           8.0619   -4.8787   27.3678 N.ar    1  UNL1       -0.2826
     13 C           9.3446   -4.5050   26.6859 C.ar    1  UNL1        0.1826
     14 N           9.5324   -5.4246   25.5158 N.ar    1  UNL1       -0.2280
     15 C           8.3657   -6.3666   25.4746 C.ar    1  UNL1        0.0786
     16 C           8.1465   -7.4549   24.4658 C.3     1  UNL1        0.0538
     17 C           7.4570   -6.0292   26.6192 C.ar    1  UNL1        0.0963
     18 C           8.9407   -6.5824   31.3728 C.3     1  UNL1        0.2543
     19 O           8.3450   -6.1785   30.0568 O.3     1  UNL1       -0.4551
     20 N           5.5853    0.4386   35.0438 N.pl3   1  UNL1       -0.2784
     21 H           6.4889    0.7382   35.2946 H       1  UNL1        0.1555
     22 C           4.3814    1.1232   35.6198 C.ar    1  UNL1        0.1320
     23 C           3.9297    1.0585   37.0487 C.ar    1  UNL1        0.0505
     24 C           2.6869    1.8881   37.1801 C.ar    1  UNL1        0.0807
     25 N           2.3705    2.4656   35.8323 N.ar    1  UNL1       -0.1723
     26 N           3.4177    1.9929   34.8680 N.ar    1  UNL1       -0.2291
     27 C           1.8989    2.1026   38.4383 C.3     1  UNL1        0.0372
     28 C           1.6004    3.5093   38.0115 C.3     1  UNL1        0.0060
     29 C           2.1974    0.6959   38.8650 C.3     1  UNL1        0.0060
     30 C           1.1109    2.3170   39.6965 C.3     1  UNL1        0.0060
     31 C           3.4888    2.3305   33.4083 C.3     1  UNL1        0.2315
     32 C           2.8030    1.4551   32.4017 C.3     1  UNL1        0.4200
     33 F           2.1172    0.5796   31.3951 F       1  UNL1       -0.1679
     34 F           4.1280    1.1400   31.7730 F       1  UNL1       -0.1679
     35 F           1.4781    1.7701   33.0303 F       1  UNL1       -0.1679
@<TRIPOS>BOND
     1    18    19    1
     2    19     6    1
     3     6     7   ar
     4     7     8   ar
     5     8     1    1
     6     1     2   ar
     7     2     3   ar
     8     3     4   ar
     9     4    20    1
    10    20    22    1
    11    22    23   ar
    12    23    24   ar
    13    24    27    1
    14    27    28    1
    15    27    29    1
    16    27    30    1
    17    24    25   ar
    18    25    26   ar
    19    26    31    1
    20    31    32    1
    21    32    33    1
    22    32    34    1
    23    32    35    1
    24     4     5   ar
    25     8     9   ar
    26     9    10   ar
    27    10    11   ar
    28    11    12    1
    29    12    13   ar
    30    13    14   ar
    31    14    15   ar
    32    15    16    1
    33    15    17   ar
    34    11     6   ar
    35    17    12   ar
    36     5     1   ar
    37    26    22   ar
    38    20    21    1
@<TRIPOS>MOLECULE
*****
 35 38 0 0 0
SMALL
GASTEIGER

@<TRIPOS>ATOM
      1 C           5.8449   -3.5927   22.3276 C.ar    1  UNL1        0.1074
      2 C           6.7760   -3.6814   21.1549 C.ar    1  UNL1        0.0588
      3 S           5.9771   -3.4363   19.9092 S.2     1  UNL1       -0.0508
      4 C           4.5522   -3.1962   20.3120 C.ar    1  UNL1        0.1646
      5 N           4.4706   -3.2929   21.8066 N.ar    1  UNL1       -0.2224
      6 C           7.3281   -5.1883   25.6448 C.ar    1  UNL1        0.2416
      7 N           6.9511   -5.0086   24.2041 N.ar    1  UNL1       -0.2089
      8 C           6.2219   -3.7724   23.7683 C.ar    1  UNL1        0.1026
      9 C           5.8696   -2.7159   24.7731 C.ar    1  UNL1        0.0224
     10 C           6.2466   -2.8956   26.2138 C.ar    1  UNL1        0.0239
     11 C           6.9759   -4.1319   26.6496 C.ar    1  UNL1        0.1189
     12 N           7.3529   -4.3115   28.0903 N.ar    1  UNL1       -0.2826
     13 C           8.4788   -3.6197   28.8000 C.ar    1  UNL1        0.1826
     14 N           8.4919   -4.0952   30.2226 N.ar    1  UNL1       -0.2280
     15 C           7.3740   -5.0810   30.3921 C.ar    1  UNL1        0.0786
     16 C           7.0219   -5.8057   31.6573 C.3     1  UNL1        0.0538
     17 C           6.6701   -5.2146   29.0743 C.ar    1  UNL1        0.0963
     18 C           7.3297   -7.7333   26.1672 C.3     1  UNL1        0.2543
     19 O           8.0574   -6.4246   26.0806 O.3     1  UNL1       -0.4551
     20 N           3.4098   -2.9097   19.3832 N.pl3   1  UNL1       -0.2784
     21 H           2.9943   -3.6422   18.8733 H       1  UNL1        0.1555
     22 C           2.9003   -1.5071   19.2314 C.ar    1  UNL1        0.1320
     23 C           1.7336   -0.9091   19.9603 C.ar    1  UNL1        0.0505
     24 C           1.5802    0.5114   19.5034 C.ar    1  UNL1        0.0807
     25 N           2.6521    0.7913   18.4922 N.ar    1  UNL1       -0.1723
     26 N           3.4680   -0.4561   18.3241 N.ar    1  UNL1       -0.2291
     27 C           0.5379    1.4816   19.9750 C.3     1  UNL1        0.0372
     28 C           0.5326    0.8212   21.3218 C.3     1  UNL1        0.0060
     29 C           0.5433    2.1420   18.6282 C.3     1  UNL1        0.0060
     30 C          -0.5043    2.4518   20.4466 C.3     1  UNL1        0.0060
     31 C           4.6449   -0.6233   17.4092 C.3     1  UNL1        0.2315
     32 C           5.8718    0.2171   17.6044 C.3     1  UNL1        0.4200
     33 F           7.0989    1.0575   17.7996 F       1  UNL1       -0.1679
     34 F           5.8825   -0.1371   19.0620 F       1  UNL1       -0.1679
     35 F           5.8612    0.5713   16.1469 F       1  UNL1       -0.1679
@<TRIPOS>BOND
     1    18    19    1
     2    19     6    1
     3     6     7   ar
     4     7     8   ar
     5     8     1    1
     6     1     2   ar
     7     2     3   ar
     8     3     4   ar
     9     4    20    1
    10    20    22    1
    11    22    23   ar
    12    23    24   ar
    13    24    27    1
    14    27    28    1
    15    27    29    1
    16    27    30    1
    17    24    25   ar
    18    25    26   ar
    19    26    31    1
    20    31    32    1
    21    32    33    1
    22    32    34    1
    23    32    35    1
    24     4     5   ar
    25     8     9   ar
    26     9    10   ar
    27    10    11   ar
    28    11    12    1
    29    12    13   ar
    30    13    14   ar
    31    14    15   ar
    32    15    16    1
    33    15    17   ar
    34    11     6   ar
    35    17    12   ar
    36     5     1   ar
    37    26    22   ar
    38    20    21    1
