@<TRIPOS>MOLECULE
*****
 34 38 0 0 0
SMALL
GASTEIGER

@<TRIPOS>ATOM
      1 N          -8.0756  -19.4007   20.0787 N.3     1  UNL1       -0.2724
      2 C          -7.7855  -20.7381   19.4645 C.3     1  UNL1        0.0724
      3 C          -6.3393  -21.0550   19.7054 C.3     1  UNL1        0.0214
      4 C          -4.8905  -21.0940   20.0916 C.3     1  UNL1        0.0072
      5 C          -5.7355  -19.9135   20.4685 C.3     1  UNL1        0.0350
      6 C          -6.8086  -18.8911   20.6993 C.3     1  UNL1        0.0761
      7 C          -4.6453  -19.1571   21.1679 C.ar    1  UNL1       -0.0207
      8 C          -4.8134  -18.7544   22.6030 C.ar    1  UNL1       -0.0042
      9 C          -3.7230  -17.9979   23.3024 C.ar    1  UNL1        0.0005
     10 C          -2.4647  -17.6442   22.5666 C.ar    1  UNL1        0.0149
     11 C          -2.2966  -18.0469   21.1314 C.ar    1  UNL1        0.1225
     12 C          -3.3869  -18.8033   20.4321 C.ar    1  UNL1        0.0107
     13 S          -1.0382  -17.6931   20.3956 S.3     1  UNL1        0.3126
     14 F          -1.5075  -19.1172   20.4374 F       1  UNL1       -0.0934
     15 F          -0.2491  -18.7635   19.7016 F       1  UNL1       -0.0934
     16 F          -0.5690  -16.2691   20.3538 F       1  UNL1       -0.0934
     17 F           0.2201  -17.3394   19.6598 F       1  UNL1       -0.0934
     18 F          -1.8273  -16.6228   21.0896 F       1  UNL1       -0.0934
     19 C          -9.4001  -18.6966   20.0734 C.3     1  UNL1        0.0730
     20 C         -10.5849  -19.3225   20.7474 C.3     1  UNL1        0.0294
     21 C         -11.8345  -18.5214   20.9638 C.3     1  UNL1        0.0666
     22 S         -12.1075  -17.9049   22.3038 S.3     1  UNL1       -0.0756
     23 C          -8.9670  -16.9418   24.3714 C.ar    1  UNL1        0.2029
     24 N          -9.5819  -17.9906   25.2498 N.ar    1  UNL1       -0.1250
     25 N         -10.8331  -18.4791   24.5823 N.ar    1  UNL1       -0.1220
     26 C         -10.9916  -17.7321   23.2912 C.ar    1  UNL1        0.1933
     27 N          -9.8382  -16.7820   23.1609 N.ar    1  UNL1       -0.2860
     28 C          -9.5982  -15.8378   22.0202 C.3     1  UNL1        0.1341
     29 C          -8.1624  -15.5413   27.2071 C.3     1  UNL1        0.0556
     30 C          -7.3329  -15.5418   25.9572 C.ar    1  UNL1        0.1001
     31 N          -5.9880  -14.8986   25.7914 N.ar    1  UNL1       -0.2085
     32 C          -5.5267  -15.1448   24.3855 C.ar    1  UNL1        0.2849
     33 O          -6.5864  -15.9401   23.6825 O.2     1  UNL1       -0.4283
     34 C          -7.7027  -16.1854   24.6539 C.ar    1  UNL1        0.1964
@<TRIPOS>BOND
     1    29    30    1
     2    30    31   ar
     3    31    32   ar
     4    32    33   ar
     5    33    34   ar
     6    34    23    1
     7    23    24   ar
     8    24    25   ar
     9    25    26   ar
    10    26    22    1
    11    22    21    1
    12    21    20    1
    13    20    19    1
    14    19     1    1
    15     1     2    1
    16     2     3    1
    17     3     4    1
    18     4     5    1
    19     5     7    1
    20     7     8   ar
    21     8     9   ar
    22     9    10   ar
    23    10    11   ar
    24    11    13    1
    25    13    14    1
    26    13    15    1
    27    13    16    1
    28    13    17    1
    29    13    18    1
    30    11    12   ar
    31     5     6    1
    32    26    27   ar
    33    27    28    1
    34    34    30   ar
    35    27    23   ar
    36     6     1    1
    37     5     3    1
    38    12     7   ar
@<TRIPOS>MOLECULE
*****
 34 38 0 0 0
SMALL
GASTEIGER

@<TRIPOS>ATOM
      1 N          -7.0890  -19.1200   19.8242 N.3     1  UNL1       -0.2724
      2 C          -7.9878  -19.5013   18.6854 C.3     1  UNL1        0.0724
      3 C          -9.3566  -19.7598   19.2418 C.3     1  UNL1        0.0214
      4 C         -10.5915  -19.9467   20.0725 C.3     1  UNL1        0.0072
      5 C          -9.3038  -19.5382   20.7244 C.3     1  UNL1        0.0350
      6 C          -7.9023  -19.1428   21.0843 C.3     1  UNL1        0.0761
      7 C          -9.8479  -19.4756   22.1208 C.ar    1  UNL1       -0.0207
      8 C          -9.0592  -20.0511   23.2595 C.ar    1  UNL1       -0.0042
      9 C          -9.6033  -19.9886   24.6560 C.ar    1  UNL1        0.0005
     10 C         -10.9361  -19.3505   24.9138 C.ar    1  UNL1        0.0149
     11 C         -11.7248  -18.7749   23.7749 C.ar    1  UNL1        0.1225
     12 C         -11.1807  -18.8375   22.3785 C.ar    1  UNL1        0.0107
     13 S         -13.0577  -18.1369   24.0327 S.3     1  UNL1        0.3126
     14 F         -12.3111  -17.8299   22.7684 F       1  UNL1       -0.0934
     15 F         -13.6439  -17.1918   23.0261 F       1  UNL1       -0.0934
     16 F         -13.8042  -18.4439   25.2969 F       1  UNL1       -0.0934
     17 F         -14.3904  -17.4988   24.2903 F       1  UNL1       -0.0934
     18 F         -12.4715  -19.0819   25.0392 F       1  UNL1       -0.0934
     19 C          -5.6326  -18.7763   19.7209 C.3     1  UNL1        0.0730
     20 C          -4.5995  -19.8621   19.7814 C.3     1  UNL1        0.0294
     21 C          -3.1469  -19.5253   19.6189 C.3     1  UNL1        0.0666
     22 S          -2.3696  -18.9778   20.7792 S.3     1  UNL1       -0.0756
     23 C          -4.1532  -16.4528   23.1261 C.ar    1  UNL1        0.2029
     24 N          -3.2658  -15.5372   22.3360 N.ar    1  UNL1       -0.1250
     25 N          -2.4897  -16.3716   21.3607 N.ar    1  UNL1       -0.1220
     26 C          -2.8974  -17.8029   21.5480 C.ar    1  UNL1        0.1933
     27 N          -3.9255  -17.8530   22.6391 N.ar    1  UNL1       -0.2860
     28 C          -4.6063  -19.0870   23.1529 C.3     1  UNL1        0.1341
     29 C          -7.3844  -16.1098   22.8233 C.3     1  UNL1        0.0556
     30 C          -6.5869  -15.8828   24.0733 C.ar    1  UNL1        0.1001
     31 N          -7.1347  -15.4582   25.4036 N.ar    1  UNL1       -0.2085
     32 C          -5.9880  -15.3534   26.3649 C.ar    1  UNL1        0.2849
     33 O          -4.7316  -15.7132   25.6288 O.2     1  UNL1       -0.4283
     34 C          -5.1018  -16.0404   24.2125 C.ar    1  UNL1        0.1964
@<TRIPOS>BOND
     1    29    30    1
     2    30    31   ar
     3    31    32   ar
     4    32    33   ar
     5    33    34   ar
     6    34    23    1
     7    23    24   ar
     8    24    25   ar
     9    25    26   ar
    10    26    22    1
    11    22    21    1
    12    21    20    1
    13    20    19    1
    14    19     1    1
    15     1     2    1
    16     2     3    1
    17     3     4    1
    18     4     5    1
    19     5     7    1
    20     7     8   ar
    21     8     9   ar
    22     9    10   ar
    23    10    11   ar
    24    11    13    1
    25    13    14    1
    26    13    15    1
    27    13    16    1
    28    13    17    1
    29    13    18    1
    30    11    12   ar
    31     5     6    1
    32    26    27   ar
    33    27    28    1
    34    34    30   ar
    35    27    23   ar
    36     6     1    1
    37     5     3    1
    38    12     7   ar
@<TRIPOS>MOLECULE
*****
 34 38 0 0 0
SMALL
GASTEIGER

@<TRIPOS>ATOM
      1 N          -7.4085  -19.4163   20.2751 N.3     1  UNL1       -0.2724
      2 C          -7.5672  -19.9269   21.6765 C.3     1  UNL1        0.0724
      3 C          -6.2241  -19.8776   22.3427 C.3     1  UNL1        0.0214
      4 C          -4.7850  -19.7145   22.7329 C.3     1  UNL1        0.0072
      5 C          -5.2354  -19.3365   21.3529 C.3     1  UNL1        0.0350
      6 C          -5.9674  -19.0514   20.0751 C.3     1  UNL1        0.0761
      7 C          -3.8884  -18.8927   20.8644 C.ar    1  UNL1       -0.0207
      8 C          -2.6944  -18.9879   21.7673 C.ar    1  UNL1       -0.0042
      9 C          -1.3473  -18.5440   21.2788 C.ar    1  UNL1        0.0005
     10 C          -1.1944  -18.0049   19.8874 C.ar    1  UNL1        0.0149
     11 C          -2.3885  -17.9097   18.9845 C.ar    1  UNL1        0.1225
     12 C          -3.7355  -18.3535   19.4730 C.ar    1  UNL1        0.0107
     13 S          -2.2356  -17.3705   17.5931 S.3     1  UNL1        0.3126
     14 F          -3.4182  -16.9730   18.4257 F       1  UNL1       -0.0934
     15 F          -3.2653  -16.4338   17.0343 F       1  UNL1       -0.0934
     16 F          -1.0530  -17.7681   16.7606 F       1  UNL1       -0.0934
     17 F          -2.0827  -16.8314   16.2018 F       1  UNL1       -0.0934
     18 F          -1.2059  -18.3072   18.1519 F       1  UNL1       -0.0934
     19 C          -8.4995  -19.2923   19.2531 C.3     1  UNL1        0.0730
     20 C          -9.9309  -19.4880   19.6565 C.3     1  UNL1        0.0294
     21 C         -10.7759  -18.3036   20.0212 C.3     1  UNL1        0.0666
     22 S         -10.8418  -17.8396   21.4462 S.3     1  UNL1       -0.0756
     23 C          -8.0948  -16.0684   23.5393 C.ar    1  UNL1        0.2029
     24 N          -7.9754  -15.3433   22.2317 N.ar    1  UNL1       -0.1250
     25 N          -8.9898  -15.9186   21.2884 N.ar    1  UNL1       -0.1220
     26 C          -9.7363  -16.9991   22.0131 C.ar    1  UNL1        0.1933
     27 N          -9.1830  -17.0917   23.4043 N.ar    1  UNL1       -0.2860
     28 C          -9.6383  -18.0410   24.4728 C.3     1  UNL1        0.1341
     29 C          -4.8353  -16.0854   23.6983 C.3     1  UNL1        0.0556
     30 C          -5.7724  -15.8224   24.8397 C.ar    1  UNL1        0.1001
     31 N          -5.3757  -15.5211   26.2546 N.ar    1  UNL1       -0.2085
     32 C          -6.6288  -15.3270   27.0559 C.ar    1  UNL1        0.2849
     33 O          -7.7998  -15.5084   26.1364 O.2     1  UNL1       -0.4283
     34 C          -7.2705  -15.8146   24.7667 C.ar    1  UNL1        0.1964
@<TRIPOS>BOND
     1    29    30    1
     2    30    31   ar
     3    31    32   ar
     4    32    33   ar
     5    33    34   ar
     6    34    23    1
     7    23    24   ar
     8    24    25   ar
     9    25    26   ar
    10    26    22    1
    11    22    21    1
    12    21    20    1
    13    20    19    1
    14    19     1    1
    15     1     2    1
    16     2     3    1
    17     3     4    1
    18     4     5    1
    19     5     7    1
    20     7     8   ar
    21     8     9   ar
    22     9    10   ar
    23    10    11   ar
    24    11    13    1
    25    13    14    1
    26    13    15    1
    27    13    16    1
    28    13    17    1
    29    13    18    1
    30    11    12   ar
    31     5     6    1
    32    26    27   ar
    33    27    28    1
    34    34    30   ar
    35    27    23   ar
    36     6     1    1
    37     5     3    1
    38    12     7   ar
@<TRIPOS>MOLECULE
*****
 34 38 0 0 0
SMALL
GASTEIGER

@<TRIPOS>ATOM
      1 N          -8.7953  -16.4694   25.5579 N.3     1  UNL1       -0.2724
      2 C          -9.1662  -17.6403   26.4188 C.3     1  UNL1        0.0724
      3 C          -9.9172  -18.6215   25.5684 C.3     1  UNL1        0.0214
      4 C         -10.6214  -19.3916   24.4909 C.3     1  UNL1        0.0072
      5 C         -10.0105  -18.0570   24.1818 C.3     1  UNL1        0.0350
      6 C          -9.3171  -16.7269   24.1753 C.3     1  UNL1        0.0761
      7 C         -10.4045  -18.0356   22.7347 C.ar    1  UNL1       -0.0207
      8 C         -11.5703  -17.2045   22.2871 C.ar    1  UNL1       -0.0042
      9 C         -11.9643  -17.1830   20.8399 C.ar    1  UNL1        0.0005
     10 C         -11.1926  -17.9926   19.8403 C.ar    1  UNL1        0.0149
     11 C         -10.0268  -18.8236   20.2880 C.ar    1  UNL1        0.1225
     12 C          -9.6327  -18.8451   21.7352 C.ar    1  UNL1        0.0107
     13 S          -9.2550  -19.6332   19.2885 S.3     1  UNL1        0.3126
     14 F         -10.7415  -19.4887   19.1493 F       1  UNL1       -0.0934
     15 F          -9.9698  -20.2983   18.1497 F       1  UNL1       -0.0934
     16 F          -7.7686  -19.7776   19.4277 F       1  UNL1       -0.0934
     17 F          -8.4833  -20.4427   18.2890 F       1  UNL1       -0.0934
     18 F          -8.5402  -18.9681   20.4272 F       1  UNL1       -0.0934
     19 C          -8.0359  -15.2542   26.0015 C.3     1  UNL1        0.0730
     20 C          -6.7380  -15.4082   26.7374 C.3     1  UNL1        0.0294
     21 C          -5.4752  -15.6924   25.9793 C.3     1  UNL1        0.0666
     22 S          -5.5256  -16.4913   24.7107 S.3     1  UNL1       -0.0756
     23 C          -2.8798  -16.5495   21.8716 C.ar    1  UNL1        0.2029
     24 N          -3.1419  -15.0776   21.9933 N.ar    1  UNL1       -0.1250
     25 N          -4.1649  -14.8767   23.0716 N.ar    1  UNL1       -0.1220
     26 C          -4.5351  -16.2243   23.6164 C.ar    1  UNL1        0.1933
     27 N          -3.7408  -17.2582   22.8746 N.ar    1  UNL1       -0.2860
     28 C          -3.7976  -18.7405   23.0971 C.3     1  UNL1        0.1341
     29 C          -3.6780  -18.5820   19.4464 C.3     1  UNL1        0.0556
     30 C          -2.2912  -18.1329   19.8000 C.ar    1  UNL1        0.1001
     31 N          -1.0278  -18.5391   19.1008 N.ar    1  UNL1       -0.2085
     32 C           0.1199  -17.8560   19.7835 C.ar    1  UNL1        0.2849
     33 O          -0.4341  -17.0275   20.9044 O.2     1  UNL1       -0.4283
     34 C          -1.9243  -17.1987   20.9146 C.ar    1  UNL1        0.1964
@<TRIPOS>BOND
     1    29    30    1
     2    30    31   ar
     3    31    32   ar
     4    32    33   ar
     5    33    34   ar
     6    34    23    1
     7    23    24   ar
     8    24    25   ar
     9    25    26   ar
    10    26    22    1
    11    22    21    1
    12    21    20    1
    13    20    19    1
    14    19     1    1
    15     1     2    1
    16     2     3    1
    17     3     4    1
    18     4     5    1
    19     5     7    1
    20     7     8   ar
    21     8     9   ar
    22     9    10   ar
    23    10    11   ar
    24    11    13    1
    25    13    14    1
    26    13    15    1
    27    13    16    1
    28    13    17    1
    29    13    18    1
    30    11    12   ar
    31     5     6    1
    32    26    27   ar
    33    27    28    1
    34    34    30   ar
    35    27    23   ar
    36     6     1    1
    37     5     3    1
    38    12     7   ar
@<TRIPOS>MOLECULE
*****
 34 38 0 0 0
SMALL
GASTEIGER

@<TRIPOS>ATOM
      1 N          -8.7656  -16.5056   25.3996 N.3     1  UNL1       -0.2724
      2 C          -9.1327  -17.5768   26.3834 C.3     1  UNL1        0.0724
      3 C          -9.8539  -18.6617   25.6398 C.3     1  UNL1        0.0214
      4 C         -10.5278  -19.5619   24.6472 C.3     1  UNL1        0.0072
      5 C          -9.9326  -18.2610   24.1965 C.3     1  UNL1        0.0350
      6 C          -9.2600  -16.9285   24.0480 C.3     1  UNL1        0.0761
      7 C         -10.3024  -18.4119   22.7507 C.ar    1  UNL1       -0.0207
      8 C         -10.0893  -19.7236   22.0550 C.ar    1  UNL1       -0.0042
      9 C         -10.4592  -19.8746   20.6091 C.ar    1  UNL1        0.0005
     10 C         -11.0422  -18.7138   19.8590 C.ar    1  UNL1        0.0149
     11 C         -11.2554  -17.4020   20.5548 C.ar    1  UNL1        0.1225
     12 C         -10.8855  -17.2511   22.0006 C.ar    1  UNL1        0.0107
     13 S         -11.8385  -16.2413   19.8047 S.3     1  UNL1        0.3126
     14 F         -12.6345  -16.9127   20.8843 F       1  UNL1       -0.0934
     15 F         -13.2176  -15.7519   20.1342 F       1  UNL1       -0.0934
     16 F         -11.0425  -15.5699   18.7251 F       1  UNL1       -0.0934
     17 F         -12.4215  -15.0805   19.0546 F       1  UNL1       -0.0934
     18 F         -10.4594  -16.7306   19.4752 F       1  UNL1       -0.0934
     19 C          -8.0329  -15.2347   25.7125 C.3     1  UNL1        0.0730
     20 C          -6.8039  -15.2696   26.5717 C.3     1  UNL1        0.0294
     21 C          -5.4879  -15.6823   25.9820 C.3     1  UNL1        0.0666
     22 S          -5.4530  -16.5732   24.7756 S.3     1  UNL1       -0.0756
     23 C          -2.8774  -16.5717   21.8720 C.ar    1  UNL1        0.2029
     24 N          -3.1709  -15.1063   21.9999 N.ar    1  UNL1       -0.1250
     25 N          -4.1714  -14.9285   23.1031 N.ar    1  UNL1       -0.1220
     26 C          -4.4963  -16.2840   23.6571 C.ar    1  UNL1        0.1933
     27 N          -3.6965  -17.2996   22.8962 N.ar    1  UNL1       -0.2860
     28 C          -3.7130  -18.7827   23.1203 C.3     1  UNL1        0.1341
     29 C          -3.6896  -18.6104   19.4567 C.3     1  UNL1        0.0556
     30 C          -2.3041  -18.1361   19.7818 C.ar    1  UNL1        0.1001
     31 N          -1.0488  -18.5157   19.0537 N.ar    1  UNL1       -0.2085
     32 C           0.1004  -17.8132   19.7140 C.ar    1  UNL1        0.2849
     33 O          -0.4447  -16.9995   20.8500 O.2     1  UNL1       -0.4283
     34 C          -1.9308  -17.1991   20.8919 C.ar    1  UNL1        0.1964
@<TRIPOS>BOND
     1    29    30    1
     2    30    31   ar
     3    31    32   ar
     4    32    33   ar
     5    33    34   ar
     6    34    23    1
     7    23    24   ar
     8    24    25   ar
     9    25    26   ar
    10    26    22    1
    11    22    21    1
    12    21    20    1
    13    20    19    1
    14    19     1    1
    15     1     2    1
    16     2     3    1
    17     3     4    1
    18     4     5    1
    19     5     7    1
    20     7     8   ar
    21     8     9   ar
    22     9    10   ar
    23    10    11   ar
    24    11    13    1
    25    13    14    1
    26    13    15    1
    27    13    16    1
    28    13    17    1
    29    13    18    1
    30    11    12   ar
    31     5     6    1
    32    26    27   ar
    33    27    28    1
    34    34    30   ar
    35    27    23   ar
    36     6     1    1
    37     5     3    1
    38    12     7   ar
@<TRIPOS>MOLECULE
*****
 34 38 0 0 0
SMALL
GASTEIGER

@<TRIPOS>ATOM
      1 N          -8.8499  -16.4065   25.8122 N.3     1  UNL1       -0.2724
      2 C          -9.1283  -17.6684   26.5738 C.3     1  UNL1        0.0724
      3 C          -9.8736  -18.6024   25.6671 C.3     1  UNL1        0.0214
      4 C         -10.5922  -19.3031   24.5523 C.3     1  UNL1        0.0072
      5 C         -10.0559  -17.9177   24.3449 C.3     1  UNL1        0.0350
      6 C          -9.4232  -16.5606   24.4346 C.3     1  UNL1        0.0761
      7 C         -10.5170  -17.7821   22.9240 C.ar    1  UNL1       -0.0207
      8 C         -11.5098  -16.7197   22.5559 C.ar    1  UNL1       -0.0042
      9 C         -11.9710  -16.5841   21.1350 C.ar    1  UNL1        0.0005
     10 C         -11.4394  -17.5109   20.0822 C.ar    1  UNL1        0.0149
     11 C         -10.4465  -18.5734   20.4504 C.ar    1  UNL1        0.1225
     12 C          -9.9854  -18.7090   21.8713 C.ar    1  UNL1        0.0107
     13 S          -9.9149  -19.5003   19.3977 S.3     1  UNL1        0.3126
     14 F         -11.2802  -18.8979   19.2464 F       1  UNL1       -0.0934
     15 F         -10.7485  -19.8248   18.1936 F       1  UNL1       -0.0934
     16 F          -8.5496  -20.1027   19.5490 F       1  UNL1       -0.0934
     17 F          -9.3832  -20.4271   18.3450 F       1  UNL1       -0.0934
     18 F          -9.0812  -19.1759   20.6017 F       1  UNL1       -0.0934
     19 C          -8.1254  -15.2021   26.3360 C.3     1  UNL1        0.0730
     20 C          -6.8079  -15.3643   27.0343 C.3     1  UNL1        0.0294
     21 C          -5.6032  -15.8212   26.2662 C.3     1  UNL1        0.0666
     22 S          -5.3970  -15.3634   24.8527 S.3     1  UNL1       -0.0756
     23 C          -5.8248  -18.0368   22.0715 C.ar    1  UNL1        0.2029
     24 N          -7.0332  -17.1794   21.8377 N.ar    1  UNL1       -0.1250
     25 N          -7.0200  -16.0736   22.8511 N.ar    1  UNL1       -0.1220
     26 C          -5.8035  -16.2476   23.7112 C.ar    1  UNL1        0.1933
     27 N          -5.0649  -17.4609   23.2293 N.ar    1  UNL1       -0.2860
     28 C          -3.7900  -18.0031   23.8045 C.3     1  UNL1        0.1341
     29 C          -3.2018  -18.3399   20.1538 C.3     1  UNL1        0.0556
     30 C          -4.2378  -19.3954   20.4040 C.ar    1  UNL1        0.1001
     31 N          -4.2500  -20.7755   19.8166 N.ar    1  UNL1       -0.2085
     32 C          -5.4632  -21.4892   20.3350 C.ar    1  UNL1        0.2849
     33 O          -6.2008  -20.5502   21.2427 O.2     1  UNL1       -0.4283
     34 C          -5.4434  -19.2561   21.2854 C.ar    1  UNL1        0.1964
@<TRIPOS>BOND
     1    29    30    1
     2    30    31   ar
     3    31    32   ar
     4    32    33   ar
     5    33    34   ar
     6    34    23    1
     7    23    24   ar
     8    24    25   ar
     9    25    26   ar
    10    26    22    1
    11    22    21    1
    12    21    20    1
    13    20    19    1
    14    19     1    1
    15     1     2    1
    16     2     3    1
    17     3     4    1
    18     4     5    1
    19     5     7    1
    20     7     8   ar
    21     8     9   ar
    22     9    10   ar
    23    10    11   ar
    24    11    13    1
    25    13    14    1
    26    13    15    1
    27    13    16    1
    28    13    17    1
    29    13    18    1
    30    11    12   ar
    31     5     6    1
    32    26    27   ar
    33    27    28    1
    34    34    30   ar
    35    27    23   ar
    36     6     1    1
    37     5     3    1
    38    12     7   ar
@<TRIPOS>MOLECULE
*****
 34 38 0 0 0
SMALL
GASTEIGER

@<TRIPOS>ATOM
      1 N          -9.2141  -17.3663   24.7186 N.3     1  UNL1       -0.2724
      2 C         -10.0155  -16.1501   24.3604 C.3     1  UNL1        0.0724
      3 C         -10.2177  -16.1492   22.8741 C.3     1  UNL1        0.0214
      4 C         -10.2538  -16.4143   21.3982 C.3     1  UNL1        0.0072
      5 C          -9.5411  -17.3650   22.3136 C.3     1  UNL1        0.0350
      6 C          -8.9209  -18.1172   23.4536 C.3     1  UNL1        0.0761
      7 C          -9.0989  -18.3146   21.2401 C.ar    1  UNL1       -0.0207
      8 C         -10.1045  -18.8915   20.2882 C.ar    1  UNL1       -0.0042
      9 C          -9.6623  -19.8412   19.2146 C.ar    1  UNL1        0.0005
     10 C          -8.2145  -20.2140   19.0928 C.ar    1  UNL1        0.0149
     11 C          -7.2088  -19.6371   20.0447 C.ar    1  UNL1        0.1225
     12 C          -7.6510  -18.6874   21.1183 C.ar    1  UNL1        0.0107
     13 S          -5.7610  -20.0099   19.9229 S.3     1  UNL1        0.3126
     14 F          -6.1984  -18.6015   19.6490 F       1  UNL1       -0.0934
     15 F          -4.7506  -18.9743   19.5272 F       1  UNL1       -0.0934
     16 F          -5.3236  -21.4182   20.1969 F       1  UNL1       -0.0934
     17 F          -4.3132  -20.3826   19.8012 F       1  UNL1       -0.0934
     18 F          -6.7714  -21.0454   20.3187 F       1  UNL1       -0.0934
     19 C          -8.7817  -17.7622   26.0993 C.3     1  UNL1        0.0730
     20 C          -8.8797  -16.7780   27.2270 C.3     1  UNL1        0.0294
     21 C          -8.0792  -15.5101   27.1875 C.3     1  UNL1        0.0666
     22 S          -6.5980  -15.5651   26.9572 S.3     1  UNL1       -0.0756
     23 C          -4.6742  -15.9355   23.6066 C.ar    1  UNL1        0.2029
     24 N          -5.7604  -14.9789   23.2129 N.ar    1  UNL1       -0.1250
     25 N          -6.6133  -14.7237   24.4201 N.ar    1  UNL1       -0.1220
     26 C          -6.0542  -15.5226   25.5599 C.ar    1  UNL1        0.1933
     27 N          -4.8557  -16.2715   25.0571 N.ar    1  UNL1       -0.2860
     28 C          -3.9907  -17.1944   25.8633 C.3     1  UNL1        0.1341
     29 C          -4.1746  -19.0693   22.8454 C.3     1  UNL1        0.0556
     30 C          -3.3661  -17.9037   22.3576 C.ar    1  UNL1        0.1001
     31 N          -2.1860  -17.9741   21.4344 N.ar    1  UNL1       -0.2085
     32 C          -1.6863  -16.5771   21.2136 C.ar    1  UNL1        0.2849
     33 O          -2.5575  -15.6435   22.0004 O.2     1  UNL1       -0.4283
     34 C          -3.5957  -16.4634   22.7075 C.ar    1  UNL1        0.1964
@<TRIPOS>BOND
     1    29    30    1
     2    30    31   ar
     3    31    32   ar
     4    32    33   ar
     5    33    34   ar
     6    34    23    1
     7    23    24   ar
     8    24    25   ar
     9    25    26   ar
    10    26    22    1
    11    22    21    1
    12    21    20    1
    13    20    19    1
    14    19     1    1
    15     1     2    1
    16     2     3    1
    17     3     4    1
    18     4     5    1
    19     5     7    1
    20     7     8   ar
    21     8     9   ar
    22     9    10   ar
    23    10    11   ar
    24    11    13    1
    25    13    14    1
    26    13    15    1
    27    13    16    1
    28    13    17    1
    29    13    18    1
    30    11    12   ar
    31     5     6    1
    32    26    27   ar
    33    27    28    1
    34    34    30   ar
    35    27    23   ar
    36     6     1    1
    37     5     3    1
    38    12     7   ar
@<TRIPOS>MOLECULE
*****
 34 38 0 0 0
SMALL
GASTEIGER

@<TRIPOS>ATOM
      1 N         -10.0133  -16.5159   23.4390 N.3     1  UNL1       -0.2724
      2 C         -11.4862  -16.3884   23.1855 C.3     1  UNL1        0.0724
      3 C         -11.8252  -17.2279   21.9895 C.3     1  UNL1        0.0214
      4 C         -11.8576  -18.1336   20.7943 C.3     1  UNL1        0.0072
      5 C         -10.5617  -17.8742   21.5038 C.3     1  UNL1        0.0350
      6 C          -9.4420  -17.4342   22.3996 C.3     1  UNL1        0.0761
      7 C          -9.7194  -18.7382   20.6128 C.ar    1  UNL1       -0.0207
      8 C         -10.3461  -19.4571   19.4550 C.ar    1  UNL1       -0.0042
      9 C          -9.5038  -20.3212   18.5639 C.ar    1  UNL1        0.0005
     10 C          -8.0348  -20.4663   18.8306 C.ar    1  UNL1        0.0149
     11 C          -7.4082  -19.7474   19.9885 C.ar    1  UNL1        0.1225
     12 C          -8.2505  -18.8834   20.8795 C.ar    1  UNL1        0.0107
     13 S          -5.9392  -19.8925   20.2552 S.3     1  UNL1        0.3126
     14 F          -6.5279  -18.5332   20.0190 F       1  UNL1       -0.0934
     15 F          -5.0589  -18.6784   20.2857 F       1  UNL1       -0.0934
     16 F          -5.3506  -21.2517   20.4915 F       1  UNL1       -0.0934
     17 F          -4.4703  -20.0376   20.5220 F       1  UNL1       -0.0934
     18 F          -6.8195  -21.1066   20.2247 F       1  UNL1       -0.0934
     19 C          -9.2464  -15.8432   24.5387 C.3     1  UNL1        0.0730
     20 C          -7.9065  -16.3753   24.9528 C.3     1  UNL1        0.0294
     21 C          -6.6569  -15.6359   24.5762 C.3     1  UNL1        0.0666
     22 S          -5.3276  -16.3278   24.6412 S.3     1  UNL1       -0.0756
     23 C          -2.7040  -16.6533   21.7995 C.ar    1  UNL1        0.2029
     24 N          -2.9444  -15.1727   21.8038 N.ar    1  UNL1       -0.1250
     25 N          -3.9565  -14.8706   22.8688 N.ar    1  UNL1       -0.1220
     26 C          -4.3416  -16.1644   23.5228 C.ar    1  UNL1        0.1933
     27 N          -3.5674  -17.2662   22.8618 N.ar    1  UNL1       -0.2860
     28 C          -3.6435  -18.7249   23.2034 C.3     1  UNL1        0.1341
     29 C          -2.9391  -16.8572   18.5509 C.3     1  UNL1        0.0556
     30 C          -1.8730  -17.4851   19.3989 C.ar    1  UNL1        0.1001
     31 N          -0.7278  -18.3170   18.9025 N.ar    1  UNL1       -0.2085
     32 C           0.0881  -18.7375   20.0889 C.ar    1  UNL1        0.2849
     33 O          -0.5529  -18.1655   21.3185 O.2     1  UNL1       -0.4283
     34 C          -1.7649  -17.3915   20.8920 C.ar    1  UNL1        0.1964
@<TRIPOS>BOND
     1    29    30    1
     2    30    31   ar
     3    31    32   ar
     4    32    33   ar
     5    33    34   ar
     6    34    23    1
     7    23    24   ar
     8    24    25   ar
     9    25    26   ar
    10    26    22    1
    11    22    21    1
    12    21    20    1
    13    20    19    1
    14    19     1    1
    15     1     2    1
    16     2     3    1
    17     3     4    1
    18     4     5    1
    19     5     7    1
    20     7     8   ar
    21     8     9   ar
    22     9    10   ar
    23    10    11   ar
    24    11    13    1
    25    13    14    1
    26    13    15    1
    27    13    16    1
    28    13    17    1
    29    13    18    1
    30    11    12   ar
    31     5     6    1
    32    26    27   ar
    33    27    28    1
    34    34    30   ar
    35    27    23   ar
    36     6     1    1
    37     5     3    1
    38    12     7   ar
@<TRIPOS>MOLECULE
*****
 34 38 0 0 0
SMALL
GASTEIGER

@<TRIPOS>ATOM
      1 N          -5.1802  -19.4876   21.2705 N.3     1  UNL1       -0.2724
      2 C          -3.6826  -19.4832   21.1868 C.3     1  UNL1        0.0724
      3 C          -3.1653  -18.4921   22.1868 C.3     1  UNL1        0.0214
      4 C          -2.9518  -17.4566   23.2508 C.3     1  UNL1        0.0072
      5 C          -4.3432  -17.8838   22.8886 C.3     1  UNL1        0.0350
      6 C          -5.5885  -18.4991   22.3223 C.3     1  UNL1        0.0761
      7 C          -5.0424  -16.9847   23.8646 C.ar    1  UNL1       -0.0207
      8 C          -4.2669  -16.3281   24.9679 C.ar    1  UNL1       -0.0042
      9 C          -4.9661  -15.4289   25.9440 C.ar    1  UNL1        0.0005
     10 C          -6.4409  -15.1864   25.8167 C.ar    1  UNL1        0.0149
     11 C          -7.2165  -15.8430   24.7133 C.ar    1  UNL1        0.1225
     12 C          -6.5172  -16.7422   23.7373 C.ar    1  UNL1        0.0107
     13 S          -8.6913  -15.6005   24.5860 S.3     1  UNL1        0.3126
     14 F          -7.9542  -16.3272   23.5003 F       1  UNL1       -0.0934
     15 F          -9.4290  -16.0847   23.3730 F       1  UNL1       -0.0934
     16 F          -9.4282  -14.8738   25.6716 F       1  UNL1       -0.0934
     17 F         -10.1659  -15.3580   24.4587 F       1  UNL1       -0.0934
     18 F          -7.9535  -15.1163   25.7990 F       1  UNL1       -0.0934
     19 C          -6.1069  -20.3322   20.4471 C.3     1  UNL1        0.0730
     20 C          -7.5283  -19.9011   20.2384 C.3     1  UNL1        0.0294
     21 C          -8.2037  -20.1552   18.9234 C.3     1  UNL1        0.0666
     22 S          -9.6035  -19.6677   18.6926 S.3     1  UNL1       -0.0756
     23 C         -11.5401  -18.2107   21.7244 C.ar    1  UNL1        0.2029
     24 N         -11.1744  -16.9580   20.9849 N.ar    1  UNL1       -0.1250
     25 N         -10.4045  -17.3513   19.7592 N.ar    1  UNL1       -0.1220
     26 C         -10.2942  -18.8471   19.7412 C.ar    1  UNL1        0.1933
     27 N         -10.9961  -19.3782   20.9558 N.ar    1  UNL1       -0.2860
     28 C         -11.1304  -20.8233   21.3350 C.3     1  UNL1        0.1341
     29 C         -10.3479  -19.0722   24.6376 C.3     1  UNL1        0.0556
     30 C         -11.7659  -18.6792   24.3463 C.ar    1  UNL1        0.1001
     31 N         -12.8849  -18.6131   25.3431 N.ar    1  UNL1       -0.2085
     32 C         -14.1244  -18.1763   24.6201 C.ar    1  UNL1        0.2849
     33 O         -13.7716  -17.9724   23.1766 O.2     1  UNL1       -0.4283
     34 C         -12.3139  -18.2832   23.0074 C.ar    1  UNL1        0.1964
@<TRIPOS>BOND
     1    29    30    1
     2    30    31   ar
     3    31    32   ar
     4    32    33   ar
     5    33    34   ar
     6    34    23    1
     7    23    24   ar
     8    24    25   ar
     9    25    26   ar
    10    26    22    1
    11    22    21    1
    12    21    20    1
    13    20    19    1
    14    19     1    1
    15     1     2    1
    16     2     3    1
    17     3     4    1
    18     4     5    1
    19     5     7    1
    20     7     8   ar
    21     8     9   ar
    22     9    10   ar
    23    10    11   ar
    24    11    13    1
    25    13    14    1
    26    13    15    1
    27    13    16    1
    28    13    17    1
    29    13    18    1
    30    11    12   ar
    31     5     6    1
    32    26    27   ar
    33    27    28    1
    34    34    30   ar
    35    27    23   ar
    36     6     1    1
    37     5     3    1
    38    12     7   ar
