@<TRIPOS>MOLECULE
*****
 31 34 0 0 0
SMALL
GASTEIGER

@<TRIPOS>ATOM
      1 C          -7.0761  -19.0210   21.0856 C.2     1  UNL1        0.2459
      2 O          -6.5475  -18.8164   22.4743 O.2     1  UNL1       -0.2730
      3 N          -8.5559  -19.0291   20.8399 N.am    1  UNL1       -0.2781
      4 C          -9.0845  -19.2338   19.4512 C.3     1  UNL1        0.0935
      5 C         -10.5642  -19.2419   19.2056 C.3     1  UNL1        0.0219
      6 C         -11.5153  -19.0453   20.3487 C.3     1  UNL1        0.0078
      7 C         -10.9867  -18.8406   21.7374 C.3     1  UNL1        0.0419
      8 C          -9.5070  -18.8326   21.9831 C.3     1  UNL1        0.0953
      9 C         -11.9378  -18.6441   22.8806 C.ar    1  UNL1       -0.0209
     10 C         -11.6020  -19.1877   24.2376 C.ar    1  UNL1       -0.0042
     11 C         -12.5531  -18.9911   25.3808 C.ar    1  UNL1       -0.0003
     12 C         -13.8400  -18.2510   25.1668 C.ar    1  UNL1       -0.0000
     13 C         -14.1759  -17.7073   23.8098 C.ar    1  UNL1       -0.0003
     14 C         -13.2248  -17.9039   22.6667 C.ar    1  UNL1       -0.0042
     15 C          -6.1250  -19.2176   19.9425 C.3     1  UNL1        0.1773
     16 C          -4.9829  -21.5191   20.3276 C.3     1  UNL1        0.1126
     17 N          -4.8820  -20.0352   20.1331 N.pl3   1  UNL1       -0.2980
     18 C          -3.5380  -19.3689   20.1293 C.ar    1  UNL1        0.0491
     19 C          -2.7473  -19.2681   21.4000 C.ar    1  UNL1        0.0154
     20 C          -1.4035  -18.6018   21.3962 C.ar    1  UNL1        0.0135
     21 C          -0.8503  -18.0365   20.1217 C.ar    1  UNL1        0.0683
     22 CL          0.4937  -17.3702   20.1179 Cl      1  UNL1       -0.0814
     23 C          -1.6410  -18.1373   18.8510 C.ar    1  UNL1        0.0694
     24 CL         -1.0877  -17.5719   17.5765 Cl      1  UNL1       -0.0813
     25 C          -2.9849  -18.8036   18.8548 C.ar    1  UNL1        0.0268
     26 C          -8.9783  -18.6279   23.3719 C.3     1  UNL1        0.0924
     27 N          -8.7329  -17.2395   23.8839 N.3     1  UNL1       -0.2713
     28 C          -8.9696  -16.7622   25.2861 C.3     1  UNL1        0.0722
     29 C          -8.5906  -15.3124   25.3524 C.3     1  UNL1        0.0188
     30 C          -8.1198  -14.8936   23.9912 C.3     1  UNL1        0.0188
     31 C          -8.2077  -16.0846   23.0836 C.3     1  UNL1        0.0722
@<TRIPOS>BOND
     1    16    17    1
     2    17    15    1
     3    15     1    1
     4     1     2    2
     5     1     3   am
     6     3     4    1
     7     4     5    1
     8     5     6    1
     9     6     7    1
    10     7     9    1
    11     9    10   ar
    12    10    11   ar
    13    11    12   ar
    14    12    13   ar
    15    13    14   ar
    16     7     8    1
    17     8    26    1
    18    26    27    1
    19    27    28    1
    20    28    29    1
    21    29    30    1
    22    30    31    1
    23    17    18    1
    24    18    19   ar
    25    19    20   ar
    26    20    21   ar
    27    21    22    1
    28    21    23   ar
    29    23    24    1
    30    23    25   ar
    31     8     3    1
    32    31    27    1
    33    25    18   ar
    34    14     9   ar
@<TRIPOS>MOLECULE
*****
 31 34 0 0 0
SMALL
GASTEIGER

@<TRIPOS>ATOM
      1 C           6.7182   -2.7392   21.6435 C.2     1  UNL1        0.2459
      2 O           6.9802   -1.4489   22.3622 O.2     1  UNL1       -0.2730
      3 N           5.5101   -2.8764   20.7650 N.am    1  UNL1       -0.2781
      4 C           5.2480   -4.1666   20.0463 C.3     1  UNL1        0.0935
      5 C           4.0400   -4.3037   19.1678 C.3     1  UNL1        0.0219
      6 C           3.0941   -3.1506   19.0079 C.3     1  UNL1        0.0078
      7 C           3.3562   -1.8604   19.7266 C.3     1  UNL1        0.0419
      8 C           4.5642   -1.7232   20.6051 C.3     1  UNL1        0.0953
      9 C           2.4102   -0.7073   19.5667 C.ar    1  UNL1       -0.0209
     10 C           2.6863    0.3528   18.5420 C.ar    1  UNL1       -0.0042
     11 C           1.7404    1.5059   18.3821 C.ar    1  UNL1       -0.0003
     12 C           0.5184    1.5990   19.2469 C.ar    1  UNL1       -0.0000
     13 C           0.2423    0.5389   20.2716 C.ar    1  UNL1       -0.0003
     14 C           1.1882   -0.6142   20.4315 C.ar    1  UNL1       -0.0042
     15 C           7.6641   -3.8923   21.8034 C.3     1  UNL1        0.1773
     16 C           9.5359   -3.0400   23.3907 C.3     1  UNL1        0.1126
     17 N           8.4639   -4.0370   23.0641 N.pl3   1  UNL1       -0.2980
     18 C           8.1918   -5.1788   23.9981 C.ar    1  UNL1        0.0491
     19 C           8.6772   -6.5570   23.6591 C.ar    1  UNL1        0.0154
     20 C           8.4051   -7.6988   24.5930 C.ar    1  UNL1        0.0135
     21 C           7.6476   -7.4623   25.8659 C.ar    1  UNL1        0.0683
     22 CL          7.3755   -8.6041   26.8000 Cl      1  UNL1       -0.0814
     23 C           7.1623   -6.0841   26.2049 C.ar    1  UNL1        0.0694
     24 CL          6.4048   -5.8477   27.4779 Cl      1  UNL1       -0.0813
     25 C           7.4344   -4.9423   25.2710 C.ar    1  UNL1        0.0268
     26 C           4.8263   -0.4329   21.3238 C.3     1  UNL1        0.0924
     27 N           3.9160    0.0066   22.4320 N.3     1  UNL1       -0.2713
     28 C           3.3494   -0.8713   23.5082 C.3     1  UNL1        0.0722
     29 C           2.4957   -0.0193   24.4000 C.3     1  UNL1        0.0188
     30 C           2.5347    1.3853   23.8749 C.3     1  UNL1        0.0188
     31 C           3.4125    1.4012   22.6587 C.3     1  UNL1        0.0722
@<TRIPOS>BOND
     1    16    17    1
     2    17    15    1
     3    15     1    1
     4     1     2    2
     5     1     3   am
     6     3     4    1
     7     4     5    1
     8     5     6    1
     9     6     7    1
    10     7     9    1
    11     9    10   ar
    12    10    11   ar
    13    11    12   ar
    14    12    13   ar
    15    13    14   ar
    16     7     8    1
    17     8    26    1
    18    26    27    1
    19    27    28    1
    20    28    29    1
    21    29    30    1
    22    30    31    1
    23    17    18    1
    24    18    19   ar
    25    19    20   ar
    26    20    21   ar
    27    21    22    1
    28    21    23   ar
    29    23    24    1
    30    23    25   ar
    31     8     3    1
    32    31    27    1
    33    25    18   ar
    34    14     9   ar
@<TRIPOS>MOLECULE
*****
 31 34 0 0 0
SMALL
GASTEIGER

@<TRIPOS>ATOM
      1 C           0.4632    2.0728   20.7183 C.2     1  UNL1        0.2459
      2 O           0.4301    2.1164   19.2193 O.2     1  UNL1       -0.2730
      3 N           1.3354    1.0747   21.4205 N.am    1  UNL1       -0.2781
      4 C           1.3686    1.0311   22.9195 C.3     1  UNL1        0.0935
      5 C           2.2408    0.0330   23.6216 C.3     1  UNL1        0.0219
      6 C           3.0798   -0.9215   22.8248 C.3     1  UNL1        0.0078
      7 C           3.0467   -0.8779   21.3258 C.3     1  UNL1        0.0419
      8 C           2.1745    0.1202   20.6237 C.3     1  UNL1        0.0953
      9 C           3.8857   -1.8324   20.5290 C.ar    1  UNL1       -0.0209
     10 C           5.3703   -1.6355   20.4447 C.ar    1  UNL1       -0.0042
     11 C           6.2094   -2.5900   19.6478 C.ar    1  UNL1       -0.0003
     12 C           5.5639   -3.7413   18.9353 C.ar    1  UNL1       -0.0000
     13 C           4.0793   -3.9382   19.0197 C.ar    1  UNL1       -0.0003
     14 C           3.2402   -2.9837   19.8165 C.ar    1  UNL1       -0.0042
     15 C          -0.3759    3.0273   21.5151 C.3     1  UNL1        0.1773
     16 C          -0.4644    5.4727   20.6422 C.3     1  UNL1        0.1126
     17 N          -1.1155    4.1336   20.8230 N.pl3   1  UNL1       -0.2980
     18 C          -2.5063    3.9007   20.3116 C.ar    1  UNL1        0.0491
     19 C          -3.5953    3.4927   21.2591 C.ar    1  UNL1        0.0154
     20 C          -4.9860    3.2598   20.7478 C.ar    1  UNL1        0.0135
     21 C          -5.2879    3.4349   19.2890 C.ar    1  UNL1        0.0683
     22 CL         -6.6787    3.2020   18.7776 Cl      1  UNL1       -0.0814
     23 C          -4.1989    3.8428   18.3415 C.ar    1  UNL1        0.0694
     24 CL         -4.5008    4.0179   16.8826 Cl      1  UNL1       -0.0813
     25 C          -2.8081    4.0757   18.8528 C.ar    1  UNL1        0.0268
     26 C           2.1413    0.1639   19.1246 C.3     1  UNL1        0.0924
     27 N           3.4070    0.3928   18.3528 N.3     1  UNL1       -0.2713
     28 C           4.3858    1.5075   18.5751 C.3     1  UNL1        0.0722
     29 C           5.4998    1.3509   17.5828 C.3     1  UNL1        0.0188
     30 C           5.2095    0.1395   16.7474 C.3     1  UNL1        0.0188
     31 C           3.9161   -0.4527   17.2233 C.3     1  UNL1        0.0722
@<TRIPOS>BOND
     1    16    17    1
     2    17    15    1
     3    15     1    1
     4     1     2    2
     5     1     3   am
     6     3     4    1
     7     4     5    1
     8     5     6    1
     9     6     7    1
    10     7     9    1
    11     9    10   ar
    12    10    11   ar
    13    11    12   ar
    14    12    13   ar
    15    13    14   ar
    16     7     8    1
    17     8    26    1
    18    26    27    1
    19    27    28    1
    20    28    29    1
    21    29    30    1
    22    30    31    1
    23    17    18    1
    24    18    19   ar
    25    19    20   ar
    26    20    21   ar
    27    21    22    1
    28    21    23   ar
    29    23    24    1
    30    23    25   ar
    31     8     3    1
    32    31    27    1
    33    25    18   ar
    34    14     9   ar
@<TRIPOS>MOLECULE
*****
 31 34 0 0 0
SMALL
GASTEIGER

@<TRIPOS>ATOM
      1 C           0.1192    1.5852   20.1888 C.2     1  UNL1        0.2459
      2 O          -0.2126    0.2624   20.8134 O.2     1  UNL1       -0.2730
      3 N           1.4538    1.7928   19.5363 N.am    1  UNL1       -0.2781
      4 C           1.7856    3.1156   18.9117 C.3     1  UNL1        0.0935
      5 C           3.1202    3.3232   18.2593 C.3     1  UNL1        0.0219
      6 C           4.1230    2.2080   18.2315 C.3     1  UNL1        0.0078
      7 C           3.7912    0.8853   18.8560 C.3     1  UNL1        0.0419
      8 C           2.4566    0.6777   19.5085 C.3     1  UNL1        0.0953
      9 C           4.7940   -0.2299   18.8282 C.ar    1  UNL1       -0.0209
     10 C           5.9852   -0.1903   19.7389 C.ar    1  UNL1       -0.0042
     11 C           6.9880   -1.3054   19.7111 C.ar    1  UNL1       -0.0003
     12 C           6.7997   -2.4602   18.7725 C.ar    1  UNL1       -0.0000
     13 C           5.6085   -2.4998   17.8618 C.ar    1  UNL1       -0.0003
     14 C           4.6057   -1.3847   17.8896 C.ar    1  UNL1       -0.0042
     15 C          -0.8836    2.7003   20.2166 C.3     1  UNL1        0.1773
     16 C          -0.2689    3.7281   22.5222 C.3     1  UNL1        0.1126
     17 N          -1.3049    3.2977   21.5265 N.pl3   1  UNL1       -0.2980
     18 C          -2.7621    3.4645   21.8406 C.ar    1  UNL1        0.0491
     19 C          -3.7684    3.5114   20.7292 C.ar    1  UNL1        0.0154
     20 C          -5.2256    3.6783   21.0433 C.ar    1  UNL1        0.0135
     21 C          -5.6765    3.7983   22.4688 C.ar    1  UNL1        0.0683
     22 CL         -7.1338    3.9652   22.7830 Cl      1  UNL1       -0.0814
     23 C          -4.6703    3.7514   23.5803 C.ar    1  UNL1        0.0694
     24 CL         -5.1213    3.8714   25.0059 Cl      1  UNL1       -0.0813
     25 C          -3.2131    3.5845   23.2662 C.ar    1  UNL1        0.0268
     26 C           2.1248   -0.6452   20.1331 C.3     1  UNL1        0.0924
     27 N           2.8995   -1.1279   21.3234 N.3     1  UNL1       -0.2713
     28 C           3.0193   -0.4235   22.6422 C.3     1  UNL1        0.0722
     29 C           3.8843   -1.2601   23.5378 C.3     1  UNL1        0.0188
     30 C           4.2991   -2.4816   22.7723 C.3     1  UNL1        0.0188
     31 C           3.6905   -2.3999   21.4038 C.3     1  UNL1        0.0722
@<TRIPOS>BOND
     1    16    17    1
     2    17    15    1
     3    15     1    1
     4     1     2    2
     5     1     3   am
     6     3     4    1
     7     4     5    1
     8     5     6    1
     9     6     7    1
    10     7     9    1
    11     9    10   ar
    12    10    11   ar
    13    11    12   ar
    14    12    13   ar
    15    13    14   ar
    16     7     8    1
    17     8    26    1
    18    26    27    1
    19    27    28    1
    20    28    29    1
    21    29    30    1
    22    30    31    1
    23    17    18    1
    24    18    19   ar
    25    19    20   ar
    26    20    21   ar
    27    21    22    1
    28    21    23   ar
    29    23    24    1
    30    23    25   ar
    31     8     3    1
    32    31    27    1
    33    25    18   ar
    34    14     9   ar
@<TRIPOS>MOLECULE
*****
 31 34 0 0 0
SMALL
GASTEIGER

@<TRIPOS>ATOM
      1 C           0.9648    2.4135   20.6586 C.2     1  UNL1        0.2459
      2 O           0.9908    2.4907   19.1609 O.2     1  UNL1       -0.2730
      3 N           1.6787    1.2992   21.3648 N.am    1  UNL1       -0.2781
      4 C           1.6526    1.2220   22.8626 C.3     1  UNL1        0.0935
      5 C           2.3665    0.1077   23.5687 C.3     1  UNL1        0.0219
      6 C           3.1064   -0.9295   22.7770 C.3     1  UNL1        0.0078
      7 C           3.1324   -0.8524   21.2793 C.3     1  UNL1        0.0419
      8 C           2.4186    0.2620   20.5732 C.3     1  UNL1        0.0953
      9 C           3.8723   -1.8896   20.4876 C.ar    1  UNL1       -0.0209
     10 C           3.1140   -2.9599   19.7601 C.ar    1  UNL1       -0.0042
     11 C           3.8539   -3.9971   18.9684 C.ar    1  UNL1       -0.0003
     12 C           5.3522   -3.9640   18.9043 C.ar    1  UNL1       -0.0000
     13 C           6.1105   -2.8937   19.6318 C.ar    1  UNL1       -0.0003
     14 C           5.3706   -1.8565   20.4234 C.ar    1  UNL1       -0.0042
     15 C           0.2249    3.4508   21.4503 C.3     1  UNL1        0.1773
     16 C          -2.0828    3.2569   20.2727 C.3     1  UNL1        0.1126
     17 N          -1.2726    3.4095   21.5258 N.pl3   1  UNL1       -0.2980
     18 C          -1.9600    3.5209   22.8544 C.ar    1  UNL1        0.0491
     19 C          -1.1625    3.4283   24.1215 C.ar    1  UNL1        0.0154
     20 C          -1.8498    3.5396   25.4501 C.ar    1  UNL1        0.0135
     21 C          -3.3345    3.7435   25.5116 C.ar    1  UNL1        0.0683
     22 CL         -4.0219    3.8548   26.8403 Cl      1  UNL1       -0.0814
     23 C          -4.1320    3.8361   24.2446 C.ar    1  UNL1        0.0694
     24 CL         -5.6169    4.0399   24.3061 Cl      1  UNL1       -0.0813
     25 C          -3.4448    3.7247   22.9160 C.ar    1  UNL1        0.0268
     26 C           2.4446    0.3391   19.0753 C.3     1  UNL1        0.0924
     27 N           3.7459    0.5418   18.3573 N.3     1  UNL1       -0.2713
     28 C           4.2783   -0.3067   17.2408 C.3     1  UNL1        0.0722
     29 C           5.6047    0.2556   16.8231 C.3     1  UNL1        0.0188
     30 C           5.8921    1.4517   17.6815 C.3     1  UNL1        0.0188
     31 C           4.7432    1.6285   18.6296 C.3     1  UNL1        0.0722
@<TRIPOS>BOND
     1    16    17    1
     2    17    15    1
     3    15     1    1
     4     1     2    2
     5     1     3   am
     6     3     4    1
     7     4     5    1
     8     5     6    1
     9     6     7    1
    10     7     9    1
    11     9    10   ar
    12    10    11   ar
    13    11    12   ar
    14    12    13   ar
    15    13    14   ar
    16     7     8    1
    17     8    26    1
    18    26    27    1
    19    27    28    1
    20    28    29    1
    21    29    30    1
    22    30    31    1
    23    17    18    1
    24    18    19   ar
    25    19    20   ar
    26    20    21   ar
    27    21    22    1
    28    21    23   ar
    29    23    24    1
    30    23    25   ar
    31     8     3    1
    32    31    27    1
    33    25    18   ar
    34    14     9   ar
@<TRIPOS>MOLECULE
*****
 31 34 0 0 0
SMALL
GASTEIGER

@<TRIPOS>ATOM
      1 C          -9.9927  -19.3715   23.2465 C.2     1  UNL1        0.2459
      2 O          -9.0611  -19.2220   24.4126 O.2     1  UNL1       -0.2730
      3 N          -9.4408  -19.5134   21.8589 N.am    1  UNL1       -0.2781
      4 C         -10.3724  -19.6630   20.6929 C.3     1  UNL1        0.0935
      5 C          -9.8204  -19.8048   19.3054 C.3     1  UNL1        0.0219
      6 C          -8.3369  -19.7971   19.0840 C.3     1  UNL1        0.0078
      7 C          -7.4053  -19.6475   20.2500 C.3     1  UNL1        0.0419
      8 C          -7.9572  -19.5057   21.6375 C.3     1  UNL1        0.0953
      9 C          -5.9217  -19.6398   20.0286 C.ar    1  UNL1       -0.0209
     10 C          -5.2306  -18.3719   19.6228 C.ar    1  UNL1       -0.0042
     11 C          -3.7470  -18.3642   19.4013 C.ar    1  UNL1       -0.0003
     12 C          -2.9546  -19.6244   19.5857 C.ar    1  UNL1       -0.0000
     13 C          -3.6458  -20.8922   19.9915 C.ar    1  UNL1       -0.0003
     14 C          -5.1293  -20.9000   20.2130 C.ar    1  UNL1       -0.0042
     15 C         -11.4763  -19.3793   23.4680 C.3     1  UNL1        0.1773
     16 C         -13.5168  -17.8428   23.9428 C.3     1  UNL1        0.1126
     17 N         -12.2897  -18.1620   23.1414 N.pl3   1  UNL1       -0.2980
     18 C         -11.8760  -17.2640   22.0133 C.ar    1  UNL1        0.0491
     19 C         -12.7075  -17.1940   20.7669 C.ar    1  UNL1        0.0154
     20 C         -12.2939  -16.2960   19.6388 C.ar    1  UNL1        0.0135
     21 C         -11.0488  -15.4680   19.7573 C.ar    1  UNL1        0.0683
     22 CL        -10.6351  -14.5700   18.6292 Cl      1  UNL1       -0.0814
     23 C         -10.2172  -15.5380   21.0037 C.ar    1  UNL1        0.0694
     24 CL         -8.9720  -14.7100   21.1221 Cl      1  UNL1       -0.0813
     25 C         -10.6309  -16.4360   22.1318 C.ar    1  UNL1        0.0268
     26 C          -7.0256  -19.3561   22.8036 C.3     1  UNL1        0.0924
     27 N          -6.3846  -18.0297   23.0861 N.3     1  UNL1       -0.2713
     28 C          -7.1038  -16.7323   23.3082 C.3     1  UNL1        0.0722
     29 C          -6.0755  -15.6686   23.5554 C.3     1  UNL1        0.0188
     30 C          -4.7207  -16.3087   23.4862 C.3     1  UNL1        0.0188
     31 C          -4.9117  -17.7679   23.1961 C.3     1  UNL1        0.0722
@<TRIPOS>BOND
     1    16    17    1
     2    17    15    1
     3    15     1    1
     4     1     2    2
     5     1     3   am
     6     3     4    1
     7     4     5    1
     8     5     6    1
     9     6     7    1
    10     7     9    1
    11     9    10   ar
    12    10    11   ar
    13    11    12   ar
    14    12    13   ar
    15    13    14   ar
    16     7     8    1
    17     8    26    1
    18    26    27    1
    19    27    28    1
    20    28    29    1
    21    29    30    1
    22    30    31    1
    23    17    18    1
    24    18    19   ar
    25    19    20   ar
    26    20    21   ar
    27    21    22    1
    28    21    23   ar
    29    23    24    1
    30    23    25   ar
    31     8     3    1
    32    31    27    1
    33    25    18   ar
    34    14     9   ar
@<TRIPOS>MOLECULE
*****
 31 34 0 0 0
SMALL
GASTEIGER

@<TRIPOS>ATOM
      1 C           6.2015   -1.3373   24.2529 C.2     1  UNL1        0.2459
      2 O           6.0381    0.1156   24.5884 O.2     1  UNL1       -0.2730
      3 N           5.4746   -1.9222   23.0783 N.am    1  UNL1       -0.2781
      4 C           5.6380   -3.3750   22.7428 C.3     1  UNL1        0.0935
      5 C           4.9110   -3.9598   21.5683 C.3     1  UNL1        0.0219
      6 C           4.0207   -3.0918   20.7293 C.3     1  UNL1        0.0078
      7 C           3.8573   -1.6390   21.0648 C.3     1  UNL1        0.0419
      8 C           4.5842   -1.0542   22.2393 C.3     1  UNL1        0.0953
      9 C           2.9670   -0.7710   20.2258 C.ar    1  UNL1       -0.0209
     10 C           3.5323   -0.0327   19.0489 C.ar    1  UNL1       -0.0042
     11 C           2.6420    0.8353   18.2098 C.ar    1  UNL1       -0.0003
     12 C           1.1863    0.9649   18.5478 C.ar    1  UNL1       -0.0000
     13 C           0.6210    0.2266   19.7247 C.ar    1  UNL1       -0.0003
     14 C           1.5113   -0.6414   20.5637 C.ar    1  UNL1       -0.0042
     15 C           7.0918   -2.2052   25.0919 C.3     1  UNL1        0.1773
     16 C           5.5481   -2.2370   27.1813 C.3     1  UNL1        0.1126
     17 N           6.5313   -2.9259   26.2820 N.pl3   1  UNL1       -0.2980
     18 C           6.9541   -4.3354   26.5729 C.ar    1  UNL1        0.0491
     19 C           7.0378   -4.8157   27.9915 C.ar    1  UNL1        0.0154
     20 C           7.4605   -6.2252   28.2824 C.ar    1  UNL1        0.0135
     21 C           7.7994   -7.1544   27.1547 C.ar    1  UNL1        0.0683
     22 CL          8.2221   -8.5639   27.4456 Cl      1  UNL1       -0.0814
     23 C           7.7157   -6.6741   25.7362 C.ar    1  UNL1        0.0694
     24 CL          8.0547   -7.6034   24.6085 Cl      1  UNL1       -0.0813
     25 C           7.2930   -5.2646   25.4453 C.ar    1  UNL1        0.0268
     26 C           4.4209    0.3987   22.5749 C.3     1  UNL1        0.0924
     27 N           3.1299    0.8935   23.1568 N.3     1  UNL1       -0.2713
     28 C           2.4435    2.1817   22.8114 C.3     1  UNL1        0.0722
     29 C           1.1881    2.2713   23.6274 C.3     1  UNL1        0.0188
     30 C           1.0986    1.0384   24.4772 C.3     1  UNL1        0.0188
     31 C           2.2987    0.1869   24.1863 C.3     1  UNL1        0.0722
@<TRIPOS>BOND
     1    16    17    1
     2    17    15    1
     3    15     1    1
     4     1     2    2
     5     1     3   am
     6     3     4    1
     7     4     5    1
     8     5     6    1
     9     6     7    1
    10     7     9    1
    11     9    10   ar
    12    10    11   ar
    13    11    12   ar
    14    12    13   ar
    15    13    14   ar
    16     7     8    1
    17     8    26    1
    18    26    27    1
    19    27    28    1
    20    28    29    1
    21    29    30    1
    22    30    31    1
    23    17    18    1
    24    18    19   ar
    25    19    20   ar
    26    20    21   ar
    27    21    22    1
    28    21    23   ar
    29    23    24    1
    30    23    25   ar
    31     8     3    1
    32    31    27    1
    33    25    18   ar
    34    14     9   ar
@<TRIPOS>MOLECULE
*****
 31 34 0 0 0
SMALL
GASTEIGER

@<TRIPOS>ATOM
      1 C           2.4154    2.0526   23.3848 C.2     1  UNL1        0.2459
      2 O           3.8304    1.9498   23.8720 O.2     1  UNL1       -0.2730
      3 N           1.9712    1.2519   22.1966 N.am    1  UNL1       -0.2781
      4 C           0.5563    1.3547   21.7095 C.3     1  UNL1        0.0935
      5 C           0.1122    0.5540   20.5214 C.3     1  UNL1        0.0219
      6 C           1.0830   -0.3494   19.8204 C.3     1  UNL1        0.0078
      7 C           2.4979   -0.4521   20.3075 C.3     1  UNL1        0.0419
      8 C           2.9420    0.3485   21.4956 C.3     1  UNL1        0.0953
      9 C           3.4687   -1.3556   19.6065 C.ar    1  UNL1       -0.0209
     10 C           3.3796   -2.8412   19.7928 C.ar    1  UNL1       -0.0042
     11 C           4.3504   -3.7446   19.0918 C.ar    1  UNL1       -0.0003
     12 C           5.4103   -3.1624   18.2045 C.ar    1  UNL1       -0.0000
     13 C           5.4995   -1.6767   18.0182 C.ar    1  UNL1       -0.0003
     14 C           4.5287   -0.7733   18.7192 C.ar    1  UNL1       -0.0042
     15 C           1.4446    2.9560   24.0858 C.3     1  UNL1        0.1773
     16 C           1.0401    1.3623   26.0974 C.3     1  UNL1        0.1126
     17 N           0.5352    2.4036   25.1431 N.pl3   1  UNL1       -0.2980
     18 C          -0.8791    2.8926   25.2461 C.ar    1  UNL1        0.0491
     19 C          -1.5474    2.9782   26.5863 C.ar    1  UNL1        0.0154
     20 C          -2.9617    3.4671   26.6893 C.ar    1  UNL1        0.0135
     21 C          -3.7077    3.8705   25.4521 C.ar    1  UNL1        0.0683
     22 CL         -5.1221    4.3594   25.5551 Cl      1  UNL1       -0.0814
     23 C          -3.0395    3.7849   24.1119 C.ar    1  UNL1        0.0694
     24 CL         -3.7857    4.1882   22.8747 Cl      1  UNL1       -0.0813
     25 C          -1.6252    3.2959   24.0089 C.ar    1  UNL1        0.0268
     26 C           4.3571    0.2457   21.9828 C.3     1  UNL1        0.0924
     27 N           4.9133   -1.0847   22.3957 N.3     1  UNL1       -0.2713
     28 C           4.2525   -2.0703   23.3132 C.3     1  UNL1        0.0722
     29 C           5.1589   -3.2579   23.4482 C.3     1  UNL1        0.0188
     30 C           6.3799   -3.0062   22.6141 C.3     1  UNL1        0.0188
     31 C           6.2282   -1.6631   21.9637 C.3     1  UNL1        0.0722
@<TRIPOS>BOND
     1    16    17    1
     2    17    15    1
     3    15     1    1
     4     1     2    2
     5     1     3   am
     6     3     4    1
     7     4     5    1
     8     5     6    1
     9     6     7    1
    10     7     9    1
    11     9    10   ar
    12    10    11   ar
    13    11    12   ar
    14    12    13   ar
    15    13    14   ar
    16     7     8    1
    17     8    26    1
    18    26    27    1
    19    27    28    1
    20    28    29    1
    21    29    30    1
    22    30    31    1
    23    17    18    1
    24    18    19   ar
    25    19    20   ar
    26    20    21   ar
    27    21    22    1
    28    21    23   ar
    29    23    24    1
    30    23    25   ar
    31     8     3    1
    32    31    27    1
    33    25    18   ar
    34    14     9   ar
@<TRIPOS>MOLECULE
*****
 31 34 0 0 0
SMALL
GASTEIGER

@<TRIPOS>ATOM
      1 C          -6.2893  -20.3628   21.0226 C.2     1  UNL1        0.2459
      2 O          -6.0932  -19.5357   22.2585 O.2     1  UNL1       -0.2730
      3 N          -7.5482  -20.2237   20.2189 N.am    1  UNL1       -0.2781
      4 C          -7.7443  -21.0508   18.9831 C.3     1  UNL1        0.0935
      5 C          -9.0032  -20.9116   18.1795 C.3     1  UNL1        0.0219
      6 C         -10.0660  -19.9454   18.6118 C.3     1  UNL1        0.0078
      7 C          -9.8699  -19.1183   19.8477 C.3     1  UNL1        0.0419
      8 C          -8.6110  -19.2574   20.6512 C.3     1  UNL1        0.0953
      9 C         -10.9327  -18.1520   20.2800 C.ar    1  UNL1       -0.0209
     10 C         -11.0229  -16.7996   19.6376 C.ar    1  UNL1       -0.0042
     11 C         -12.0857  -15.8334   20.0699 C.ar    1  UNL1       -0.0003
     12 C         -13.0582  -16.2195   21.1445 C.ar    1  UNL1       -0.0000
     13 C         -12.9680  -17.5720   21.7869 C.ar    1  UNL1       -0.0003
     14 C         -11.9052  -18.5382   21.3546 C.ar    1  UNL1       -0.0042
     15 C          -5.2265  -21.3291   20.5903 C.3     1  UNL1        0.1773
     16 C          -3.4118  -21.6143   18.7531 C.3     1  UNL1        0.1126
     17 N          -3.9989  -20.8290   19.8883 N.pl3   1  UNL1       -0.2980
     18 C          -3.3583  -19.5436   20.3215 C.ar    1  UNL1        0.0491
     19 C          -2.9478  -18.5278   19.2970 C.ar    1  UNL1        0.0154
     20 C          -2.3073  -17.2424   19.7301 C.ar    1  UNL1        0.0135
     21 C          -2.0772  -16.9730   21.1876 C.ar    1  UNL1        0.0683
     22 CL         -1.4366  -15.6876   21.6208 Cl      1  UNL1       -0.0814
     23 C          -2.4877  -17.9889   22.2121 C.ar    1  UNL1        0.0694
     24 CL         -2.2576  -17.7194   23.6697 Cl      1  UNL1       -0.0813
     25 C          -3.1282  -19.2742   21.7790 C.ar    1  UNL1        0.0268
     26 C          -8.4148  -18.4303   21.8872 C.3     1  UNL1        0.0924
     27 N          -9.0804  -18.8301   23.1706 N.3     1  UNL1       -0.2713
     28 C          -9.5576  -17.8975   24.2441 C.3     1  UNL1        0.0722
     29 C         -10.1578  -18.7237   25.3428 C.3     1  UNL1        0.0188
     30 C         -10.0514  -20.1670   24.9484 C.3     1  UNL1        0.0188
     31 C          -9.3856  -20.2327   23.6059 C.3     1  UNL1        0.0722
@<TRIPOS>BOND
     1    16    17    1
     2    17    15    1
     3    15     1    1
     4     1     2    2
     5     1     3   am
     6     3     4    1
     7     4     5    1
     8     5     6    1
     9     6     7    1
    10     7     9    1
    11     9    10   ar
    12    10    11   ar
    13    11    12   ar
    14    12    13   ar
    15    13    14   ar
    16     7     8    1
    17     8    26    1
    18    26    27    1
    19    27    28    1
    20    28    29    1
    21    29    30    1
    22    30    31    1
    23    17    18    1
    24    18    19   ar
    25    19    20   ar
    26    20    21   ar
    27    21    22    1
    28    21    23   ar
    29    23    24    1
    30    23    25   ar
    31     8     3    1
    32    31    27    1
    33    25    18   ar
    34    14     9   ar
