@<TRIPOS>MOLECULE
*****
 19 20 0 0 0
SMALL
GASTEIGER

@<TRIPOS>ATOM
      1 N          -9.2457  -17.4590   22.9543 N.pl3   1  UNL1       -0.2558
      2 H          -9.8302  -16.9461   22.3507 H       1  UNL1        0.1688
      3 N          -7.9658  -16.8550   23.4515 N.ar    1  UNL1       -0.1623
      4 N          -6.6993  -16.7000   22.6629 N.ar    1  UNL1       -0.0459
      5 N          -5.6786  -16.0491   23.5485 N.ar    1  UNL1       -0.1273
      6 C          -6.3142  -15.8018   24.8845 C.ar    1  UNL1        0.1236
      7 C          -5.7885  -15.1874   26.1478 C.ar    1  UNL1        0.0226
      8 C          -6.6764  -15.0711   27.3512 C.ar    1  UNL1        0.0017
      9 C          -8.0900  -15.5691   27.2912 C.ar    1  UNL1        0.0017
     10 C          -8.6157  -16.1835   26.0278 C.ar    1  UNL1        0.0223
     11 C          -7.7279  -16.2998   24.8245 C.ar    1  UNL1        0.1193
     12 C          -9.6349  -18.8447   23.3770 C.3     1  UNL1        0.1066
     13 C         -11.0793  -19.2491   23.3829 C.3     1  UNL1        0.0228
     14 C         -12.1463  -18.2164   23.5952 C.3     1  UNL1        0.0022
     15 C         -12.8846  -17.6484   22.4196 C.3     1  UNL1        0.0060
     16 C         -12.3904  -16.3965   21.7571 C.3     1  UNL1        0.0417
     17 O         -12.3470  -15.7684   19.2365 O.co2   1  UNL1       -0.5492
     18 C         -11.7322  -16.4699   20.4112 C.2     1  UNL1        0.0503
     19 O         -10.4593  -17.2447   20.2402 O.co2   1  UNL1       -0.5492
@<TRIPOS>UNITY_ATOM_ATTR
17 1
charge -1
@<TRIPOS>BOND
     1    17    18   ar
     2    18    19   ar
     3    18    16    1
     4    16    15    1
     5    15    14    1
     6    14    13    1
     7    13    12    1
     8    12     1    1
     9     1     3    1
    10     3     4   ar
    11     4     5   ar
    12     5     6   ar
    13     6     7   ar
    14     7     8   ar
    15     8     9   ar
    16     9    10   ar
    17    10    11   ar
    18    11     3   ar
    19    11     6   ar
    20     1     2    1
@<TRIPOS>MOLECULE
*****
 19 20 0 0 0
SMALL
GASTEIGER

@<TRIPOS>ATOM
      1 N          -6.8051  -18.3561   20.6655 N.pl3   1  UNL1       -0.2558
      2 H          -5.9149  -17.9548   20.5400 H       1  UNL1        0.1688
      3 N          -7.7472  -17.7873   21.6848 N.ar    1  UNL1       -0.1623
      4 N          -8.0920  -16.3374   21.8545 N.ar    1  UNL1       -0.0459
      5 N          -9.0678  -16.2226   22.9880 N.ar    1  UNL1       -0.1273
      6 C          -9.3260  -17.6016   23.5188 C.ar    1  UNL1        0.1236
      7 C         -10.1988  -18.1016   24.6314 C.ar    1  UNL1        0.0226
      8 C         -10.2555  -19.5686   24.9387 C.ar    1  UNL1        0.0017
      9 C          -9.4393  -20.5357   24.1333 C.ar    1  UNL1        0.0017
     10 C          -8.5665  -20.0357   23.0207 C.ar    1  UNL1        0.0223
     11 C          -8.5098  -18.5686   22.7134 C.ar    1  UNL1        0.1193
     12 C          -7.2193  -19.5363   19.8375 C.3     1  UNL1        0.1066
     13 C          -8.4011  -19.4308   18.9197 C.3     1  UNL1        0.0228
     14 C          -9.6744  -20.1512   19.2508 C.3     1  UNL1        0.0022
     15 C         -10.7286  -19.4713   20.0733 C.3     1  UNL1        0.0060
     16 C         -10.9209  -17.9873   19.9680 C.3     1  UNL1        0.0417
     17 O         -12.5312  -17.8784   22.0039 O.co2   1  UNL1       -0.5492
     18 C         -12.0535  -17.3244   20.6944 C.2     1  UNL1        0.0503
     19 O         -12.7084  -16.1074   20.1112 O.co2   1  UNL1       -0.5492
@<TRIPOS>UNITY_ATOM_ATTR
17 1
charge -1
@<TRIPOS>BOND
     1    17    18   ar
     2    18    19   ar
     3    18    16    1
     4    16    15    1
     5    15    14    1
     6    14    13    1
     7    13    12    1
     8    12     1    1
     9     1     3    1
    10     3     4   ar
    11     4     5   ar
    12     5     6   ar
    13     6     7   ar
    14     7     8   ar
    15     8     9   ar
    16     9    10   ar
    17    10    11   ar
    18    11     3   ar
    19    11     6   ar
    20     1     2    1
@<TRIPOS>MOLECULE
*****
 19 20 0 0 0
SMALL
GASTEIGER

@<TRIPOS>ATOM
      1 N          -6.3267  -19.4039   21.8069 N.pl3   1  UNL1       -0.2558
      2 H          -5.7776  -19.6420   22.5886 H       1  UNL1        0.1688
      3 N          -7.5256  -18.5181   21.9743 N.ar    1  UNL1       -0.1623
      4 N          -7.7040  -17.1537   21.3772 N.ar    1  UNL1       -0.0459
      5 N          -9.0452  -16.6336   21.8021 N.ar    1  UNL1       -0.1273
      6 C          -9.6959  -17.6766   22.6616 C.ar    1  UNL1        0.1236
      7 C         -11.0221  -17.7162   23.3612 C.ar    1  UNL1        0.0226
      8 C         -11.4092  -18.9206   24.1671 C.ar    1  UNL1        0.0017
      9 C         -10.4700  -20.0853   24.2736 C.ar    1  UNL1        0.0017
     10 C          -9.1437  -20.0457   23.5741 C.ar    1  UNL1        0.0223
     11 C          -8.7567  -18.8413   22.7681 C.ar    1  UNL1        0.1193
     12 C          -5.9644  -19.9270   20.4485 C.3     1  UNL1        0.1066
     13 C          -4.6226  -20.5578   20.2210 C.3     1  UNL1        0.0228
     14 C          -3.3815  -19.7165   20.2643 C.3     1  UNL1        0.0022
     15 C          -2.5540  -19.6646   21.5143 C.3     1  UNL1        0.0060
     16 C          -2.0232  -18.3514   22.0083 C.3     1  UNL1        0.0417
     17 O          -4.3204  -17.4211   22.7877 O.co2   1  UNL1       -0.5492
     18 C          -2.9553  -17.1934   22.2091 C.2     1  UNL1        0.0503
     19 O          -2.5223  -15.8079   21.8314 O.co2   1  UNL1       -0.5492
@<TRIPOS>UNITY_ATOM_ATTR
17 1
charge -1
@<TRIPOS>BOND
     1    17    18   ar
     2    18    19   ar
     3    18    16    1
     4    16    15    1
     5    15    14    1
     6    14    13    1
     7    13    12    1
     8    12     1    1
     9     1     3    1
    10     3     4   ar
    11     4     5   ar
    12     5     6   ar
    13     6     7   ar
    14     7     8   ar
    15     8     9   ar
    16     9    10   ar
    17    10    11   ar
    18    11     3   ar
    19    11     6   ar
    20     1     2    1
@<TRIPOS>MOLECULE
*****
 19 20 0 0 0
SMALL
GASTEIGER

@<TRIPOS>ATOM
      1 N          -7.9114  -15.0173   22.9774 N.pl3   1  UNL1       -0.2558
      2 H          -8.2070  -14.1106   22.7331 H       1  UNL1        0.1688
      3 N          -8.4420  -16.2056   22.2315 N.ar    1  UNL1       -0.1623
      4 N          -7.6273  -17.1869   21.4421 N.ar    1  UNL1       -0.0459
      5 N          -8.5624  -18.2090   20.8669 N.ar    1  UNL1       -0.1273
      6 C          -9.9550  -17.8594   21.3008 C.ar    1  UNL1        0.1236
      7 C         -11.2812  -18.5086   21.0369 C.ar    1  UNL1        0.0226
      8 C         -12.5331  -17.9196   21.6164 C.ar    1  UNL1        0.0017
      9 C         -12.4587  -16.6814   22.4599 C.ar    1  UNL1        0.0017
     10 C         -11.1325  -16.0322   22.7238 C.ar    1  UNL1        0.0223
     11 C          -9.8807  -16.6212   22.1442 C.ar    1  UNL1        0.1193
     12 C          -6.9302  -15.2105   24.0955 C.3     1  UNL1        0.1066
     13 C          -5.4630  -15.3052   23.7979 C.3     1  UNL1        0.0228
     14 C          -4.6972  -16.5353   24.1854 C.3     1  UNL1        0.0022
     15 C          -4.4602  -17.6200   23.1768 C.3     1  UNL1        0.0060
     16 C          -3.0594  -18.0370   22.8389 C.3     1  UNL1        0.0417
     17 O          -1.9979  -20.0421   21.5729 O.co2   1  UNL1       -0.5492
     18 C          -2.7819  -18.7634   21.5562 C.2     1  UNL1        0.0503
     19 O          -3.2884  -18.2111   20.2569 O.co2   1  UNL1       -0.5492
@<TRIPOS>UNITY_ATOM_ATTR
17 1
charge -1
@<TRIPOS>BOND
     1    17    18   ar
     2    18    19   ar
     3    18    16    1
     4    16    15    1
     5    15    14    1
     6    14    13    1
     7    13    12    1
     8    12     1    1
     9     1     3    1
    10     3     4   ar
    11     4     5   ar
    12     5     6   ar
    13     6     7   ar
    14     7     8   ar
    15     8     9   ar
    16     9    10   ar
    17    10    11   ar
    18    11     3   ar
    19    11     6   ar
    20     1     2    1
@<TRIPOS>MOLECULE
*****
 19 20 0 0 0
SMALL
GASTEIGER

@<TRIPOS>ATOM
      1 N          -8.1745  -18.2806   21.0796 N.pl3   1  UNL1       -0.2558
      2 H          -7.5234  -17.5656   20.8947 H       1  UNL1        0.1688
      3 N          -9.6449  -17.9963   20.9950 N.ar    1  UNL1       -0.1623
      4 N         -10.3845  -17.5331   19.7750 N.ar    1  UNL1       -0.0459
      5 N         -11.8305  -17.3758   20.1416 N.ar    1  UNL1       -0.1273
      6 C         -11.9845  -17.7418   21.5881 C.ar    1  UNL1        0.1236
      7 C         -13.1803  -17.7754   22.4931 C.ar    1  UNL1        0.0226
      8 C         -13.0251  -18.1924   23.9255 C.ar    1  UNL1        0.0017
      9 C         -11.6743  -18.5759   24.4530 C.ar    1  UNL1        0.0017
     10 C         -10.4786  -18.5423   23.5480 C.ar    1  UNL1        0.0223
     11 C         -10.6337  -18.1252   22.1155 C.ar    1  UNL1        0.1193
     12 C          -7.6960  -19.6543   21.4460 C.3     1  UNL1        0.1066
     13 C          -6.2418  -20.0002   21.3207 C.3     1  UNL1        0.0228
     14 C          -5.3037  -19.0573   20.6273 C.3     1  UNL1        0.0022
     15 C          -4.2099  -19.5954   19.7533 C.3     1  UNL1        0.0060
     16 C          -2.9381  -18.8191   19.5799 C.3     1  UNL1        0.0417
     17 O          -1.8355  -20.0461   21.5871 O.co2   1  UNL1       -0.5492
     18 C          -1.7104  -19.2095   20.3484 C.2     1  UNL1        0.0503
     19 O          -0.3578  -18.7632   19.8781 O.co2   1  UNL1       -0.5492
@<TRIPOS>UNITY_ATOM_ATTR
17 1
charge -1
@<TRIPOS>BOND
     1    17    18   ar
     2    18    19   ar
     3    18    16    1
     4    16    15    1
     5    15    14    1
     6    14    13    1
     7    13    12    1
     8    12     1    1
     9     1     3    1
    10     3     4   ar
    11     4     5   ar
    12     5     6   ar
    13     6     7   ar
    14     7     8   ar
    15     8     9   ar
    16     9    10   ar
    17    10    11   ar
    18    11     3   ar
    19    11     6   ar
    20     1     2    1
@<TRIPOS>MOLECULE
*****
 19 20 0 0 0
SMALL
GASTEIGER

@<TRIPOS>ATOM
      1 N          -8.5852  -17.9875   22.6355 N.pl3   1  UNL1       -0.2558
      2 H          -9.1676  -18.1894   21.8678 H       1  UNL1        0.1688
      3 N          -7.0942  -18.0261   22.4764 N.ar    1  UNL1       -0.1623
      4 N          -6.1160  -17.0754   23.1005 N.ar    1  UNL1       -0.0459
      5 N          -4.7368  -17.4839   22.6750 N.ar    1  UNL1       -0.1273
      6 C          -4.8626  -18.6870   21.7880 C.ar    1  UNL1        0.1236
      7 C          -3.8387  -19.5207   21.0763 C.ar    1  UNL1        0.0226
      8 C          -4.2718  -20.6895   20.2418 C.ar    1  UNL1        0.0017
      9 C          -5.7287  -21.0246   20.1191 C.ar    1  UNL1        0.0017
     10 C          -6.7526  -20.1909   20.8308 C.ar    1  UNL1        0.0223
     11 C          -6.3195  -19.0221   21.6653 C.ar    1  UNL1        0.1193
     12 C          -9.1890  -17.6414   23.9644 C.3     1  UNL1        0.1066
     13 C         -10.5426  -18.1717   24.3341 C.3     1  UNL1        0.0228
     14 C         -11.4972  -18.6042   23.2611 C.3     1  UNL1        0.0022
     15 C         -12.6144  -17.6958   22.8406 C.3     1  UNL1        0.0060
     16 C         -12.3093  -16.3202   22.3262 C.3     1  UNL1        0.0417
     17 O         -10.1288  -16.0590   20.9379 O.co2   1  UNL1       -0.5492
     18 C         -11.6247  -16.1491   21.0025 C.2     1  UNL1        0.0503
     19 O         -12.4360  -16.0683   19.7435 O.co2   1  UNL1       -0.5492
@<TRIPOS>UNITY_ATOM_ATTR
17 1
charge -1
@<TRIPOS>BOND
     1    17    18   ar
     2    18    19   ar
     3    18    16    1
     4    16    15    1
     5    15    14    1
     6    14    13    1
     7    13    12    1
     8    12     1    1
     9     1     3    1
    10     3     4   ar
    11     4     5   ar
    12     5     6   ar
    13     6     7   ar
    14     7     8   ar
    15     8     9   ar
    16     9    10   ar
    17    10    11   ar
    18    11     3   ar
    19    11     6   ar
    20     1     2    1
@<TRIPOS>MOLECULE
*****
 19 20 0 0 0
SMALL
GASTEIGER

@<TRIPOS>ATOM
      1 N          -7.0478  -17.8133   21.3892 N.pl3   1  UNL1       -0.2558
      2 H          -6.6954  -17.2739   20.6449 H       1  UNL1        0.1688
      3 N          -8.2236  -17.3221   22.1805 N.ar    1  UNL1       -0.1623
      4 N          -8.1617  -16.4963   23.4313 N.ar    1  UNL1       -0.0459
      5 N          -9.5676  -16.2343   23.8837 N.ar    1  UNL1       -0.1273
      6 C         -10.4984  -16.8981   22.9126 C.ar    1  UNL1        0.1236
      7 C         -11.9951  -16.9772   22.8509 C.ar    1  UNL1        0.0226
      8 C         -12.6610  -17.7286   21.7366 C.ar    1  UNL1        0.0017
      9 C         -11.8304  -18.4009   20.6839 C.ar    1  UNL1        0.0017
     10 C         -10.3338  -18.3218   20.7457 C.ar    1  UNL1        0.0223
     11 C          -9.6678  -17.5704   21.8600 C.ar    1  UNL1        0.1193
     12 C          -6.4089  -19.1265   21.7321 C.3     1  UNL1        0.1066
     13 C          -6.3945  -20.2390   20.7260 C.3     1  UNL1        0.0228
     14 C          -5.0924  -20.7174   20.1556 C.3     1  UNL1        0.0022
     15 C          -3.8215  -19.9856   20.4709 C.3     1  UNL1        0.0060
     16 C          -3.3884  -18.8318   19.6157 C.3     1  UNL1        0.0417
     17 O          -1.4423  -18.0049   18.1060 O.co2   1  UNL1       -0.5492
     18 C          -1.9281  -18.5538   19.4147 C.2     1  UNL1        0.0503
     19 O          -0.9538  -18.8248   20.5224 O.co2   1  UNL1       -0.5492
@<TRIPOS>UNITY_ATOM_ATTR
17 1
charge -1
@<TRIPOS>BOND
     1    17    18   ar
     2    18    19   ar
     3    18    16    1
     4    16    15    1
     5    15    14    1
     6    14    13    1
     7    13    12    1
     8    12     1    1
     9     1     3    1
    10     3     4   ar
    11     4     5   ar
    12     5     6   ar
    13     6     7   ar
    14     7     8   ar
    15     8     9   ar
    16     9    10   ar
    17    10    11   ar
    18    11     3   ar
    19    11     6   ar
    20     1     2    1
@<TRIPOS>MOLECULE
*****
 19 20 0 0 0
SMALL
GASTEIGER

@<TRIPOS>ATOM
      1 N          -6.4361  -18.1086   22.3461 N.pl3   1  UNL1       -0.2558
      2 H          -6.2694  -18.9623   21.8849 H       1  UNL1        0.1688
      3 N          -7.7739  -17.4407   22.2273 N.ar    1  UNL1       -0.1623
      4 N          -8.0559  -16.1528   21.5119 N.ar    1  UNL1       -0.0459
      5 N          -9.5209  -15.8596   21.6454 N.ar    1  UNL1       -0.1273
      6 C         -10.1443  -16.9663   22.4433 C.ar    1  UNL1        0.1236
      7 C         -11.5556  -17.2105   22.8888 C.ar    1  UNL1        0.0226
      8 C         -11.8872  -18.4318   23.6939 C.ar    1  UNL1        0.0017
      9 C         -10.8075  -19.4090   24.0535 C.ar    1  UNL1        0.0017
     10 C          -9.3962  -19.1649   23.6080 C.ar    1  UNL1        0.0223
     11 C          -9.0646  -17.9435   22.8029 C.ar    1  UNL1        0.1193
     12 C          -5.3522  -17.4759   23.1678 C.3     1  UNL1        0.1066
     13 C          -3.9180  -17.8451   22.9295 C.3     1  UNL1        0.0228
     14 C          -2.9226  -16.7860   22.5588 C.3     1  UNL1        0.0022
     15 C          -1.8279  -17.0950   21.5810 C.3     1  UNL1        0.0060
     16 C          -2.1495  -17.2731   20.1266 C.3     1  UNL1        0.0417
     17 O          -0.0279  -18.7408   19.8196 O.co2   1  UNL1       -0.5492
     18 C          -1.1916  -18.0003   19.2302 C.2     1  UNL1        0.0503
     19 O          -1.3974  -17.9868   17.7445 O.co2   1  UNL1       -0.5492
@<TRIPOS>UNITY_ATOM_ATTR
17 1
charge -1
@<TRIPOS>BOND
     1    17    18   ar
     2    18    19   ar
     3    18    16    1
     4    16    15    1
     5    15    14    1
     6    14    13    1
     7    13    12    1
     8    12     1    1
     9     1     3    1
    10     3     4   ar
    11     4     5   ar
    12     5     6   ar
    13     6     7   ar
    14     7     8   ar
    15     8     9   ar
    16     9    10   ar
    17    10    11   ar
    18    11     3   ar
    19    11     6   ar
    20     1     2    1
@<TRIPOS>MOLECULE
*****
 19 20 0 0 0
SMALL
GASTEIGER

@<TRIPOS>ATOM
      1 N          -8.0934  -18.7434   21.8675 N.pl3   1  UNL1       -0.2558
      2 H          -8.4788  -17.9579   21.4163 H       1  UNL1        0.1688
      3 N          -6.7997  -19.3274   21.3823 N.ar    1  UNL1       -0.1623
      4 N          -6.6501  -20.3889   20.3332 N.ar    1  UNL1       -0.0459
      5 N          -5.1864  -20.6699   20.1636 N.ar    1  UNL1       -0.1273
      6 C          -4.4315  -19.7820   21.1078 C.ar    1  UNL1        0.1236
      7 C          -2.9650  -19.6218   21.3791 C.ar    1  UNL1        0.0226
      8 C          -2.4955  -18.6319   22.4036 C.ar    1  UNL1        0.0017
      9 C          -3.4926  -17.8021   23.1568 C.ar    1  UNL1        0.0017
     10 C          -4.9591  -17.9623   22.8856 C.ar    1  UNL1        0.0223
     11 C          -5.4286  -18.9522   21.8611 C.ar    1  UNL1        0.1193
     12 C          -8.7999  -19.3564   23.0403 C.3     1  UNL1        0.1066
     13 C         -10.2790  -19.5986   22.9819 C.3     1  UNL1        0.0228
     14 C         -11.2327  -18.5208   23.4046 C.3     1  UNL1        0.0022
     15 C         -12.3693  -18.1308   22.5068 C.3     1  UNL1        0.0060
     16 C         -12.1310  -17.1962   21.3579 C.3     1  UNL1        0.0417
     17 O         -10.3747  -17.9720   19.6077 O.co2   1  UNL1       -0.5492
     18 C         -10.7629  -17.0847   20.7531 C.2     1  UNL1        0.0503
     19 O          -9.7831  -16.0859   21.2937 O.co2   1  UNL1       -0.5492
@<TRIPOS>UNITY_ATOM_ATTR
17 1
charge -1
@<TRIPOS>BOND
     1    17    18   ar
     2    18    19   ar
     3    18    16    1
     4    16    15    1
     5    15    14    1
     6    14    13    1
     7    13    12    1
     8    12     1    1
     9     1     3    1
    10     3     4   ar
    11     4     5   ar
    12     5     6   ar
    13     6     7   ar
    14     7     8   ar
    15     8     9   ar
    16     9    10   ar
    17    10    11   ar
    18    11     3   ar
    19    11     6   ar
    20     1     2    1
