@<TRIPOS>MOLECULE
*****
 34 37 0 0 0
SMALL
GASTEIGER

@<TRIPOS>ATOM
      1 N           1.2232    1.2174   25.0864 N.ar    1  UNL1       -0.2286
      2 C           0.1763    1.3035   24.0156 C.ar    1  UNL1        0.0990
      3 C           0.8438    1.0611   22.6944 C.ar    1  UNL1        0.0338
      4 C           2.3032    0.8253   22.9486 C.ar    1  UNL1        0.0981
      5 N           2.5376    0.9219   24.4270 N.ar    1  UNL1       -0.1680
      6 C           2.9706    0.5830   21.6273 C.3     1  UNL1        0.1414
      7 N           1.9238    0.6690   20.5564 N.am    1  UNL1       -0.2660
      8 C           2.1514    0.4909   19.0846 C.2     1  UNL1        0.2525
      9 O           1.0013    0.6060   18.1284 O.2     1  UNL1       -0.2698
     10 C           0.6093    0.9646   21.2160 C.3     1  UNL1        0.1236
     11 C          -1.6242    0.3240   29.3402 C.3     1  UNL1        0.0521
     12 C          -0.4282    0.9489   28.6853 C.ar    1  UNL1        0.0609
     13 C          -0.2005    0.7708   27.2133 C.ar    1  UNL1        0.0339
     14 C           0.9956    1.3956   26.5583 C.ar    1  UNL1        0.0855
     15 C           1.9640    2.1986   27.3752 C.ar    1  UNL1        0.0398
     16 C           1.7363    2.3767   28.8471 C.ar    1  UNL1        0.1000
     17 N           0.5403    1.7519   29.5021 N.ar    1  UNL1       -0.2480
     18 C           3.5290    0.1975   18.5688 C.ar    1  UNL1        0.0888
     19 C           4.3317    1.2827   17.9147 C.ar    1  UNL1        0.0259
     20 C           5.7095    0.9894   17.3988 C.ar    1  UNL1        0.1061
     21 C           6.2844   -0.3891   17.5372 C.ar    1  UNL1        0.0215
     22 C           5.4816   -1.4744   18.1914 C.ar    1  UNL1        0.0384
     23 C           4.1040   -1.1810   18.7072 C.ar    1  UNL1        0.1432
     24 S           6.5121    2.0747   16.7447 S.O2    1  UNL1        0.0105
     25 C           7.3148    3.1599   16.0905 C.3     1  UNL1        0.1816
     26 O           7.4335    1.0431   16.1640 O.2     1  UNL1       -0.1686
     27 O           5.5908    3.1062   17.3254 O.2     1  UNL1       -0.1686
     28 O           3.3013   -2.2662   19.3613 O.3     1  UNL1       -0.4702
     29 C           3.9971   -3.3934   20.0650 C.3     1  UNL1        0.2599
     30 C           4.3358   -3.2733   21.5213 C.3     1  UNL1        0.0566
     31 C           4.3543   -4.6408   19.3124 C.3     1  UNL1        0.4340
     32 F           4.7113   -5.8882   18.5598 F       1  UNL1       -0.1664
     33 F           5.7894   -4.4728   19.7150 F       1  UNL1       -0.1664
     34 F           2.9190   -4.8088   18.9098 F       1  UNL1       -0.1664
@<TRIPOS>BOND
     1    11    12    1
     2    12    13   ar
     3    13    14   ar
     4    14     1    1
     5     1     2   ar
     6     2     3   ar
     7     3     4   ar
     8     4     5   ar
     9     4     6    1
    10     6     7    1
    11     7     8   am
    12     8     9    2
    13     8    18    1
    14    18    19   ar
    15    19    20   ar
    16    20    24    1
    17    24    25    1
    18    24    26    2
    19    24    27    2
    20    20    21   ar
    21    21    22   ar
    22    22    23   ar
    23    23    28    1
    24    28    29    1
    25    29    30    1
    26    29    31    1
    27    31    32    1
    28    31    33    1
    29    31    34    1
    30     7    10    1
    31    14    15   ar
    32    15    16   ar
    33    16    17   ar
    34    17    12   ar
    35     5     1   ar
    36    23    18   ar
    37    10     3    1
@<TRIPOS>MOLECULE
*****
 34 37 0 0 0
SMALL
GASTEIGER

@<TRIPOS>ATOM
      1 N           3.9389   -0.4700   21.0738 N.ar    1  UNL1       -0.2286
      2 C           3.8210    1.0231   21.1546 C.ar    1  UNL1        0.0990
      3 C           3.1220    1.3641   22.4372 C.ar    1  UNL1        0.0338
      4 C           2.8080    0.0817   23.1492 C.ar    1  UNL1        0.0981
      5 N           3.3129   -1.0519   22.3065 N.ar    1  UNL1       -0.1680
      6 C           2.1090    0.4227   24.4318 C.3     1  UNL1        0.1414
      7 N           1.9910    1.9159   24.5126 N.am    1  UNL1       -0.2660
      8 C           1.3582    2.6911   25.6299 C.2     1  UNL1        0.2525
      9 O           1.3136    4.1894   25.5721 O.2     1  UNL1       -0.2698
     10 C           2.6171    2.4977   23.2799 C.3     1  UNL1        0.1236
     11 C           4.7417   -4.9761   18.6140 C.3     1  UNL1        0.0521
     12 C           4.9732   -3.4984   18.7265 C.ar    1  UNL1        0.0609
     13 C           4.3404   -2.7230   19.8439 C.ar    1  UNL1        0.0339
     14 C           4.5718   -1.2453   19.9565 C.ar    1  UNL1        0.0855
     15 C           5.4362   -0.5429   18.9518 C.ar    1  UNL1        0.0398
     16 C           6.0690   -1.3182   17.8345 C.ar    1  UNL1        0.1000
     17 N           5.8376   -2.7960   17.7219 N.ar    1  UNL1       -0.2480
     18 C           0.7698    1.9682   26.8051 C.ar    1  UNL1        0.0888
     19 C           1.6705    1.3432   27.8288 C.ar    1  UNL1        0.0259
     20 C           1.0821    0.6202   29.0041 C.ar    1  UNL1        0.1061
     21 C          -0.4070    0.5223   29.1556 C.ar    1  UNL1        0.0215
     22 C          -1.3078    1.1473   28.1319 C.ar    1  UNL1        0.0384
     23 C          -0.7194    1.8703   26.9567 C.ar    1  UNL1        0.1432
     24 S           1.9829   -0.0048   30.0277 S.O2    1  UNL1        0.0105
     25 C           2.8837   -0.6298   31.0515 C.3     1  UNL1        0.1816
     26 O           1.4452    0.9292   31.0711 O.2     1  UNL1       -0.1686
     27 O           2.5206   -0.9389   28.9845 O.2     1  UNL1       -0.1686
     28 O          -1.6201    2.4953   25.9330 O.3     1  UNL1       -0.4702
     29 C          -2.4764    3.6695   26.3044 C.3     1  UNL1        0.2599
     30 C          -1.8783    4.8304   27.0423 C.3     1  UNL1        0.0566
     31 C          -3.9309    3.6828   25.9379 C.3     1  UNL1        0.4340
     32 F          -5.3854    3.6960   25.5716 F       1  UNL1       -0.1664
     33 F          -3.5761    3.3562   24.5176 F       1  UNL1       -0.1664
     34 F          -4.2858    4.0093   27.3584 F       1  UNL1       -0.1664
@<TRIPOS>BOND
     1    11    12    1
     2    12    13   ar
     3    13    14   ar
     4    14     1    1
     5     1     2   ar
     6     2     3   ar
     7     3     4   ar
     8     4     5   ar
     9     4     6    1
    10     6     7    1
    11     7     8   am
    12     8     9    2
    13     8    18    1
    14    18    19   ar
    15    19    20   ar
    16    20    24    1
    17    24    25    1
    18    24    26    2
    19    24    27    2
    20    20    21   ar
    21    21    22   ar
    22    22    23   ar
    23    23    28    1
    24    28    29    1
    25    29    30    1
    26    29    31    1
    27    31    32    1
    28    31    33    1
    29    31    34    1
    30     7    10    1
    31    14    15   ar
    32    15    16   ar
    33    16    17   ar
    34    17    12   ar
    35     5     1   ar
    36    23    18   ar
    37    10     3    1
@<TRIPOS>MOLECULE
*****
 34 37 0 0 0
SMALL
GASTEIGER

@<TRIPOS>ATOM
      1 N           5.7050   -1.9251   27.7010 N.ar    1  UNL1       -0.2286
      2 C           6.7371   -1.4576   26.7181 C.ar    1  UNL1        0.0990
      3 C           6.0284   -1.0509   25.4602 C.ar    1  UNL1        0.0338
      4 C           4.5584   -1.2671   25.6657 C.ar    1  UNL1        0.0981
      5 N           4.3585   -1.8074   27.0506 N.ar    1  UNL1       -0.1680
      6 C           3.8497   -0.8604   24.4078 C.3     1  UNL1        0.1414
      7 N           4.8818   -0.3928   23.4247 N.am    1  UNL1       -0.2660
      8 C           4.6143    0.1051   22.0354 C.2     1  UNL1        0.2525
      9 O           5.7537    0.5413   21.1626 O.2     1  UNL1       -0.2698
     10 C           6.2283   -0.5106   24.0752 C.3     1  UNL1        0.1236
     11 C           7.2796   -5.7032   30.9021 C.3     1  UNL1        0.0521
     12 C           6.7598   -4.3121   30.6911 C.ar    1  UNL1        0.0609
     13 C           6.4923   -3.8141   29.3016 C.ar    1  UNL1        0.0339
     14 C           5.9725   -2.4230   29.0905 C.ar    1  UNL1        0.0855
     15 C           5.7200   -1.5298   30.2688 C.ar    1  UNL1        0.0398
     16 C           5.9875   -2.0278   31.6583 C.ar    1  UNL1        0.1000
     17 N           6.5074   -3.4189   31.8694 N.ar    1  UNL1       -0.2480
     18 C           3.2075    0.1668   21.5186 C.ar    1  UNL1        0.0888
     19 C           2.3657    1.3807   21.7786 C.ar    1  UNL1        0.0259
     20 C           0.9588    1.4425   21.2618 C.ar    1  UNL1        0.1061
     21 C           0.3939    0.2904   20.4851 C.ar    1  UNL1        0.0215
     22 C           1.2357   -0.9237   20.2251 C.ar    1  UNL1        0.0384
     23 C           2.6425   -0.9854   20.7418 C.ar    1  UNL1        0.1432
     24 S           0.1170    2.6565   21.5218 S.O2    1  UNL1        0.0105
     25 C          -0.7247    3.8705   21.7819 C.3     1  UNL1        0.1816
     26 O           1.2563    3.2869   22.2666 O.2     1  UNL1       -0.1686
     27 O          -1.0223    2.0262   20.7770 O.2     1  UNL1       -0.1686
     28 O           3.4844   -2.1993   20.4819 O.3     1  UNL1       -0.4702
     29 C           3.9697   -2.4921   19.0931 C.3     1  UNL1        0.2599
     30 C           4.1030   -1.3801   18.0952 C.3     1  UNL1        0.0566
     31 C           4.3217   -3.8968   18.7022 C.3     1  UNL1        0.4340
     32 F           4.6736   -5.3015   18.3113 F       1  UNL1       -0.1664
     33 F           5.7276   -3.4632   18.4099 F       1  UNL1       -0.1664
     34 F           2.9157   -4.3304   18.9945 F       1  UNL1       -0.1664
@<TRIPOS>BOND
     1    11    12    1
     2    12    13   ar
     3    13    14   ar
     4    14     1    1
     5     1     2   ar
     6     2     3   ar
     7     3     4   ar
     8     4     5   ar
     9     4     6    1
    10     6     7    1
    11     7     8   am
    12     8     9    2
    13     8    18    1
    14    18    19   ar
    15    19    20   ar
    16    20    24    1
    17    24    25    1
    18    24    26    2
    19    24    27    2
    20    20    21   ar
    21    21    22   ar
    22    22    23   ar
    23    23    28    1
    24    28    29    1
    25    29    30    1
    26    29    31    1
    27    31    32    1
    28    31    33    1
    29    31    34    1
    30     7    10    1
    31    14    15   ar
    32    15    16   ar
    33    16    17   ar
    34    17    12   ar
    35     5     1   ar
    36    23    18   ar
    37    10     3    1
@<TRIPOS>MOLECULE
*****
 34 37 0 0 0
SMALL
GASTEIGER

@<TRIPOS>ATOM
      1 N           2.4279    0.7252   20.3757 N.ar    1  UNL1       -0.2286
      2 C           2.7964    2.1722   20.5187 C.ar    1  UNL1        0.0990
      3 C           1.7600    2.8315   21.3795 C.ar    1  UNL1        0.0338
      4 C           0.7509    1.7921   21.7686 C.ar    1  UNL1        0.0981
      5 N           1.1637    0.4903   21.1482 N.ar    1  UNL1       -0.1680
      6 C          -0.2855    2.4514   22.6295 C.3     1  UNL1        0.1414
      7 N           0.0830    3.8985   22.7725 N.am    1  UNL1       -0.2660
      8 C          -0.6788    4.9294   23.5512 C.2     1  UNL1        0.2525
      9 O          -0.1859    6.3452   23.6037 O.2     1  UNL1       -0.2698
     10 C           1.3472    4.1333   22.0000 C.3     1  UNL1        0.1236
     11 C           3.4667   -4.2550   19.3182 C.3     1  UNL1        0.0521
     12 C           3.7092   -2.7961   19.0682 C.ar    1  UNL1        0.0609
     13 C           2.9473   -1.7649   19.8469 C.ar    1  UNL1        0.0339
     14 C           3.1897   -0.3059   19.5969 C.ar    1  UNL1        0.0855
     15 C           4.1939    0.1221   18.5682 C.ar    1  UNL1        0.0398
     16 C           4.9558   -0.9091   17.7894 C.ar    1  UNL1        0.1000
     17 N           4.7134   -2.3681   18.0394 N.ar    1  UNL1       -0.2480
     18 C          -1.9336    4.5448   24.2776 C.ar    1  UNL1        0.0888
     19 C          -3.2526    4.5753   23.5639 C.ar    1  UNL1        0.0259
     20 C          -4.5074    4.1906   24.2903 C.ar    1  UNL1        0.1061
     21 C          -4.4432    3.7755   25.7302 C.ar    1  UNL1        0.0215
     22 C          -3.1242    3.7450   26.4439 C.ar    1  UNL1        0.0384
     23 C          -1.8694    4.1297   25.7176 C.ar    1  UNL1        0.1432
     24 S          -5.8264    4.2211   23.5765 S.O2    1  UNL1        0.0105
     25 C          -7.1453    4.2517   22.8629 C.3     1  UNL1        0.1816
     26 O          -6.3836    5.1148   24.6447 O.2     1  UNL1       -0.1686
     27 O          -5.2691    3.3274   22.5084 O.2     1  UNL1       -0.1686
     28 O          -0.5504    4.0992   26.4313 O.3     1  UNL1       -0.4702
     29 C           0.2640    2.8397   26.4486 C.3     1  UNL1        0.2599
     30 C           1.6481    2.8335   25.8705 C.3     1  UNL1        0.0566
     31 C          -0.3056    1.5863   27.0440 C.3     1  UNL1        0.4340
     32 F          -0.8753    0.3330   27.6395 F       1  UNL1       -0.1664
     33 F          -0.4481    0.9989   25.6712 F       1  UNL1       -0.1664
     34 F          -0.1631    2.1737   28.4169 F       1  UNL1       -0.1664
@<TRIPOS>BOND
     1    11    12    1
     2    12    13   ar
     3    13    14   ar
     4    14     1    1
     5     1     2   ar
     6     2     3   ar
     7     3     4   ar
     8     4     5   ar
     9     4     6    1
    10     6     7    1
    11     7     8   am
    12     8     9    2
    13     8    18    1
    14    18    19   ar
    15    19    20   ar
    16    20    24    1
    17    24    25    1
    18    24    26    2
    19    24    27    2
    20    20    21   ar
    21    21    22   ar
    22    22    23   ar
    23    23    28    1
    24    28    29    1
    25    29    30    1
    26    29    31    1
    27    31    32    1
    28    31    33    1
    29    31    34    1
    30     7    10    1
    31    14    15   ar
    32    15    16   ar
    33    16    17   ar
    34    17    12   ar
    35     5     1   ar
    36    23    18   ar
    37    10     3    1
@<TRIPOS>MOLECULE
*****
 34 37 0 0 0
SMALL
GASTEIGER

@<TRIPOS>ATOM
      1 N          -2.0931    3.4125   19.7852 N.ar    1  UNL1       -0.2286
      2 C          -0.9807    3.5648   18.7905 C.ar    1  UNL1        0.0990
      3 C           0.1790    2.7386   19.2621 C.ar    1  UNL1        0.0338
      4 C          -0.2166    2.0757   20.5482 C.ar    1  UNL1        0.0981
      5 N          -1.6208    2.4922   20.8715 N.ar    1  UNL1       -0.1680
      6 C           0.9432    1.2495   21.0197 C.3     1  UNL1        0.1414
      7 N           2.0556    1.4017   20.0250 N.am    1  UNL1       -0.2660
      8 C           3.4035    0.7484   20.1029 C.2     1  UNL1        0.2525
      9 O           4.4202    0.9958   19.0280 O.2     1  UNL1       -0.2698
     10 C           1.5833    2.3221   18.9387 C.3     1  UNL1        0.1236
     11 C          -6.7300    4.4288   21.8986 C.3     1  UNL1        0.0521
     12 C          -5.7596    4.5740   20.7641 C.ar    1  UNL1        0.0609
     13 C          -4.4115    3.9207   20.8419 C.ar    1  UNL1        0.0339
     14 C          -3.4411    4.0659   19.7074 C.ar    1  UNL1        0.0855
     15 C          -3.8186    4.8644   18.4950 C.ar    1  UNL1        0.0398
     16 C          -5.1667    5.5177   18.4172 C.ar    1  UNL1        0.1000
     17 N          -6.1371    5.3725   19.5517 N.ar    1  UNL1       -0.2480
     18 C           3.7350   -0.1523   21.2556 C.ar    1  UNL1        0.0888
     19 C           4.1574    0.4355   22.5694 C.ar    1  UNL1        0.0259
     20 C           4.4889   -0.4653   23.7222 C.ar    1  UNL1        0.1061
     21 C           4.3978   -1.9538   23.5612 C.ar    1  UNL1        0.0215
     22 C           3.9754   -2.5417   22.2473 C.ar    1  UNL1        0.0384
     23 C           3.6440   -1.6409   21.0946 C.ar    1  UNL1        0.1432
     24 S           4.9113    0.1226   25.0359 S.O2    1  UNL1        0.0105
     25 C           5.3337    0.7107   26.3496 C.3     1  UNL1        0.1816
     26 O           4.4463    1.4741   24.5805 O.2     1  UNL1       -0.1686
     27 O           5.3763   -1.2288   25.4913 O.2     1  UNL1       -0.1686
     28 O           3.2215   -2.2287   19.7808 O.3     1  UNL1       -0.4702
     29 C           4.1905   -3.0456   18.9784 C.3     1  UNL1        0.2599
     30 C           5.1475   -2.3684   18.0427 C.3     1  UNL1        0.0566
     31 C           4.2024   -4.5396   19.1116 C.3     1  UNL1        0.4340
     32 F           4.2142   -6.0336   19.2448 F       1  UNL1       -0.1664
     33 F           5.6591   -4.4963   19.4666 F       1  UNL1       -0.1664
     34 F           2.7456   -4.5828   18.7566 F       1  UNL1       -0.1664
@<TRIPOS>BOND
     1    11    12    1
     2    12    13   ar
     3    13    14   ar
     4    14     1    1
     5     1     2   ar
     6     2     3   ar
     7     3     4   ar
     8     4     5   ar
     9     4     6    1
    10     6     7    1
    11     7     8   am
    12     8     9    2
    13     8    18    1
    14    18    19   ar
    15    19    20   ar
    16    20    24    1
    17    24    25    1
    18    24    26    2
    19    24    27    2
    20    20    21   ar
    21    21    22   ar
    22    22    23   ar
    23    23    28    1
    24    28    29    1
    25    29    30    1
    26    29    31    1
    27    31    32    1
    28    31    33    1
    29    31    34    1
    30     7    10    1
    31    14    15   ar
    32    15    16   ar
    33    16    17   ar
    34    17    12   ar
    35     5     1   ar
    36    23    18   ar
    37    10     3    1
@<TRIPOS>MOLECULE
*****
 34 37 0 0 0
SMALL
GASTEIGER

@<TRIPOS>ATOM
      1 N           2.6510    0.0651   19.4985 N.ar    1  UNL1       -0.2286
      2 C           2.9802    1.5268   19.5696 C.ar    1  UNL1        0.0990
      3 C           1.7463    2.2590   20.0072 C.ar    1  UNL1        0.0338
      4 C           0.6546    1.2498   20.2065 C.ar    1  UNL1        0.0981
      5 N           1.2138   -0.1061   19.8921 N.ar    1  UNL1       -0.1680
      6 C          -0.5793    1.9820   20.6441 C.3     1  UNL1        0.1414
      7 N          -0.2501    3.4437   20.7152 N.am    1  UNL1       -0.2660
      8 C          -1.1927    4.5415   21.1105 C.2     1  UNL1        0.2525
      9 O          -0.7186    5.9644   21.1356 O.2     1  UNL1       -0.2698
     10 C           1.1872    3.6149   20.3216 C.3     1  UNL1        0.1236
     11 C           3.8719   -4.9836   19.3551 C.3     1  UNL1        0.0521
     12 C           4.2041   -3.5571   19.0315 C.ar    1  UNL1        0.0609
     13 C           3.2615   -2.4592   19.4268 C.ar    1  UNL1        0.0339
     14 C           3.5937   -1.0327   19.1031 C.ar    1  UNL1        0.0855
     15 C           4.8684   -0.7040   18.3842 C.ar    1  UNL1        0.0398
     16 C           5.8110   -1.8019   17.9889 C.ar    1  UNL1        0.1000
     17 N           5.4789   -3.2284   18.3125 N.ar    1  UNL1       -0.2480
     18 C          -2.6095    4.2164   21.4808 C.ar    1  UNL1        0.0888
     19 C          -3.7044    4.3742   20.4679 C.ar    1  UNL1        0.0259
     20 C          -5.1213    4.0491   20.8382 C.ar    1  UNL1        0.1061
     21 C          -5.4431    3.5663   22.2213 C.ar    1  UNL1        0.0215
     22 C          -4.3481    3.4085   23.2344 C.ar    1  UNL1        0.0384
     23 C          -2.9313    3.7336   22.8641 C.ar    1  UNL1        0.1432
     24 S          -6.2162    4.2069   19.8251 S.O2    1  UNL1        0.0105
     25 C          -7.3110    4.3646   18.8119 C.3     1  UNL1        0.1816
     26 O          -5.4198    3.4041   18.8395 O.2     1  UNL1       -0.1686
     27 O          -7.0126    5.0097   20.8106 O.2     1  UNL1       -0.1686
     28 O          -1.8363    3.5758   23.8770 O.3     1  UNL1       -0.4702
     29 C          -2.0604    4.0053   25.2967 C.3     1  UNL1        0.2599
     30 C          -2.3983    5.4341   25.6036 C.3     1  UNL1        0.0566
     31 C          -1.9464    3.0059   26.4094 C.3     1  UNL1        0.4340
     32 F          -1.8325    2.0066   27.5222 F       1  UNL1       -0.1664
     33 F          -0.6725    2.4860   25.8121 F       1  UNL1       -0.1664
     34 F          -3.2204    3.5258   27.0068 F       1  UNL1       -0.1664
@<TRIPOS>BOND
     1    11    12    1
     2    12    13   ar
     3    13    14   ar
     4    14     1    1
     5     1     2   ar
     6     2     3   ar
     7     3     4   ar
     8     4     5   ar
     9     4     6    1
    10     6     7    1
    11     7     8   am
    12     8     9    2
    13     8    18    1
    14    18    19   ar
    15    19    20   ar
    16    20    24    1
    17    24    25    1
    18    24    26    2
    19    24    27    2
    20    20    21   ar
    21    21    22   ar
    22    22    23   ar
    23    23    28    1
    24    28    29    1
    25    29    30    1
    26    29    31    1
    27    31    32    1
    28    31    33    1
    29    31    34    1
    30     7    10    1
    31    14    15   ar
    32    15    16   ar
    33    16    17   ar
    34    17    12   ar
    35     5     1   ar
    36    23    18   ar
    37    10     3    1
@<TRIPOS>MOLECULE
*****
 34 37 0 0 0
SMALL
GASTEIGER

@<TRIPOS>ATOM
      1 N          -1.1080    2.9721   24.5272 N.ar    1  UNL1       -0.2286
      2 C          -0.4029    3.4719   23.3012 C.ar    1  UNL1        0.0990
      3 C           0.7041    2.5122   22.9795 C.ar    1  UNL1        0.0338
      4 C           0.6832    1.4193   24.0067 C.ar    1  UNL1        0.0981
      5 N          -0.4367    1.7035   24.9632 N.ar    1  UNL1       -0.1680
      6 C           1.7902    0.4596   23.6850 C.3     1  UNL1        0.1414
      7 N           2.4953    0.9593   22.4590 N.am    1  UNL1       -0.2660
      8 C           3.6660    0.3054   21.7870 C.2     1  UNL1        0.2525
      9 O           4.2696    0.9249   20.5614 O.2     1  UNL1       -0.2698
     10 C           1.8240    2.2280   22.0230 C.3     1  UNL1        0.1236
     11 C          -6.1469    4.2401   24.5587 C.3     1  UNL1        0.0521
     12 C          -4.7983    4.2601   25.2149 C.ar    1  UNL1        0.0609
     13 C          -3.6274    3.6062   24.5430 C.ar    1  UNL1        0.0339
     14 C          -2.2787    3.6261   25.1992 C.ar    1  UNL1        0.0855
     15 C          -2.1008    4.3000   26.5274 C.ar    1  UNL1        0.0398
     16 C          -3.2717    4.9540   27.1993 C.ar    1  UNL1        0.1000
     17 N          -4.6204    4.9340   26.5432 N.ar    1  UNL1       -0.2480
     18 C           4.2333   -0.9681   22.3406 C.ar    1  UNL1        0.0888
     19 C           5.0166   -0.9466   23.6197 C.ar    1  UNL1        0.0259
     20 C           5.5839   -2.2201   24.1733 C.ar    1  UNL1        0.1061
     21 C           5.3680   -3.5150   23.4478 C.ar    1  UNL1        0.0215
     22 C           4.5847   -3.5366   22.1686 C.ar    1  UNL1        0.0384
     23 C           4.0175   -2.2631   21.6151 C.ar    1  UNL1        0.1432
     24 S           6.3671   -2.1984   25.4523 S.O2    1  UNL1        0.0105
     25 C           7.1504   -2.1769   26.7314 C.3     1  UNL1        0.1816
     26 O           6.5792   -3.6797   25.3475 O.2     1  UNL1       -0.1686
     27 O           6.1552   -0.7172   25.5572 O.2     1  UNL1       -0.1686
     28 O           3.2342   -2.2847   20.3360 O.3     1  UNL1       -0.4702
     29 C           3.9228   -2.5952   19.0401 C.3     1  UNL1        0.2599
     30 C           4.2275   -1.4927   18.0697 C.3     1  UNL1        0.0566
     31 C           4.3066   -4.0082   18.7145 C.3     1  UNL1        0.4340
     32 F           4.6903   -5.4212   18.3889 F       1  UNL1       -0.1664
     33 F           5.6815   -3.5466   18.3318 F       1  UNL1       -0.1664
     34 F           2.9316   -4.4699   19.0971 F       1  UNL1       -0.1664
@<TRIPOS>BOND
     1    11    12    1
     2    12    13   ar
     3    13    14   ar
     4    14     1    1
     5     1     2   ar
     6     2     3   ar
     7     3     4   ar
     8     4     5   ar
     9     4     6    1
    10     6     7    1
    11     7     8   am
    12     8     9    2
    13     8    18    1
    14    18    19   ar
    15    19    20   ar
    16    20    24    1
    17    24    25    1
    18    24    26    2
    19    24    27    2
    20    20    21   ar
    21    21    22   ar
    22    22    23   ar
    23    23    28    1
    24    28    29    1
    25    29    30    1
    26    29    31    1
    27    31    32    1
    28    31    33    1
    29    31    34    1
    30     7    10    1
    31    14    15   ar
    32    15    16   ar
    33    16    17   ar
    34    17    12   ar
    35     5     1   ar
    36    23    18   ar
    37    10     3    1
@<TRIPOS>MOLECULE
*****
 34 37 0 0 0
SMALL
GASTEIGER

@<TRIPOS>ATOM
      1 N           1.6856    0.7395   19.4678 N.ar    1  UNL1       -0.2286
      2 C           1.0450    1.8920   18.7526 C.ar    1  UNL1        0.0990
      3 C           0.1025    2.5635   19.7069 C.ar    1  UNL1        0.0338
      4 C           0.1605    1.8261   21.0118 C.ar    1  UNL1        0.0981
      5 N           1.1389    0.6988   20.8640 N.ar    1  UNL1       -0.1680
      6 C          -0.7821    2.4976   21.9661 C.3     1  UNL1        0.1414
      7 N          -1.4227    3.6502   21.2509 N.am    1  UNL1       -0.2660
      8 C          -2.4325    4.5958   21.8303 C.2     1  UNL1        0.2525
      9 O          -2.9878    5.7074   20.9899 O.2     1  UNL1       -0.2698
     10 C          -0.8760    3.6909   19.8547 C.3     1  UNL1        0.1236
     11 C           4.0903   -3.8663   19.5274 C.3     1  UNL1        0.0521
     12 C           3.8979   -2.5092   18.9183 C.ar    1  UNL1        0.0609
     13 C           2.8880   -1.5634   19.4976 C.ar    1  UNL1        0.0339
     14 C           2.6955   -0.2062   18.8884 C.ar    1  UNL1        0.0855
     15 C           3.5129    0.2052   17.7000 C.ar    1  UNL1        0.0398
     16 C           4.5229   -0.7406   17.1207 C.ar    1  UNL1        0.1000
     17 N           4.7153   -2.0978   17.7298 N.ar    1  UNL1       -0.2480
     18 C          -2.8873    4.4301   23.2500 C.ar    1  UNL1        0.0888
     19 C          -2.0510    4.9681   24.3730 C.ar    1  UNL1        0.0259
     20 C          -2.5057    4.8023   25.7929 C.ar    1  UNL1        0.1061
     21 C          -3.7966    4.0986   26.0897 C.ar    1  UNL1        0.0215
     22 C          -4.6330    3.5606   24.9666 C.ar    1  UNL1        0.0384
     23 C          -4.1783    3.7263   23.5469 C.ar    1  UNL1        0.1432
     24 S          -1.6693    5.3403   26.9158 S.O2    1  UNL1        0.0105
     25 C          -0.8328    5.8783   28.0387 C.3     1  UNL1        0.1816
     26 O          -0.4259    4.9064   26.1976 O.2     1  UNL1       -0.1686
     27 O          -2.9126    5.7743   27.6341 O.2     1  UNL1       -0.1686
     28 O          -5.0146    3.1884   22.4239 O.3     1  UNL1       -0.4702
     29 C          -6.0049    4.0784   21.7332 C.3     1  UNL1        0.2599
     30 C          -6.0952    4.0800   20.2359 C.3     1  UNL1        0.0566
     31 C          -6.9048    4.9670   22.5397 C.3     1  UNL1        0.4340
     32 F          -7.8048    5.8554   23.3463 F       1  UNL1       -0.1664
     33 F          -6.0838    6.1581   22.1436 F       1  UNL1       -0.1664
     34 F          -7.7259    3.7757   22.9359 F       1  UNL1       -0.1664
@<TRIPOS>BOND
     1    11    12    1
     2    12    13   ar
     3    13    14   ar
     4    14     1    1
     5     1     2   ar
     6     2     3   ar
     7     3     4   ar
     8     4     5   ar
     9     4     6    1
    10     6     7    1
    11     7     8   am
    12     8     9    2
    13     8    18    1
    14    18    19   ar
    15    19    20   ar
    16    20    24    1
    17    24    25    1
    18    24    26    2
    19    24    27    2
    20    20    21   ar
    21    21    22   ar
    22    22    23   ar
    23    23    28    1
    24    28    29    1
    25    29    30    1
    26    29    31    1
    27    31    32    1
    28    31    33    1
    29    31    34    1
    30     7    10    1
    31    14    15   ar
    32    15    16   ar
    33    16    17   ar
    34    17    12   ar
    35     5     1   ar
    36    23    18   ar
    37    10     3    1
@<TRIPOS>MOLECULE
*****
 34 37 0 0 0
SMALL
GASTEIGER

@<TRIPOS>ATOM
      1 N           5.3513   -1.7277   26.4937 N.ar    1  UNL1       -0.2286
      2 C           3.9364   -1.2678   26.3025 C.ar    1  UNL1        0.0990
      3 C           3.7456   -0.9471   24.8497 C.ar    1  UNL1        0.0338
      4 C           5.0425   -1.2089   24.1429 C.ar    1  UNL1        0.0981
      5 N           6.0349   -1.6914   25.1590 N.ar    1  UNL1       -0.1680
      6 C           4.8517   -0.8883   22.6901 C.3     1  UNL1        0.1414
      7 N           3.4367   -0.4283   22.4989 N.am    1  UNL1       -0.2660
      8 C           2.8147   -0.0061   21.2009 C.2     1  UNL1        0.2525
      9 O           1.3804    0.4318   21.1639 O.2     1  UNL1       -0.2698
     10 C           2.7532   -0.4647   23.8336 C.3     1  UNL1        0.1236
     11 C           6.9000   -5.4875   29.7287 C.3     1  UNL1        0.0521
     12 C           6.7477   -4.0299   29.4092 C.ar    1  UNL1        0.0609
     13 C           6.1256   -3.6076   28.1112 C.ar    1  UNL1        0.0339
     14 C           5.9733   -2.1500   27.7916 C.ar    1  UNL1        0.0855
     15 C           6.4432   -1.1146   28.7700 C.ar    1  UNL1        0.0398
     16 C           7.0652   -1.5369   30.0680 C.ar    1  UNL1        0.1000
     17 N           7.2175   -2.9945   30.3876 N.ar    1  UNL1       -0.2480
     18 C           3.6268   -0.0217   19.9399 C.ar    1  UNL1        0.0888
     19 C           4.2055    1.2545   19.4047 C.ar    1  UNL1        0.0259
     20 C           5.0176    1.2390   18.1436 C.ar    1  UNL1        0.1061
     21 C           5.2511   -0.0527   17.4178 C.ar    1  UNL1        0.0215
     22 C           4.6724   -1.3290   17.9530 C.ar    1  UNL1        0.0384
     23 C           3.8603   -1.3134   19.2140 C.ar    1  UNL1        0.1432
     24 S           5.5962    2.5152   17.6085 S.O2    1  UNL1        0.0105
     25 C           6.1747    3.7916   17.0734 C.3     1  UNL1        0.1816
     26 O           4.3150    3.2285   17.9245 O.2     1  UNL1       -0.1686
     27 O           6.8774    1.8021   17.2925 O.2     1  UNL1       -0.1686
     28 O           3.2817   -2.5896   19.7492 O.3     1  UNL1       -0.4702
     29 C           4.1531   -3.8005   19.9061 C.3     1  UNL1        0.2599
     30 C           3.9707   -4.9787   18.9960 C.3     1  UNL1        0.0566
     31 C           5.2068   -3.8330   20.9732 C.3     1  UNL1        0.4340
     32 F           6.2604   -3.8656   22.0403 F       1  UNL1       -0.1664
     33 F           6.2636   -3.5894   19.9370 F       1  UNL1       -0.1664
     34 F           4.1499   -4.0766   22.0094 F       1  UNL1       -0.1664
@<TRIPOS>BOND
     1    11    12    1
     2    12    13   ar
     3    13    14   ar
     4    14     1    1
     5     1     2   ar
     6     2     3   ar
     7     3     4   ar
     8     4     5   ar
     9     4     6    1
    10     6     7    1
    11     7     8   am
    12     8     9    2
    13     8    18    1
    14    18    19   ar
    15    19    20   ar
    16    20    24    1
    17    24    25    1
    18    24    26    2
    19    24    27    2
    20    20    21   ar
    21    21    22   ar
    22    22    23   ar
    23    23    28    1
    24    28    29    1
    25    29    30    1
    26    29    31    1
    27    31    32    1
    28    31    33    1
    29    31    34    1
    30     7    10    1
    31    14    15   ar
    32    15    16   ar
    33    16    17   ar
    34    17    12   ar
    35     5     1   ar
    36    23    18   ar
    37    10     3    1
