@<TRIPOS>MOLECULE
*****
 26 29 0 0 0
SMALL
GASTEIGER

@<TRIPOS>ATOM
      1 C          -6.8817  -20.2325   20.9986 C.ar    1  UNL1        0.1385
      2 C          -7.2644  -20.5833   22.4059 C.ar    1  UNL1        0.0384
      3 C          -8.5403  -20.0538   22.9903 C.ar    1  UNL1        0.0203
      4 C          -9.4335  -19.1734   22.1674 C.ar    1  UNL1        0.0602
      5 C          -9.0508  -18.8226   20.7601 C.ar    1  UNL1        0.0204
      6 C          -7.7749  -19.3522   20.1758 C.ar    1  UNL1        0.0384
      7 C         -10.1236  -17.9400   20.1944 C.ar    1  UNL1        0.0233
      8 C         -11.1694  -17.7453   21.2520 C.ar    1  UNL1        0.1140
      9 N         -10.7429  -18.5076   22.4714 N.ar    1  UNL1       -0.3238
     10 C         -11.6019  -18.4970   23.7010 C.3     1  UNL1        0.1052
     11 C         -11.1754  -19.2592   24.9204 C.3     1  UNL1        0.0263
     12 C         -12.8874  -17.7241   23.7112 C.3     1  UNL1        0.1122
     13 N         -13.3138  -16.9618   22.4917 N.am    1  UNL1       -0.2978
     14 C         -12.4548  -16.9724   21.2621 C.2     1  UNL1        0.2618
     15 O         -12.8814  -16.2101   20.0426 O.2     1  UNL1       -0.2686
     16 H         -14.1576  -16.4545   22.4984 H       1  UNL1        0.1498
     17 O          -5.6057  -20.7621   20.4142 O.3     1  UNL1       -0.4791
     18 N          -1.9059  -18.2007   20.3957 N.3     1  UNL1       -0.2737
     19 C          -2.1326  -19.1829   21.5065 C.3     1  UNL1        0.0758
     20 C          -3.3659  -20.0367   21.5127 C.3     1  UNL1        0.0609
     21 C          -4.3725  -19.9083   20.4080 C.3     1  UNL1        0.1687
     22 C          -4.1458  -18.9260   19.2972 C.3     1  UNL1        0.0609
     23 C          -2.9125  -18.0723   19.2911 C.3     1  UNL1        0.0758
     24 C          -0.7266  -15.9475   20.9271 C.3     1  UNL1        0.0173
     25 C          -0.6727  -17.3469   20.3896 C.3     1  UNL1        0.0576
     26 C           0.6146  -17.8924   19.8460 C.3     1  UNL1        0.0173
@<TRIPOS>BOND
     1    24    25    1
     2    25    26    1
     3    25    18    1
     4    18    19    1
     5    19    20    1
     6    20    21    1
     7    21    17    1
     8    17     1    1
     9     1     2   ar
    10     2     3   ar
    11     3     4   ar
    12     4     5   ar
    13     5     6   ar
    14     5     7   ar
    15     7     8   ar
    16     8     9   ar
    17     9    10    1
    18    10    11    1
    19    10    12    1
    20    12    13    1
    21    13    14   am
    22    14    15    2
    23    21    22    1
    24    22    23    1
    25    23    18    1
    26     6     1   ar
    27    14     8    1
    28     9     4   ar
    29    13    16    1
@<TRIPOS>MOLECULE
*****
 26 29 0 0 0
SMALL
GASTEIGER

@<TRIPOS>ATOM
      1 C          -6.7687  -20.2350   21.0438 C.ar    1  UNL1        0.1385
      2 C          -7.3864  -19.5072   19.8868 C.ar    1  UNL1        0.0384
      3 C          -8.7348  -18.8674   20.0369 C.ar    1  UNL1        0.0203
      4 C          -9.4654  -18.9554   21.3440 C.ar    1  UNL1        0.0602
      5 C          -8.8476  -19.6832   22.5010 C.ar    1  UNL1        0.0204
      6 C          -7.4993  -20.3230   22.3509 C.ar    1  UNL1        0.0384
      7 C          -9.7983  -19.6051   23.6586 C.ar    1  UNL1        0.0233
      8 C         -11.0036  -18.8290   23.2170 C.ar    1  UNL1        0.1140
      9 N         -10.7979  -18.4275   21.7865 N.ar    1  UNL1       -0.3238
     10 C         -11.8504  -17.6330   21.0717 C.3     1  UNL1        0.1052
     11 C         -11.6446  -17.2315   19.6412 C.3     1  UNL1        0.0263
     12 C         -13.1087  -17.2401   21.7874 C.3     1  UNL1        0.1122
     13 N         -13.3144  -17.6416   23.2180 N.am    1  UNL1       -0.2978
     14 C         -12.2619  -18.4361   23.9328 C.2     1  UNL1        0.2618
     15 O         -12.4677  -18.8377   25.3634 O.2     1  UNL1       -0.2686
     16 H         -14.1403  -17.3837   23.6877 H       1  UNL1        0.1498
     17 O          -5.4203  -20.8749   20.8938 O.3     1  UNL1       -0.4791
     18 N          -1.7419  -18.3100   20.5186 N.3     1  UNL1       -0.2737
     19 C          -2.5264  -18.6797   19.2948 C.3     1  UNL1        0.0758
     20 C          -3.7526  -19.5347   19.4198 C.3     1  UNL1        0.0609
     21 C          -4.1942  -20.0199   20.7687 C.3     1  UNL1        0.1687
     22 C          -3.4096  -19.6502   21.9926 C.3     1  UNL1        0.0609
     23 C          -2.1835  -18.7953   21.8675 C.3     1  UNL1        0.0758
     24 C           0.7659  -18.0507   19.8911 C.3     1  UNL1        0.0173
     25 C          -0.5158  -17.4551   20.3936 C.3     1  UNL1        0.0576
     26 C          -0.5713  -16.0043   20.7711 C.3     1  UNL1        0.0173
@<TRIPOS>BOND
     1    24    25    1
     2    25    26    1
     3    25    18    1
     4    18    19    1
     5    19    20    1
     6    20    21    1
     7    21    17    1
     8    17     1    1
     9     1     2   ar
    10     2     3   ar
    11     3     4   ar
    12     4     5   ar
    13     5     6   ar
    14     5     7   ar
    15     7     8   ar
    16     8     9   ar
    17     9    10    1
    18    10    11    1
    19    10    12    1
    20    12    13    1
    21    13    14   am
    22    14    15    2
    23    21    22    1
    24    22    23    1
    25    23    18    1
    26     6     1   ar
    27    14     8    1
    28     9     4   ar
    29    13    16    1
@<TRIPOS>MOLECULE
*****
 26 29 0 0 0
SMALL
GASTEIGER

@<TRIPOS>ATOM
      1 C           7.9711   -3.8045   25.6001 C.ar    1  UNL1        0.1385
      2 C           7.4685   -2.4778   26.0870 C.ar    1  UNL1        0.0384
      3 C           7.0335   -2.3183   27.5136 C.ar    1  UNL1        0.0203
      4 C           7.1011   -3.4855   28.4533 C.ar    1  UNL1        0.0602
      5 C           7.6037   -4.8122   27.9664 C.ar    1  UNL1        0.0204
      6 C           8.0387   -4.9718   26.5398 C.ar    1  UNL1        0.0384
      7 C           7.5572   -5.7755   29.1152 C.ar    1  UNL1        0.0233
      8 C           7.0258   -5.0441   30.3122 C.ar    1  UNL1        0.1140
      9 N           6.7439   -3.6288   29.9031 N.ar    1  UNL1       -0.3238
     10 C           6.1985   -2.6534   30.9036 C.3     1  UNL1        0.1052
     11 C           5.9166   -1.2381   30.4945 C.3     1  UNL1        0.0263
     12 C           5.9349   -3.0933   32.3132 C.3     1  UNL1        0.1122
     13 N           6.2168   -4.5086   32.7223 N.am    1  UNL1       -0.2978
     14 C           6.7623   -5.4841   31.7218 C.2     1  UNL1        0.2618
     15 O           7.0442   -6.8995   32.1309 O.2     1  UNL1       -0.2686
     16 H           6.0439   -4.7974   33.6475 H       1  UNL1        0.1498
     17 O           8.4062   -3.9641   24.1734 O.3     1  UNL1       -0.4791
     18 N           5.3501   -3.9196   20.8706 N.3     1  UNL1       -0.2737
     19 C           4.9071   -3.8741   22.3030 C.3     1  UNL1        0.0758
     20 C           5.9259   -3.8889   23.4040 C.3     1  UNL1        0.0609
     21 C           7.3875   -3.9493   23.0725 C.3     1  UNL1        0.1687
     22 C           7.8305   -3.9948   21.6401 C.3     1  UNL1        0.0609
     23 C           6.8118   -3.9799   20.5392 C.3     1  UNL1        0.0758
     24 C           4.2117   -5.0781   18.8429 C.3     1  UNL1        0.0173
     25 C           4.3314   -3.9048   19.7698 C.3     1  UNL1        0.0576
     26 C           3.4325   -2.7166   19.5957 C.3     1  UNL1        0.0173
@<TRIPOS>BOND
     1    24    25    1
     2    25    26    1
     3    25    18    1
     4    18    19    1
     5    19    20    1
     6    20    21    1
     7    21    17    1
     8    17     1    1
     9     1     2   ar
    10     2     3   ar
    11     3     4   ar
    12     4     5   ar
    13     5     6   ar
    14     5     7   ar
    15     7     8   ar
    16     8     9   ar
    17     9    10    1
    18    10    11    1
    19    10    12    1
    20    12    13    1
    21    13    14   am
    22    14    15    2
    23    21    22    1
    24    22    23    1
    25    23    18    1
    26     6     1   ar
    27    14     8    1
    28     9     4   ar
    29    13    16    1
@<TRIPOS>MOLECULE
*****
 26 29 0 0 0
SMALL
GASTEIGER

@<TRIPOS>ATOM
      1 C           7.3267   -3.3266   21.3836 C.ar    1  UNL1        0.1385
      2 C           8.2566   -4.4862   21.1821 C.ar    1  UNL1        0.0384
      3 C           8.5104   -5.4479   22.3048 C.ar    1  UNL1        0.0203
      4 C           7.8344   -5.2500   23.6292 C.ar    1  UNL1        0.0602
      5 C           6.9045   -4.0904   23.8307 C.ar    1  UNL1        0.0204
      6 C           6.6507   -3.1287   22.7079 C.ar    1  UNL1        0.0384
      7 C           6.3854   -4.1515   25.2367 C.ar    1  UNL1        0.0233
      8 C           6.9944   -5.3489   25.9041 C.ar    1  UNL1        0.1140
      9 N           7.8899   -6.0278   24.9106 N.ar    1  UNL1       -0.3238
     10 C           8.6403   -7.2665   25.3011 C.3     1  UNL1        0.1052
     11 C           9.5358   -7.9454   24.3077 C.3     1  UNL1        0.0263
     12 C           8.4951   -7.8263   26.6851 C.3     1  UNL1        0.1122
     13 N           7.5995   -7.1473   27.6786 N.am    1  UNL1       -0.2978
     14 C           6.8491   -5.9086   27.2881 C.2     1  UNL1        0.2618
     15 O           5.9535   -5.2297   28.2816 O.2     1  UNL1       -0.2686
     16 H           7.5042   -7.5147   28.5870 H       1  UNL1        0.1498
     17 O           7.0728   -2.3648   20.2608 O.3     1  UNL1       -0.4791
     18 N           2.9730   -0.5982   19.6951 N.3     1  UNL1       -0.2737
     19 C           4.1430    0.2970   19.9774 C.3     1  UNL1        0.0758
     20 C           5.5096   -0.2918   20.1659 C.3     1  UNL1        0.0609
     21 C           5.7063   -1.7760   20.0722 C.3     1  UNL1        0.1687
     22 C           4.5362   -2.6712   19.7900 C.3     1  UNL1        0.0609
     23 C           3.1696   -2.0823   19.6014 C.3     1  UNL1        0.0758
     24 C           0.5474   -0.2232   20.5472 C.3     1  UNL1        0.0173
     25 C           1.6064   -0.0093   19.5066 C.3     1  UNL1        0.0576
     26 C           1.2987    0.7936   18.2774 C.3     1  UNL1        0.0173
@<TRIPOS>BOND
     1    24    25    1
     2    25    26    1
     3    25    18    1
     4    18    19    1
     5    19    20    1
     6    20    21    1
     7    21    17    1
     8    17     1    1
     9     1     2   ar
    10     2     3   ar
    11     3     4   ar
    12     4     5   ar
    13     5     6   ar
    14     5     7   ar
    15     7     8   ar
    16     8     9   ar
    17     9    10    1
    18    10    11    1
    19    10    12    1
    20    12    13    1
    21    13    14   am
    22    14    15    2
    23    21    22    1
    24    22    23    1
    25    23    18    1
    26     6     1   ar
    27    14     8    1
    28     9     4   ar
    29    13    16    1
@<TRIPOS>MOLECULE
*****
 26 29 0 0 0
SMALL
GASTEIGER

@<TRIPOS>ATOM
      1 C           0.6599    1.9081   19.3868 C.ar    1  UNL1        0.1385
      2 C           0.4269    0.5102   19.8782 C.ar    1  UNL1        0.0384
      3 C           1.4928   -0.5316   19.7092 C.ar    1  UNL1        0.0203
      4 C           2.7917   -0.1754   19.0488 C.ar    1  UNL1        0.0602
      5 C           3.0246    1.2225   18.5574 C.ar    1  UNL1        0.0204
      6 C           1.9588    2.2643   18.7264 C.ar    1  UNL1        0.0384
      7 C           4.3951    1.2780   17.9501 C.ar    1  UNL1        0.0233
      8 C           5.0091   -0.0857   18.0662 C.ar    1  UNL1        0.1140
      9 N           4.0182   -0.9839   18.7452 N.ar    1  UNL1       -0.3238
     10 C           4.3606   -2.4220   18.9994 C.3     1  UNL1        0.1052
     11 C           3.3697   -3.3202   19.6784 C.3     1  UNL1        0.0263
     12 C           5.6940   -2.9618   18.5745 C.3     1  UNL1        0.1122
     13 N           6.6850   -2.0635   17.8955 N.am    1  UNL1       -0.2978
     14 C           6.3425   -0.6254   17.6413 C.2     1  UNL1        0.2618
     15 O           7.3335    0.2729   16.9623 O.2     1  UNL1       -0.2686
     16 H           7.5602   -2.4178   17.6166 H       1  UNL1        0.1498
     17 O          -0.4060    2.9499   19.5558 O.3     1  UNL1       -0.4791
     18 N          -2.3713    3.5290   23.5623 N.3     1  UNL1       -0.2737
     19 C          -3.1922    3.5900   22.3085 C.3     1  UNL1        0.0758
     20 C          -2.5372    3.3970   20.9729 C.3     1  UNL1        0.0609
     21 C          -1.0611    3.1430   20.8913 C.3     1  UNL1        0.1687
     22 C          -0.2401    3.0819   22.1452 C.3     1  UNL1        0.0609
     23 C          -0.8952    3.2749   23.4807 C.3     1  UNL1        0.0758
     24 C          -4.5216    3.6878   25.0117 C.3     1  UNL1        0.0173
     25 C          -3.0263    3.7220   24.8978 C.3     1  UNL1        0.0576
     26 C          -2.1861    3.9492   26.1195 C.3     1  UNL1        0.0173
@<TRIPOS>BOND
     1    24    25    1
     2    25    26    1
     3    25    18    1
     4    18    19    1
     5    19    20    1
     6    20    21    1
     7    21    17    1
     8    17     1    1
     9     1     2   ar
    10     2     3   ar
    11     3     4   ar
    12     4     5   ar
    13     5     6   ar
    14     5     7   ar
    15     7     8   ar
    16     8     9   ar
    17     9    10    1
    18    10    11    1
    19    10    12    1
    20    12    13    1
    21    13    14   am
    22    14    15    2
    23    21    22    1
    24    22    23    1
    25    23    18    1
    26     6     1   ar
    27    14     8    1
    28     9     4   ar
    29    13    16    1
@<TRIPOS>MOLECULE
*****
 26 29 0 0 0
SMALL
GASTEIGER

@<TRIPOS>ATOM
      1 C          -0.7962    3.4075   20.1132 C.ar    1  UNL1        0.1385
      2 C          -1.9698    3.6495   19.2109 C.ar    1  UNL1        0.0384
      3 C          -3.3369    3.8477   19.7954 C.ar    1  UNL1        0.0203
      4 C          -3.5304    3.8038   21.2822 C.ar    1  UNL1        0.0602
      5 C          -2.3569    3.5618   22.1845 C.ar    1  UNL1        0.0204
      6 C          -0.9898    3.3636   21.6000 C.ar    1  UNL1        0.0384
      7 C          -2.8512    3.5717   23.6007 C.ar    1  UNL1        0.0233
      8 C          -4.3303    3.8199   23.5736 C.ar    1  UNL1        0.1140
      9 N          -4.7501    3.9633   22.1408 N.ar    1  UNL1       -0.3238
     10 C          -6.1887    4.2206   21.8029 C.3     1  UNL1        0.1052
     11 C          -6.6085    4.3641   20.3700 C.3     1  UNL1        0.0263
     12 C          -7.2075    4.3345   22.8979 C.3     1  UNL1        0.1122
     13 N          -6.7877    4.1911   24.3308 N.am    1  UNL1       -0.2978
     14 C          -5.3490    3.9338   24.6687 C.2     1  UNL1        0.2618
     15 O          -4.9292    3.7903   26.1016 O.2     1  UNL1       -0.2686
     16 H          -7.4563    4.2659   25.0495 H       1  UNL1        0.1498
     17 O           0.5710    3.2093   19.5287 O.3     1  UNL1       -0.4791
     18 N           2.7510   -0.6747   20.1704 N.3     1  UNL1       -0.2737
     19 C           3.5203    0.6087   20.0656 C.3     1  UNL1        0.0758
     20 C           2.7936    1.9034   19.8516 C.3     1  UNL1        0.0609
     21 C           1.2976    1.9147   19.7426 C.3     1  UNL1        0.1687
     22 C           0.5283    0.6312   19.8474 C.3     1  UNL1        0.0609
     23 C           1.2550   -0.6635   20.0613 C.3     1  UNL1        0.0758
     24 C           4.0724   -2.2829   21.7251 C.3     1  UNL1        0.0173
     25 C           3.4776   -1.9694   20.3843 C.3     1  UNL1        0.0576
     26 C           3.6095   -2.9505   19.2573 C.3     1  UNL1        0.0173
@<TRIPOS>BOND
     1    24    25    1
     2    25    26    1
     3    25    18    1
     4    18    19    1
     5    19    20    1
     6    20    21    1
     7    21    17    1
     8    17     1    1
     9     1     2   ar
    10     2     3   ar
    11     3     4   ar
    12     4     5   ar
    13     5     6   ar
    14     5     7   ar
    15     7     8   ar
    16     8     9   ar
    17     9    10    1
    18    10    11    1
    19    10    12    1
    20    12    13    1
    21    13    14   am
    22    14    15    2
    23    21    22    1
    24    22    23    1
    25    23    18    1
    26     6     1   ar
    27    14     8    1
    28     9     4   ar
    29    13    16    1
@<TRIPOS>MOLECULE
*****
 26 29 0 0 0
SMALL
GASTEIGER

@<TRIPOS>ATOM
      1 C           7.2658   -4.5873   22.7491 C.ar    1  UNL1        0.1385
      2 C           6.5255   -3.5155   23.4929 C.ar    1  UNL1        0.0384
      3 C           6.4514   -3.5564   24.9904 C.ar    1  UNL1        0.0203
      4 C           7.1175   -4.6691   25.7443 C.ar    1  UNL1        0.0602
      5 C           7.8578   -5.7409   25.0005 C.ar    1  UNL1        0.0204
      6 C           7.9319   -5.7000   23.5030 C.ar    1  UNL1        0.0384
      7 C           8.4116   -6.7054   26.0070 C.ar    1  UNL1        0.0233
      8 C           8.0136   -6.2298   27.3727 C.ar    1  UNL1        0.1140
      9 N           7.2138   -4.9712   27.2104 N.ar    1  UNL1       -0.3238
     10 C           6.6765   -4.2630   28.4185 C.3     1  UNL1        0.1052
     11 C           5.8767   -3.0044   28.2562 C.3     1  UNL1        0.0263
     12 C           6.9390   -4.8132   29.7890 C.3     1  UNL1        0.1122
     13 N           7.7388   -6.0718   29.9514 N.am    1  UNL1       -0.2978
     14 C           8.2761   -6.7801   28.7432 C.2     1  UNL1        0.2618
     15 O           9.0759   -8.0387   28.9055 O.2     1  UNL1       -0.2686
     16 H           7.9111   -6.4329   30.8509 H       1  UNL1        0.1498
     17 O           7.3400   -4.5465   21.2515 O.3     1  UNL1       -0.4791
     18 N           4.5966   -1.8332   18.9359 N.3     1  UNL1       -0.2737
     19 C           4.0930   -3.1509   19.4460 C.3     1  UNL1        0.0758
     20 C           5.0075   -4.0553   20.2179 C.3     1  UNL1        0.0609
     21 C           6.4255   -3.6421   20.4796 C.3     1  UNL1        0.1687
     22 C           6.9290   -2.3244   19.9694 C.3     1  UNL1        0.0609
     23 C           6.0146   -1.4200   19.1976 C.3     1  UNL1        0.0758
     24 C           2.6450   -0.1190   18.8842 C.3     1  UNL1        0.0173
     25 C           3.6821   -0.9289   18.1641 C.3     1  UNL1        0.0576
     26 C           3.8047   -0.8343   16.6720 C.3     1  UNL1        0.0173
@<TRIPOS>BOND
     1    24    25    1
     2    25    26    1
     3    25    18    1
     4    18    19    1
     5    19    20    1
     6    20    21    1
     7    21    17    1
     8    17     1    1
     9     1     2   ar
    10     2     3   ar
    11     3     4   ar
    12     4     5   ar
    13     5     6   ar
    14     5     7   ar
    15     7     8   ar
    16     8     9   ar
    17     9    10    1
    18    10    11    1
    19    10    12    1
    20    12    13    1
    21    13    14   am
    22    14    15    2
    23    21    22    1
    24    22    23    1
    25    23    18    1
    26     6     1   ar
    27    14     8    1
    28     9     4   ar
    29    13    16    1
@<TRIPOS>MOLECULE
*****
 26 29 0 0 0
SMALL
GASTEIGER

@<TRIPOS>ATOM
      1 C           2.3299    1.5460   23.0665 C.ar    1  UNL1        0.1385
      2 C           2.7371    0.2657   23.7334 C.ar    1  UNL1        0.0384
      3 C           3.2527   -0.8776   22.9106 C.ar    1  UNL1        0.0203
      4 C           3.3610   -0.7405   21.4208 C.ar    1  UNL1        0.0602
      5 C           2.9537    0.5399   20.7539 C.ar    1  UNL1        0.0204
      6 C           2.4382    1.6831   21.5767 C.ar    1  UNL1        0.0384
      7 C           3.1705    0.3830   19.2779 C.ar    1  UNL1        0.0233
      8 C           3.7116   -0.9943   19.0326 C.ar    1  UNL1        0.1140
      9 N           3.8294   -1.6887   20.3570 N.ar    1  UNL1       -0.3238
     10 C           4.3479   -3.0946   20.4232 C.3     1  UNL1        0.1052
     11 C           4.4656   -3.7890   21.7475 C.3     1  UNL1        0.0263
     12 C           4.7486   -3.8062   19.1650 C.3     1  UNL1        0.1122
     13 N           4.6309   -3.1118   17.8407 N.am    1  UNL1       -0.2978
     14 C           4.1124   -1.7058   17.7745 C.2     1  UNL1        0.2618
     15 O           3.9946   -1.0114   16.4500 O.2     1  UNL1       -0.2686
     16 H           4.8939   -3.5789   17.0149 H       1  UNL1        0.1498
     17 O           1.8144    2.6894   23.8894 O.3     1  UNL1       -0.4791
     18 N          -2.6184    3.3412   24.3080 N.3     1  UNL1       -0.2737
     19 C          -1.8219    2.8329   25.4729 C.3     1  UNL1        0.0758
     20 C          -0.3442    2.6156   25.3334 C.3     1  UNL1        0.0609
     21 C           0.3368    2.9067   24.0289 C.3     1  UNL1        0.1687
     22 C          -0.4599    3.4150   22.8640 C.3     1  UNL1        0.0609
     23 C          -1.9375    3.6323   23.0036 C.3     1  UNL1        0.0758
     24 C          -4.6641    4.0357   25.7513 C.3     1  UNL1        0.0173
     25 C          -4.0960    3.5585   24.4476 C.3     1  UNL1        0.0576
     26 C          -5.0056    3.2986   23.2834 C.3     1  UNL1        0.0173
@<TRIPOS>BOND
     1    24    25    1
     2    25    26    1
     3    25    18    1
     4    18    19    1
     5    19    20    1
     6    20    21    1
     7    21    17    1
     8    17     1    1
     9     1     2   ar
    10     2     3   ar
    11     3     4   ar
    12     4     5   ar
    13     5     6   ar
    14     5     7   ar
    15     7     8   ar
    16     8     9   ar
    17     9    10    1
    18    10    11    1
    19    10    12    1
    20    12    13    1
    21    13    14   am
    22    14    15    2
    23    21    22    1
    24    22    23    1
    25    23    18    1
    26     6     1   ar
    27    14     8    1
    28     9     4   ar
    29    13    16    1
@<TRIPOS>MOLECULE
*****
 26 29 0 0 0
SMALL
GASTEIGER

@<TRIPOS>ATOM
      1 C          -6.9346  -19.9403   21.0793 C.ar    1  UNL1        0.1385
      2 C          -6.3015  -19.5339   22.3769 C.ar    1  UNL1        0.0384
      3 C          -4.9222  -18.9443   22.3861 C.ar    1  UNL1        0.0203
      4 C          -4.1762  -18.7612   21.0978 C.ar    1  UNL1        0.0602
      5 C          -4.8094  -19.1676   19.8002 C.ar    1  UNL1        0.0204
      6 C          -6.1886  -19.7572   19.7909 C.ar    1  UNL1        0.0384
      7 C          -3.8380  -18.8689   18.6969 C.ar    1  UNL1        0.0233
      8 C          -2.6045  -18.2779   19.3126 C.ar    1  UNL1        0.1140
      9 N          -2.8135  -18.2112   20.7965 N.ar    1  UNL1       -0.3238
     10 C          -1.7360  -17.6585   21.6815 C.3     1  UNL1        0.1052
     11 C          -1.9450  -17.5919   23.1654 C.3     1  UNL1        0.0263
     12 C          -0.4495  -17.1723   21.0828 C.3     1  UNL1        0.1122
     13 N          -0.2406  -17.2390   19.5989 N.am    1  UNL1       -0.2978
     14 C          -1.3181  -17.7917   18.7138 C.2     1  UNL1        0.2618
     15 O          -1.1091  -17.8583   17.2299 O.2     1  UNL1       -0.2686
     16 H           0.6038  -16.9199   19.2059 H       1  UNL1        0.1498
     17 O          -8.3139  -20.5299   21.0700 O.3     1  UNL1       -0.4791
     18 N         -11.7967  -18.1312   22.6083 N.3     1  UNL1       -0.2737
     19 C         -11.1183  -19.1265   23.5023 C.3     1  UNL1        0.0758
     20 C          -9.9573  -19.9261   22.9895 C.3     1  UNL1        0.0609
     21 C          -9.4748  -19.7304   21.5828 C.3     1  UNL1        0.1687
     22 C         -10.1533  -18.7350   20.6888 C.3     1  UNL1        0.0609
     23 C         -11.3142  -17.9355   21.2016 C.3     1  UNL1        0.0758
     24 C         -13.9520  -17.9638   24.0493 C.3     1  UNL1        0.0173
     25 C         -12.9576  -17.3317   23.1211 C.3     1  UNL1        0.0576
     26 C         -13.1241  -15.8999   22.7057 C.3     1  UNL1        0.0173
@<TRIPOS>BOND
     1    24    25    1
     2    25    26    1
     3    25    18    1
     4    18    19    1
     5    19    20    1
     6    20    21    1
     7    21    17    1
     8    17     1    1
     9     1     2   ar
    10     2     3   ar
    11     3     4   ar
    12     4     5   ar
    13     5     6   ar
    14     5     7   ar
    15     7     8   ar
    16     8     9   ar
    17     9    10    1
    18    10    11    1
    19    10    12    1
    20    12    13    1
    21    13    14   am
    22    14    15    2
    23    21    22    1
    24    22    23    1
    25    23    18    1
    26     6     1   ar
    27    14     8    1
    28     9     4   ar
    29    13    16    1
