@<TRIPOS>MOLECULE
*****
 27 30 0 0 0
SMALL
GASTEIGER

@<TRIPOS>ATOM
      1 N          -6.6128  -16.4138   23.7650 N.ar    1  UNL1       -0.2954
      2 C          -5.1224  -16.4352   23.9329 C.ar    1  UNL1        0.2014
      3 N          -4.8066  -15.9834   25.3279 N.ar    1  UNL1       -0.2136
      4 C          -6.1019  -15.6827   26.0222 C.ar    1  UNL1        0.0999
      5 C          -6.4090  -15.2011   27.4091 C.ar    1  UNL1        0.0207
      6 C          -7.8325  -14.9855   27.8301 C.ar    1  UNL1        0.0016
      7 C          -8.9488  -15.2515   26.8641 C.ar    1  UNL1        0.0016
      8 C          -8.6416  -15.7331   25.4772 C.ar    1  UNL1        0.0188
      9 C          -7.2182  -15.9487   25.0562 C.ar    1  UNL1        0.0801
     10 N          -4.1232  -16.8377   22.8891 N.pl3   1  UNL1       -0.2794
     11 C          -4.1480  -18.2267   22.3233 C.3     1  UNL1        0.0949
     12 C          -3.1488  -18.6292   21.2794 C.3     1  UNL1        0.0375
     13 C          -2.1248  -17.6429   20.8014 C.3     1  UNL1        0.0610
     14 C          -2.1001  -16.2539   21.3673 C.3     1  UNL1        0.0375
     15 C          -3.0993  -15.8514   22.4111 C.3     1  UNL1        0.0949
     16 N          -1.1256  -18.0454   19.7576 N.3     1  UNL1       -0.2715
     17 C           0.2764  -18.3976   20.1578 C.3     1  UNL1        0.0896
     18 C          -1.5285  -18.0958   18.3136 C.3     1  UNL1        0.0896
     19 C          -7.3657  -16.7911   22.5237 C.3     1  UNL1        0.1354
     20 C         -11.7663  -17.7040   22.7512 C.ar    1  UNL1        0.1387
     21 C         -11.2981  -16.4156   22.1422 C.ar    1  UNL1        0.0366
     22 C          -9.8312  -16.1114   22.0664 C.ar    1  UNL1        0.0007
     23 C          -8.8325  -17.0954   22.5996 C.ar    1  UNL1        0.0007
     24 C          -9.3007  -18.3838   23.2086 C.ar    1  UNL1        0.0007
     25 C         -10.7676  -18.6880   23.2844 C.ar    1  UNL1        0.0366
     26 C         -13.9176  -18.0738   24.1603 C.3     1  UNL1        0.2525
     27 O         -13.2331  -18.0083   22.8271 O.3     1  UNL1       -0.4714
@<TRIPOS>BOND
     1    26    27    1
     2    27    20    1
     3    20    21   ar
     4    21    22   ar
     5    22    23   ar
     6    23    19    1
     7    19     1    1
     8     1     2   ar
     9     2    10    1
    10    10    11    1
    11    11    12    1
    12    12    13    1
    13    13    16    1
    14    16    17    1
    15    16    18    1
    16    13    14    1
    17    14    15    1
    18     2     3   ar
    19     3     4   ar
    20     4     5   ar
    21     5     6   ar
    22     6     7   ar
    23     7     8   ar
    24     8     9   ar
    25    23    24   ar
    26    24    25   ar
    27    25    20   ar
    28     9     1   ar
    29    15    10    1
    30     9     4   ar
@<TRIPOS>MOLECULE
*****
 27 30 0 0 0
SMALL
GASTEIGER

@<TRIPOS>ATOM
      1 N         -13.0640   -5.0439   18.0917 N.ar    1  UNL1       -0.2954
      2 C         -12.6766   -3.7573   18.7585 C.ar    1  UNL1        0.2014
      3 N         -11.2634   -3.8933   19.2425 N.ar    1  UNL1       -0.2136
      4 C         -10.7773   -5.2639   18.8748 C.ar    1  UNL1        0.0999
      5 C          -9.4652   -5.9563   19.0957 C.ar    1  UNL1        0.0207
      6 C          -9.2659   -7.3598   18.6054 C.ar    1  UNL1        0.0016
      7 C         -10.3788   -8.0709   17.8942 C.ar    1  UNL1        0.0016
      8 C         -11.6909   -7.3785   17.6732 C.ar    1  UNL1        0.0188
      9 C         -11.8902   -5.9750   18.1635 C.ar    1  UNL1        0.0801
     10 N         -13.5493   -2.5472   18.9140 N.pl3   1  UNL1       -0.2794
     11 C         -14.6718   -2.5549   19.9089 C.3     1  UNL1        0.0949
     12 C         -15.5444   -1.3448   20.0644 C.3     1  UNL1        0.0375
     13 C         -15.2945   -0.1270   19.2250 C.3     1  UNL1        0.0610
     14 C         -14.1720   -0.1193   18.2301 C.3     1  UNL1        0.0375
     15 C         -13.2994   -1.3294   18.0746 C.3     1  UNL1        0.0949
     16 N         -16.1672    1.0831   19.3805 N.3     1  UNL1       -0.2715
     17 C         -17.2145    1.1196   20.4536 C.3     1  UNL1        0.0896
     18 C         -15.9924    2.2567   18.4629 C.3     1  UNL1        0.0896
     19 C         -14.3920   -5.3463   17.4633 C.3     1  UNL1        0.1354
     20 C         -17.5597   -7.5013   19.8236 C.ar    1  UNL1        0.1387
     21 C         -16.2866   -8.2058   19.4592 C.ar    1  UNL1        0.0366
     22 C         -15.2307   -7.4874   18.6724 C.ar    1  UNL1        0.0007
     23 C         -15.4479   -6.0645   18.2500 C.ar    1  UNL1        0.0007
     24 C         -16.7211   -5.3601   18.6145 C.ar    1  UNL1        0.0007
     25 C         -17.7769   -6.0785   19.4012 C.ar    1  UNL1        0.0366
     26 C         -20.0362   -7.7394   20.5723 C.3     1  UNL1        0.2525
     27 O         -18.6156   -8.2197   20.6104 O.3     1  UNL1       -0.4714
@<TRIPOS>BOND
     1    26    27    1
     2    27    20    1
     3    20    21   ar
     4    21    22   ar
     5    22    23   ar
     6    23    19    1
     7    19     1    1
     8     1     2   ar
     9     2    10    1
    10    10    11    1
    11    11    12    1
    12    12    13    1
    13    13    16    1
    14    16    17    1
    15    16    18    1
    16    13    14    1
    17    14    15    1
    18     2     3   ar
    19     3     4   ar
    20     4     5   ar
    21     5     6   ar
    22     6     7   ar
    23     7     8   ar
    24     8     9   ar
    25    23    24   ar
    26    24    25   ar
    27    25    20   ar
    28     9     1   ar
    29    15    10    1
    30     9     4   ar
@<TRIPOS>MOLECULE
*****
 27 30 0 0 0
SMALL
GASTEIGER

@<TRIPOS>ATOM
      1 N         -13.0201   -4.2155   18.8924 N.ar    1  UNL1       -0.2954
      2 C         -13.7045   -2.9608   18.4372 C.ar    1  UNL1        0.2014
      3 N         -12.8066   -2.2749   17.4506 N.ar    1  UNL1       -0.2136
      4 C         -11.5672   -3.1057   17.2962 C.ar    1  UNL1        0.0999
      5 C         -10.3356   -2.9251   16.4593 C.ar    1  UNL1        0.0207
      6 C          -9.2360   -3.9438   16.5135 C.ar    1  UNL1        0.0016
      7 C          -9.3680   -5.1431   17.4046 C.ar    1  UNL1        0.0016
      8 C         -10.5996   -5.3238   18.2415 C.ar    1  UNL1        0.0188
      9 C         -11.6992   -4.3051   18.1873 C.ar    1  UNL1        0.0801
     10 N         -15.0505   -2.4769   18.8891 N.pl3   1  UNL1       -0.2794
     11 C         -16.2810   -3.2704   18.5632 C.3     1  UNL1        0.0949
     12 C         -17.6269   -2.7865   19.0151 C.3     1  UNL1        0.0375
     13 C         -17.7424   -1.5092   19.7929 C.3     1  UNL1        0.0610
     14 C         -16.5119   -0.7157   20.1188 C.3     1  UNL1        0.0375
     15 C         -15.1660   -1.1996   19.6669 C.3     1  UNL1        0.0949
     16 N         -19.0884   -1.0253   20.2448 N.3     1  UNL1       -0.2715
     17 C         -20.2442   -1.9789   20.3127 C.3     1  UNL1        0.0896
     18 C         -19.2785    0.4121   20.6288 C.3     1  UNL1        0.0896
     19 C         -13.5615   -5.2067   19.8796 C.3     1  UNL1        0.1354
     20 C         -15.7348   -8.8702   18.4285 C.ar    1  UNL1        0.1387
     21 C         -16.4733   -7.8158   19.1985 C.ar    1  UNL1        0.0366
     22 C         -15.7489   -6.5946   19.6822 C.ar    1  UNL1        0.0007
     23 C         -14.2859   -6.4278   19.3959 C.ar    1  UNL1        0.0007
     24 C         -13.5474   -7.4822   18.6259 C.ar    1  UNL1        0.0007
     25 C         -14.2718   -8.7034   18.1423 C.ar    1  UNL1        0.0366
     26 C         -17.9209  -10.2610   18.2364 C.3     1  UNL1        0.2525
     27 O         -16.4592  -10.0913   17.9449 O.3     1  UNL1       -0.4714
@<TRIPOS>BOND
     1    26    27    1
     2    27    20    1
     3    20    21   ar
     4    21    22   ar
     5    22    23   ar
     6    23    19    1
     7    19     1    1
     8     1     2   ar
     9     2    10    1
    10    10    11    1
    11    11    12    1
    12    12    13    1
    13    13    16    1
    14    16    17    1
    15    16    18    1
    16    13    14    1
    17    14    15    1
    18     2     3   ar
    19     3     4   ar
    20     4     5   ar
    21     5     6   ar
    22     6     7   ar
    23     7     8   ar
    24     8     9   ar
    25    23    24   ar
    26    24    25   ar
    27    25    20   ar
    28     9     1   ar
    29    15    10    1
    30     9     4   ar
@<TRIPOS>MOLECULE
*****
 27 30 0 0 0
SMALL
GASTEIGER

@<TRIPOS>ATOM
      1 N         -15.8080   -6.9070   17.9268 N.ar    1  UNL1       -0.2954
      2 C         -15.9041   -5.6373   18.7196 C.ar    1  UNL1        0.2014
      3 N         -17.0246   -5.7899   19.7050 N.ar    1  UNL1       -0.2136
      4 C         -17.6210   -7.1539   19.5213 C.ar    1  UNL1        0.0999
      5 C         -18.7516   -7.8564   20.2128 C.ar    1  UNL1        0.0207
      6 C         -19.1303   -9.2494   19.8052 C.ar    1  UNL1        0.0016
      7 C         -18.3784   -9.9398   18.7061 C.ar    1  UNL1        0.0016
      8 C         -17.2478   -9.2373   18.0147 C.ar    1  UNL1        0.0188
      9 C         -16.8691   -7.8443   18.4223 C.ar    1  UNL1        0.0801
     10 N         -15.0327   -4.4274   18.5557 N.pl3   1  UNL1       -0.2794
     11 C         -15.3537   -3.4091   17.5022 C.3     1  UNL1        0.0949
     12 C         -14.4822   -2.1992   17.3383 C.3     1  UNL1        0.0375
     13 C         -13.2898   -2.0077   18.2279 C.3     1  UNL1        0.0610
     14 C         -12.9688   -3.0261   19.2814 C.3     1  UNL1        0.0375
     15 C         -13.8402   -4.2359   19.4453 C.3     1  UNL1        0.0949
     16 N         -12.4184   -0.7979   18.0640 N.3     1  UNL1       -0.2715
     17 C         -12.9887    0.5723   18.2816 C.3     1  UNL1        0.0896
     18 C         -10.9766   -0.9581   17.6824 C.3     1  UNL1        0.0896
     19 C         -14.8236   -7.1898   16.8309 C.3     1  UNL1        0.1354
     20 C         -10.6464   -5.5344   17.0758 C.ar    1  UNL1        0.1387
     21 C         -11.0730   -6.6339   18.0028 C.ar    1  UNL1        0.0366
     22 C         -12.4654   -7.1857   17.9211 C.ar    1  UNL1        0.0007
     23 C         -13.4313   -6.6381   16.9125 C.ar    1  UNL1        0.0007
     24 C         -13.0046   -5.5386   15.9856 C.ar    1  UNL1        0.0007
     25 C         -11.6122   -4.9868   16.0673 C.ar    1  UNL1        0.0366
     26 C          -8.8329   -3.8708   16.2428 C.3     1  UNL1        0.2525
     27 O          -9.2540   -4.9827   17.1575 O.3     1  UNL1       -0.4714
@<TRIPOS>BOND
     1    26    27    1
     2    27    20    1
     3    20    21   ar
     4    21    22   ar
     5    22    23   ar
     6    23    19    1
     7    19     1    1
     8     1     2   ar
     9     2    10    1
    10    10    11    1
    11    11    12    1
    12    12    13    1
    13    13    16    1
    14    16    17    1
    15    16    18    1
    16    13    14    1
    17    14    15    1
    18     2     3   ar
    19     3     4   ar
    20     4     5   ar
    21     5     6   ar
    22     6     7   ar
    23     7     8   ar
    24     8     9   ar
    25    23    24   ar
    26    24    25   ar
    27    25    20   ar
    28     9     1   ar
    29    15    10    1
    30     9     4   ar
@<TRIPOS>MOLECULE
*****
 27 30 0 0 0
SMALL
GASTEIGER

@<TRIPOS>ATOM
      1 N          -3.9357  -18.1510   22.2146 N.ar    1  UNL1       -0.2954
      2 C          -3.9037  -16.8552   22.9697 C.ar    1  UNL1        0.2014
      3 N          -2.7766  -16.0290   22.4247 N.ar    1  UNL1       -0.2136
      4 C          -2.1120  -16.8141   21.3329 C.ar    1  UNL1        0.0999
      5 C          -0.9471  -16.5042   20.4402 C.ar    1  UNL1        0.0207
      6 C          -0.4986  -17.5058   19.4177 C.ar    1  UNL1        0.0016
      7 C          -1.2150  -18.8172   19.2879 C.ar    1  UNL1        0.0016
      8 C          -2.3799  -19.1271   20.1806 C.ar    1  UNL1        0.0188
      9 C          -2.8284  -18.1255   21.2031 C.ar    1  UNL1        0.0801
     10 N          -4.8352  -16.4559   24.0754 N.pl3   1  UNL1       -0.2794
     11 C          -6.1866  -15.8918   23.7507 C.3     1  UNL1        0.0949
     12 C          -7.1181  -15.4924   24.8565 C.3     1  UNL1        0.0375
     13 C          -6.6983  -15.6572   26.2870 C.3     1  UNL1        0.0610
     14 C          -5.3469  -16.2213   26.6118 C.3     1  UNL1        0.0375
     15 C          -4.4154  -16.6206   25.5060 C.3     1  UNL1        0.0949
     16 N          -7.6298  -15.2578   27.3928 N.3     1  UNL1       -0.2715
     17 C          -7.3656  -14.0101   28.1822 C.3     1  UNL1        0.0896
     18 C          -8.8257  -16.1062   27.7092 C.3     1  UNL1        0.0896
     19 C          -4.9048  -19.2749   22.4329 C.3     1  UNL1        0.1354
     20 C          -8.9192  -19.2112   20.4004 C.ar    1  UNL1        0.1387
     21 C          -8.8176  -18.9250   21.8694 C.ar    1  UNL1        0.0366
     22 C          -7.4795  -18.9463   22.5468 C.ar    1  UNL1        0.0007
     23 C          -6.2429  -19.2537   21.7554 C.ar    1  UNL1        0.0007
     24 C          -6.3445  -19.5398   20.2864 C.ar    1  UNL1        0.0007
     25 C          -7.6826  -19.5186   19.6090 C.ar    1  UNL1        0.0366
     26 C         -11.1240  -17.9689   19.8125 C.3     1  UNL1        0.2525
     27 O         -10.2573  -19.1899   19.7229 O.3     1  UNL1       -0.4714
@<TRIPOS>BOND
     1    26    27    1
     2    27    20    1
     3    20    21   ar
     4    21    22   ar
     5    22    23   ar
     6    23    19    1
     7    19     1    1
     8     1     2   ar
     9     2    10    1
    10    10    11    1
    11    11    12    1
    12    12    13    1
    13    13    16    1
    14    16    17    1
    15    16    18    1
    16    13    14    1
    17    14    15    1
    18     2     3   ar
    19     3     4   ar
    20     4     5   ar
    21     5     6   ar
    22     6     7   ar
    23     7     8   ar
    24     8     9   ar
    25    23    24   ar
    26    24    25   ar
    27    25    20   ar
    28     9     1   ar
    29    15    10    1
    30     9     4   ar
@<TRIPOS>MOLECULE
*****
 27 30 0 0 0
SMALL
GASTEIGER

@<TRIPOS>ATOM
      1 N         -14.8902   -2.2080   18.1478 N.ar    1  UNL1       -0.2954
      2 C         -15.9345   -3.0815   18.7775 C.ar    1  UNL1        0.2014
      3 N         -16.8059   -2.2153   19.6380 N.ar    1  UNL1       -0.2136
      4 C         -16.3001   -0.8065   19.5401 C.ar    1  UNL1        0.0999
      5 C         -16.7647    0.4727   20.1707 C.ar    1  UNL1        0.0207
      6 C         -16.0453    1.7565   19.8802 C.ar    1  UNL1        0.0016
      7 C         -14.8614    1.7610   18.9592 C.ar    1  UNL1        0.0016
      8 C         -14.3968    0.4817   18.3287 C.ar    1  UNL1        0.0188
      9 C         -15.1162   -0.8020   18.6191 C.ar    1  UNL1        0.0801
     10 N         -16.0817   -4.5613   18.5811 N.pl3   1  UNL1       -0.2794
     11 C         -15.5325   -5.5117   19.6033 C.3     1  UNL1        0.0949
     12 C         -15.6796   -6.9915   19.4070 C.3     1  UNL1        0.0375
     13 C         -16.3759   -7.5209   18.1884 C.3     1  UNL1        0.0610
     14 C         -16.9250   -6.5704   17.1662 C.3     1  UNL1        0.0375
     15 C         -16.7779   -5.0906   17.3625 C.3     1  UNL1        0.0949
     16 N         -16.5230   -9.0007   17.9920 N.3     1  UNL1       -0.2715
     17 C         -17.8849   -9.6006   17.8043 C.3     1  UNL1        0.0896
     18 C         -15.3082   -9.8805   17.9834 C.3     1  UNL1        0.0896
     19 C         -13.8097   -2.6610   17.2112 C.3     1  UNL1        0.1354
     20 C         -10.5547   -5.3962   18.6855 C.ar    1  UNL1        0.1387
     21 C         -11.6853   -5.9480   17.8685 C.ar    1  UNL1        0.0366
     22 C         -12.7702   -5.0363   17.3771 C.ar    1  UNL1        0.0007
     23 C         -12.7247   -3.5727   17.7026 C.ar    1  UNL1        0.0007
     24 C         -11.5942   -3.0209   18.5196 C.ar    1  UNL1        0.0007
     25 C         -10.5092   -3.9327   19.0110 C.ar    1  UNL1        0.0366
     26 C          -9.4456   -7.7449   18.7468 C.3     1  UNL1        0.2525
     27 O          -9.4698   -6.3080   19.1769 O.3     1  UNL1       -0.4714
@<TRIPOS>BOND
     1    26    27    1
     2    27    20    1
     3    20    21   ar
     4    21    22   ar
     5    22    23   ar
     6    23    19    1
     7    19     1    1
     8     1     2   ar
     9     2    10    1
    10    10    11    1
    11    11    12    1
    12    12    13    1
    13    13    16    1
    14    16    17    1
    15    16    18    1
    16    13    14    1
    17    14    15    1
    18     2     3   ar
    19     3     4   ar
    20     4     5   ar
    21     5     6   ar
    22     6     7   ar
    23     7     8   ar
    24     8     9   ar
    25    23    24   ar
    26    24    25   ar
    27    25    20   ar
    28     9     1   ar
    29    15    10    1
    30     9     4   ar
@<TRIPOS>MOLECULE
*****
 27 30 0 0 0
SMALL
GASTEIGER

@<TRIPOS>ATOM
      1 N          -2.0454    3.6143   22.4407 N.ar    1  UNL1       -0.2954
      2 C          -1.9342    3.0400   21.0595 C.ar    1  UNL1        0.2014
      3 N          -3.3148    2.9595   20.4785 N.ar    1  UNL1       -0.2136
      4 C          -4.2792    3.4840   21.5007 C.ar    1  UNL1        0.0999
      5 C          -5.7704    3.6453   21.4838 C.ar    1  UNL1        0.0207
      6 C          -6.4770    4.2114   22.6797 C.ar    1  UNL1        0.0016
      7 C          -5.6925    4.6161   23.8924 C.ar    1  UNL1        0.0016
      8 C          -4.2013    4.4548   23.9093 C.ar    1  UNL1        0.0188
      9 C          -3.4947    3.8887   22.7134 C.ar    1  UNL1        0.0801
     10 N          -0.6653    2.6201   20.3787 N.pl3   1  UNL1       -0.2794
     11 C           0.0458    1.3751   20.8197 C.3     1  UNL1        0.0949
     12 C           1.3148    0.9552   20.1389 C.3     1  UNL1        0.0375
     13 C           1.8726    1.7801   19.0173 C.3     1  UNL1        0.0610
     14 C           1.1615    3.0251   18.5763 C.3     1  UNL1        0.0375
     15 C          -0.1074    3.4450   19.2571 C.3     1  UNL1        0.0949
     16 N           3.1416    1.3602   18.3365 N.3     1  UNL1       -0.2715
     17 C           3.2517   -0.0090   17.7338 C.3     1  UNL1        0.0896
     18 C           4.3004    2.3093   18.2585 C.3     1  UNL1        0.0896
     19 C          -0.9072    3.8695   23.3837 C.3     1  UNL1        0.1354
     20 C          -0.3747    1.2755   27.0221 C.ar    1  UNL1        0.1387
     21 C           0.3557    0.9474   25.7536 C.ar    1  UNL1        0.0366
     22 C           0.1782    1.8121   24.5409 C.ar    1  UNL1        0.0007
     23 C          -0.7297    3.0049   24.5965 C.ar    1  UNL1        0.0007
     24 C          -1.4601    3.3329   25.8649 C.ar    1  UNL1        0.0007
     25 C          -1.2825    2.4682   27.0777 C.ar    1  UNL1        0.0366
     26 C          -1.3333   -0.4379   28.7237 C.3     1  UNL1        0.2525
     27 O          -0.1971    0.4108   28.2348 O.3     1  UNL1       -0.4714
@<TRIPOS>BOND
     1    26    27    1
     2    27    20    1
     3    20    21   ar
     4    21    22   ar
     5    22    23   ar
     6    23    19    1
     7    19     1    1
     8     1     2   ar
     9     2    10    1
    10    10    11    1
    11    11    12    1
    12    12    13    1
    13    13    16    1
    14    16    17    1
    15    16    18    1
    16    13    14    1
    17    14    15    1
    18     2     3   ar
    19     3     4   ar
    20     4     5   ar
    21     5     6   ar
    22     6     7   ar
    23     7     8   ar
    24     8     9   ar
    25    23    24   ar
    26    24    25   ar
    27    25    20   ar
    28     9     1   ar
    29    15    10    1
    30     9     4   ar
@<TRIPOS>MOLECULE
*****
 27 30 0 0 0
SMALL
GASTEIGER

@<TRIPOS>ATOM
      1 N           3.9733    1.3915   34.1709 N.ar    1  UNL1       -0.2954
      2 C           4.6066    0.1494   34.7242 C.ar    1  UNL1        0.2014
      3 N           4.3038    0.0891   36.1921 N.ar    1  UNL1       -0.2136
      4 C           3.4833    1.2939   36.5460 C.ar    1  UNL1        0.0999
      5 C           2.8959    1.7620   37.8443 C.ar    1  UNL1        0.0207
      6 C           2.1041    3.0351   37.8935 C.ar    1  UNL1        0.0016
      7 C           1.8998    3.8400   36.6444 C.ar    1  UNL1        0.0016
      8 C           2.4873    3.3719   35.3460 C.ar    1  UNL1        0.0188
      9 C           3.2790    2.0989   35.2969 C.ar    1  UNL1        0.0801
     10 N           5.4030   -0.8558   33.9462 N.pl3   1  UNL1       -0.2794
     11 C           6.8523   -0.6016   33.6552 C.3     1  UNL1        0.0949
     12 C           7.6487   -1.6069   32.8772 C.3     1  UNL1        0.0375
     13 C           6.9957   -2.8663   32.3902 C.3     1  UNL1        0.0610
     14 C           5.5463   -3.1206   32.6811 C.3     1  UNL1        0.0375
     15 C           4.7500   -2.1153   33.4592 C.3     1  UNL1        0.0949
     16 N           7.7920   -3.8716   31.6122 N.3     1  UNL1       -0.2715
     17 C           7.1216   -5.0945   31.0601 C.3     1  UNL1        0.0896
     18 C           9.2588   -3.6539   31.3862 C.3     1  UNL1        0.0896
     19 C           4.0251    1.8464   32.7425 C.3     1  UNL1        0.1354
     20 C           1.0715    0.2292   29.7574 C.ar    1  UNL1        0.1387
     21 C           2.3027   -0.5578   30.0961 C.ar    1  UNL1        0.0366
     22 C           3.2872   -0.0187   31.0911 C.ar    1  UNL1        0.0007
     23 C           3.0406    1.3074   31.7475 C.ar    1  UNL1        0.0007
     24 C           1.8093    2.0943   31.4088 C.ar    1  UNL1        0.0007
     25 C           0.8248    1.5552   30.4138 C.ar    1  UNL1        0.0366
     26 C          -1.3854   -0.1671   29.0112 C.3     1  UNL1        0.2525
     27 O           0.0870   -0.3099   28.7624 O.3     1  UNL1       -0.4714
@<TRIPOS>BOND
     1    26    27    1
     2    27    20    1
     3    20    21   ar
     4    21    22   ar
     5    22    23   ar
     6    23    19    1
     7    19     1    1
     8     1     2   ar
     9     2    10    1
    10    10    11    1
    11    11    12    1
    12    12    13    1
    13    13    16    1
    14    16    17    1
    15    16    18    1
    16    13    14    1
    17    14    15    1
    18     2     3   ar
    19     3     4   ar
    20     4     5   ar
    21     5     6   ar
    22     6     7   ar
    23     7     8   ar
    24     8     9   ar
    25    23    24   ar
    26    24    25   ar
    27    25    20   ar
    28     9     1   ar
    29    15    10    1
    30     9     4   ar
@<TRIPOS>MOLECULE
*****
 27 30 0 0 0
SMALL
GASTEIGER

@<TRIPOS>ATOM
      1 N           6.1354   -2.0803   30.4082 N.ar    1  UNL1       -0.2954
      2 C           6.3275   -2.5401   31.8229 C.ar    1  UNL1        0.2014
      3 N           6.7526   -3.9782   31.7891 N.ar    1  UNL1       -0.2136
      4 C           6.8232   -4.4072   30.3535 C.ar    1  UNL1        0.0999
      5 C           7.1856   -5.7143   29.7132 C.ar    1  UNL1        0.0207
      6 C           7.1665   -5.8484   28.2193 C.ar    1  UNL1        0.0016
      7 C           6.7850   -4.6753   27.3658 C.ar    1  UNL1        0.0016
      8 C           6.4226   -3.3682   28.0061 C.ar    1  UNL1        0.0188
      9 C           6.4417   -3.2341   29.5000 C.ar    1  UNL1        0.0801
     10 N           6.1293   -1.7080   33.0551 N.pl3   1  UNL1       -0.2794
     11 C           4.8100   -1.7267   33.7686 C.3     1  UNL1        0.0949
     12 C           4.6118   -0.8946   35.0008 C.3     1  UNL1        0.0375
     13 C           5.7329   -0.0438   35.5195 C.3     1  UNL1        0.0610
     14 C           7.0522   -0.0251   34.8061 C.3     1  UNL1        0.0375
     15 C           7.2504   -0.8572   33.5739 C.3     1  UNL1        0.0949
     16 N           5.5347    0.7883   36.7517 N.3     1  UNL1       -0.2715
     17 C           4.2128    0.7760   37.4604 C.3     1  UNL1        0.0896
     18 C           6.6585    1.6327   37.2753 C.3     1  UNL1        0.0896
     19 C           5.7113   -0.7075   29.9772 C.3     1  UNL1        0.1354
     20 C           1.3394    0.3414   29.7879 C.ar    1  UNL1        0.1387
     21 C           2.1643    0.7743   30.9636 C.ar    1  UNL1        0.0366
     22 C           3.6216    0.4246   31.0266 C.ar    1  UNL1        0.0007
     23 C           4.2541   -0.3579   29.9140 C.ar    1  UNL1        0.0007
     24 C           3.4291   -0.7907   28.7384 C.ar    1  UNL1        0.0007
     25 C           1.9718   -0.4410   28.6754 C.ar    1  UNL1        0.0366
     26 C          -1.0487   -0.1236   28.8762 C.3     1  UNL1        0.2525
     27 O          -0.1179    0.6911   29.7248 O.3     1  UNL1       -0.4714
@<TRIPOS>BOND
     1    26    27    1
     2    27    20    1
     3    20    21   ar
     4    21    22   ar
     5    22    23   ar
     6    23    19    1
     7    19     1    1
     8     1     2   ar
     9     2    10    1
    10    10    11    1
    11    11    12    1
    12    12    13    1
    13    13    16    1
    14    16    17    1
    15    16    18    1
    16    13    14    1
    17    14    15    1
    18     2     3   ar
    19     3     4   ar
    20     4     5   ar
    21     5     6   ar
    22     6     7   ar
    23     7     8   ar
    24     8     9   ar
    25    23    24   ar
    26    24    25   ar
    27    25    20   ar
    28     9     1   ar
    29    15    10    1
    30     9     4   ar
