@<TRIPOS>MOLECULE
*****
 33 36 0 0 0
SMALL
GASTEIGER

@<TRIPOS>ATOM
      1 C          -8.2592  -18.8504   22.3855 C.3     1  UNL1        0.2026
      2 C          -8.9301  -19.0641   21.0610 C.ar    1  UNL1        0.0163
      3 C          -8.6052  -19.9627   19.9048 C.ar    1  UNL1        0.0104
      4 C          -9.4779  -19.9603   18.6849 C.ar    1  UNL1        0.0583
      5 CL         -9.1531  -20.8589   17.5285 Cl      1  UNL1       -0.0822
      6 C         -10.6755  -19.0592   18.6211 C.ar    1  UNL1        0.0224
      7 C         -11.0003  -18.1606   19.7774 C.ar    1  UNL1        0.0544
      8 CL        -12.1978  -17.2596   19.7136 Cl      1  UNL1       -0.0826
      9 C         -10.1276  -18.1630   20.9973 C.ar    1  UNL1       -0.0106
     10 C         -10.1968  -17.3925   22.2824 C.3     1  UNL1        0.0470
     11 C          -9.0420  -17.8173   23.1404 C.3     1  UNL1        0.1066
     12 N          -8.7257  -17.2998   24.5123 N.3     1  UNL1       -0.2692
     13 C          -9.4102  -17.8862   25.7113 C.3     1  UNL1        0.0723
     14 C          -9.0938  -17.3687   27.0832 C.3     1  UNL1        0.0187
     15 C          -8.0930  -16.2649   27.2562 C.3     1  UNL1        0.0186
     16 C          -7.4086  -15.6786   26.0572 C.3     1  UNL1        0.0703
     17 C          -7.7249  -16.1960   24.6853 C.3     1  UNL1        0.0880
     18 N          -6.4077  -14.5747   26.2301 N.3     1  UNL1       -0.2951
     19 H          -6.4104  -14.3271   27.2196 H       1  UNL1        0.1233
     20 C          -4.9753  -14.7936   25.8424 C.3     1  UNL1        0.1072
     21 C          -4.6443  -15.4693   24.5448 C.3     1  UNL1        0.2102
     22 F          -4.8872  -14.7591   23.2461 F       1  UNL1       -0.2328
     23 O          -7.0225  -19.5474   22.8701 O.3     1  UNL1       -0.4734
     24 C          -3.0627  -18.7405   20.8905 C.ar    1  UNL1        0.1059
     25 C          -3.3922  -18.0902   22.2014 C.ar    1  UNL1        0.0215
     26 C          -4.7122  -18.3591   22.8612 C.ar    1  UNL1        0.0382
     27 C          -5.7026  -19.2785   22.2103 C.ar    1  UNL1        0.1390
     28 C          -5.3731  -19.9289   20.8993 C.ar    1  UNL1        0.0382
     29 C          -4.0531  -19.6599   20.2394 C.ar    1  UNL1        0.0215
     30 C          -0.4229  -18.2027   19.5707 C.3     1  UNL1        0.1816
     31 S          -1.7428  -18.4716   20.2306 S.O2    1  UNL1        0.0105
     32 O          -1.0339  -18.8246   21.5046 O.2     1  UNL1       -0.1686
     33 O          -2.4516  -18.1186   18.9567 O.2     1  UNL1       -0.1686
@<TRIPOS>BOND
     1    30    31    1
     2    31    32    2
     3    31    33    2
     4    31    24    1
     5    24    25   ar
     6    25    26   ar
     7    26    27   ar
     8    27    23    1
     9     1    23    1
    10     1     2    1
    11     2     3   ar
    12     3     4   ar
    13     4     5    1
    14     4     6   ar
    15     6     7   ar
    16     7     8    1
    17     7     9   ar
    18     9    10    1
    19    10    11    1
    20    11    12    1
    21    12    13    1
    22    13    14    1
    23    14    15    1
    24    15    16    1
    25    16    18    1
    26    18    20    1
    27    20    21    1
    28    21    22    1
    29    16    17    1
    30    27    28   ar
    31    28    29   ar
    32    29    24   ar
    33    11     1    1
    34    17    12    1
    35     9     2   ar
    36    18    19    1
@<TRIPOS>MOLECULE
*****
 33 36 0 0 0
SMALL
GASTEIGER

@<TRIPOS>ATOM
      1 C          -6.9415  -19.0905   21.5615 C.3     1  UNL1        0.2026
      2 C          -7.8896  -19.5412   20.4901 C.ar    1  UNL1        0.0163
      3 C          -7.8704  -20.7215   19.5646 C.ar    1  UNL1        0.0104
      4 C          -8.9806  -20.9165   18.5749 C.ar    1  UNL1        0.0583
      5 CL         -8.9615  -22.0969   17.6493 Cl      1  UNL1       -0.0822
      6 C         -10.1098  -19.9313   18.5107 C.ar    1  UNL1        0.0224
      7 C         -10.1289  -18.7510   19.4361 C.ar    1  UNL1        0.0544
      8 CL        -11.2582  -17.7658   19.3719 Cl      1  UNL1       -0.0826
      9 C          -9.0188  -18.5560   20.4258 C.ar    1  UNL1       -0.0106
     10 C          -8.7687  -17.4964   21.4576 C.3     1  UNL1        0.0470
     11 C          -7.4849  -17.8267   22.1596 C.3     1  UNL1        0.1066
     12 N          -6.8550  -17.0326   23.2653 N.3     1  UNL1       -0.2692
     13 C          -5.3612  -16.9646   23.3829 C.3     1  UNL1        0.0723
     14 C          -4.7313  -16.1706   24.4887 C.3     1  UNL1        0.0187
     15 C          -5.5951  -15.4445   25.4768 C.3     1  UNL1        0.0186
     16 C          -7.0890  -15.5125   25.3592 C.3     1  UNL1        0.0703
     17 C          -7.7189  -16.3065   24.2534 C.3     1  UNL1        0.0880
     18 N          -7.9529  -14.7864   26.3473 N.3     1  UNL1       -0.2951
     19 H          -8.7890  -14.4886   25.8445 H       1  UNL1        0.1233
     20 C          -8.4206  -15.4844   27.5899 C.3     1  UNL1        0.1072
     21 C          -8.4149  -16.9830   27.6555 C.3     1  UNL1        0.2102
     22 F          -9.2700  -17.7782   26.7140 F       1  UNL1       -0.2328
     23 O          -5.6729  -19.7821   21.9643 O.3     1  UNL1       -0.4734
     24 C          -1.7004  -18.1761   20.5896 C.ar    1  UNL1        0.1059
     25 C          -1.9037  -18.5417   22.0301 C.ar    1  UNL1        0.0215
     26 C          -3.2279  -19.0770   22.4884 C.ar    1  UNL1        0.0382
     27 C          -4.3488  -19.2468   21.5061 C.ar    1  UNL1        0.1390
     28 C          -4.1454  -18.8812   20.0656 C.ar    1  UNL1        0.0382
     29 C          -2.8213  -18.3459   19.6073 C.ar    1  UNL1        0.0215
     30 C           0.9479  -17.1055   19.6731 C.3     1  UNL1        0.1816
     31 S          -0.3762  -17.6408   20.1314 S.O2    1  UNL1        0.0105
     32 O          -0.7855  -16.2624   20.5587 O.2     1  UNL1       -0.1686
     33 O           0.0331  -19.0191   19.7040 O.2     1  UNL1       -0.1686
@<TRIPOS>BOND
     1    30    31    1
     2    31    32    2
     3    31    33    2
     4    31    24    1
     5    24    25   ar
     6    25    26   ar
     7    26    27   ar
     8    27    23    1
     9     1    23    1
    10     1     2    1
    11     2     3   ar
    12     3     4   ar
    13     4     5    1
    14     4     6   ar
    15     6     7   ar
    16     7     8    1
    17     7     9   ar
    18     9    10    1
    19    10    11    1
    20    11    12    1
    21    12    13    1
    22    13    14    1
    23    14    15    1
    24    15    16    1
    25    16    18    1
    26    18    20    1
    27    20    21    1
    28    21    22    1
    29    16    17    1
    30    27    28   ar
    31    28    29   ar
    32    29    24   ar
    33    11     1    1
    34    17    12    1
    35     9     2   ar
    36    18    19    1
@<TRIPOS>MOLECULE
*****
 33 36 0 0 0
SMALL
GASTEIGER

@<TRIPOS>ATOM
      1 C           2.7088    0.2580   21.8285 C.3     1  UNL1        0.2026
      2 C           3.4478   -1.0423   21.9430 C.ar    1  UNL1        0.0163
      3 C           4.3672   -1.5848   22.9967 C.ar    1  UNL1        0.0104
      4 C           4.9711   -2.9483   22.8353 C.ar    1  UNL1        0.0583
      5 CL          5.8906   -3.4909   23.8891 Cl      1  UNL1       -0.0822
      6 C           4.6556   -3.7693   21.6203 C.ar    1  UNL1        0.0224
      7 C           3.7362   -3.2268   20.5666 C.ar    1  UNL1        0.0544
      8 CL          3.4206   -4.0478   19.3515 Cl      1  UNL1       -0.0826
      9 C           3.1323   -1.8633   20.7279 C.ar    1  UNL1       -0.0106
     10 C           2.1983   -1.0704   19.8625 C.3     1  UNL1        0.0470
     11 C           1.9366    0.2407   20.5426 C.3     1  UNL1        0.1066
     12 N           1.0571    1.3412   20.0274 N.3     1  UNL1       -0.2692
     13 C           1.4174    2.0581   18.7601 C.3     1  UNL1        0.0723
     14 C           0.5379    3.1586   18.2449 C.3     1  UNL1        0.0187
     15 C          -0.7019    3.5421   18.9970 C.3     1  UNL1        0.0186
     16 C          -1.0622    2.8252   20.2643 C.3     1  UNL1        0.0703
     17 C          -0.1827    1.7247   20.7795 C.3     1  UNL1        0.0880
     18 N          -2.3021    3.2087   21.0165 N.3     1  UNL1       -0.2951
     19 H          -2.1321    4.1331   21.4127 H       1  UNL1        0.1233
     20 C          -3.6201    3.2787   20.3038 C.3     1  UNL1        0.1072
     21 C          -4.8992    3.2291   21.0858 C.3     1  UNL1        0.2102
     22 F          -4.9476    2.5063   22.3993 F       1  UNL1       -0.2328
     23 O           2.7372    1.3789   22.8249 O.3     1  UNL1       -0.4734
     24 C           0.6030    0.9438   26.7626 C.ar    1  UNL1        0.1059
     25 C          -0.1707    1.2863   25.5240 C.ar    1  UNL1        0.0215
     26 C           0.5407    1.4314   24.2114 C.ar    1  UNL1        0.0382
     27 C           2.0258    1.2339   24.1374 C.ar    1  UNL1        0.1390
     28 C           2.7995    0.8913   25.3760 C.ar    1  UNL1        0.0382
     29 C           2.0881    0.7463   26.6886 C.ar    1  UNL1        0.0215
     30 C          -0.8197    0.6537   29.3878 C.3     1  UNL1        0.1816
     31 S          -0.1084    0.7987   28.0752 S.O2    1  UNL1        0.0105
     32 O           0.9780   -0.1133   28.5632 O.2     1  UNL1       -0.1686
     33 O          -1.1947    1.7107   27.5872 O.2     1  UNL1       -0.1686
@<TRIPOS>BOND
     1    30    31    1
     2    31    32    2
     3    31    33    2
     4    31    24    1
     5    24    25   ar
     6    25    26   ar
     7    26    27   ar
     8    27    23    1
     9     1    23    1
    10     1     2    1
    11     2     3   ar
    12     3     4   ar
    13     4     5    1
    14     4     6   ar
    15     6     7   ar
    16     7     8    1
    17     7     9   ar
    18     9    10    1
    19    10    11    1
    20    11    12    1
    21    12    13    1
    22    13    14    1
    23    14    15    1
    24    15    16    1
    25    16    18    1
    26    18    20    1
    27    20    21    1
    28    21    22    1
    29    16    17    1
    30    27    28   ar
    31    28    29   ar
    32    29    24   ar
    33    11     1    1
    34    17    12    1
    35     9     2   ar
    36    18    19    1
@<TRIPOS>MOLECULE
*****
 33 36 0 0 0
SMALL
GASTEIGER

@<TRIPOS>ATOM
      1 C           6.8301   -2.9333   23.7499 C.3     1  UNL1        0.2026
      2 C           6.9215   -3.9010   24.8924 C.ar    1  UNL1        0.0163
      3 C           6.5898   -3.7682   26.3492 C.ar    1  UNL1        0.0104
      4 C           6.7891   -4.9330   27.2729 C.ar    1  UNL1        0.0583
      5 CL          6.4575   -4.8003   28.7298 Cl      1  UNL1       -0.0822
      6 C           7.3201   -6.2307   26.7398 C.ar    1  UNL1        0.0224
      7 C           7.6518   -6.3635   25.2830 C.ar    1  UNL1        0.0544
      8 CL          8.1828   -7.6611   24.7500 Cl      1  UNL1       -0.0826
      9 C           7.4525   -5.1986   24.3593 C.ar    1  UNL1       -0.0106
     10 C           7.6892   -5.0329   22.8874 C.3     1  UNL1        0.0470
     11 C           7.3046   -3.6328   22.5108 C.3     1  UNL1        0.1066
     12 N           7.3810   -3.0369   21.1363 N.3     1  UNL1       -0.2692
     13 C           8.5838   -2.2373   20.7314 C.3     1  UNL1        0.0723
     14 C           8.6602   -1.6414   19.3569 C.3     1  UNL1        0.0187
     15 C           7.5339   -1.8451   18.3875 C.3     1  UNL1        0.0186
     16 C           6.3311   -2.6447   18.7924 C.3     1  UNL1        0.0703
     17 C           6.2547   -3.2406   20.1669 C.3     1  UNL1        0.0880
     18 N           5.2047   -2.8484   17.8230 N.3     1  UNL1       -0.2951
     19 H           4.8434   -3.7884   17.9848 H       1  UNL1        0.1233
     20 C           4.0249   -1.9223   17.8387 C.3     1  UNL1        0.1072
     21 C           4.0347   -0.6809   16.9968 C.3     1  UNL1        0.2102
     22 F           4.7076    0.5615   17.5004 F       1  UNL1       -0.2328
     23 O           6.3487   -1.5150   23.8322 O.3     1  UNL1       -0.4734
     24 C           3.1741   -0.0483   21.0002 C.ar    1  UNL1        0.1059
     25 C           4.5891    0.4266   20.8516 C.ar    1  UNL1        0.0215
     26 C           5.6473   -0.0623   21.7956 C.ar    1  UNL1        0.0382
     27 C           5.2906   -1.0261   22.8882 C.ar    1  UNL1        0.1390
     28 C           3.8754   -1.5010   23.0368 C.ar    1  UNL1        0.0382
     29 C           2.8172   -1.0121   22.0928 C.ar    1  UNL1        0.0215
     30 C           1.0575    0.9294   19.1123 C.3     1  UNL1        0.1816
     31 S           2.1158    0.4405   20.0562 S.O2    1  UNL1        0.0105
     32 O           2.7792    1.7851   20.0088 O.2     1  UNL1       -0.1686
     33 O           1.4524   -0.9040   20.1037 O.2     1  UNL1       -0.1686
@<TRIPOS>BOND
     1    30    31    1
     2    31    32    2
     3    31    33    2
     4    31    24    1
     5    24    25   ar
     6    25    26   ar
     7    26    27   ar
     8    27    23    1
     9     1    23    1
    10     1     2    1
    11     2     3   ar
    12     3     4   ar
    13     4     5    1
    14     4     6   ar
    15     6     7   ar
    16     7     8    1
    17     7     9   ar
    18     9    10    1
    19    10    11    1
    20    11    12    1
    21    12    13    1
    22    13    14    1
    23    14    15    1
    24    15    16    1
    25    16    18    1
    26    18    20    1
    27    20    21    1
    28    21    22    1
    29    16    17    1
    30    27    28   ar
    31    28    29   ar
    32    29    24   ar
    33    11     1    1
    34    17    12    1
    35     9     2   ar
    36    18    19    1
@<TRIPOS>MOLECULE
*****
 33 36 0 0 0
SMALL
GASTEIGER

@<TRIPOS>ATOM
      1 C          -4.6631    3.8306   24.5872 C.3     1  UNL1        0.2026
      2 C          -5.6813    4.8072   25.0966 C.ar    1  UNL1        0.0163
      3 C          -7.1019    5.0761   24.6970 C.ar    1  UNL1        0.0104
      4 C          -7.8910    6.1390   25.4024 C.ar    1  UNL1        0.0583
      5 CL         -9.3116    6.4079   25.0028 Cl      1  UNL1       -0.0822
      6 C          -7.2595    6.9329   26.5074 C.ar    1  UNL1        0.0224
      7 C          -5.8390    6.6640   26.9069 C.ar    1  UNL1        0.0544
      8 CL         -5.2076    7.4580   28.0119 Cl      1  UNL1       -0.0826
      9 C          -5.0499    5.6012   26.2015 C.ar    1  UNL1       -0.0106
     10 C          -3.6414    5.1152   26.3751 C.3     1  UNL1        0.0470
     11 C          -3.4023    4.0210   25.3774 C.3     1  UNL1        0.1066
     12 N          -2.1266    3.2521   25.2008 N.3     1  UNL1       -0.2692
     13 C          -1.3589    3.3576   23.9165 C.3     1  UNL1        0.0723
     14 C          -0.0831    2.5887   23.7399 C.3     1  UNL1        0.0187
     15 C           0.4250    1.7143   24.8477 C.3     1  UNL1        0.0186
     16 C          -0.3427    1.6088   26.1320 C.3     1  UNL1        0.0703
     17 C          -1.6184    2.3777   26.3085 C.3     1  UNL1        0.0880
     18 N           0.1654    0.7343   27.2398 N.3     1  UNL1       -0.2951
     19 H           1.1731    0.8829   27.2937 H       1  UNL1        0.1233
     20 C          -0.3714    0.8982   28.6309 C.3     1  UNL1        0.1072
     21 C          -1.4913    0.0232   29.1105 C.3     1  UNL1        0.2102
     22 F          -1.8021   -1.2575   28.3940 F       1  UNL1       -0.2328
     23 O          -4.8694    2.8379   23.4818 O.3     1  UNL1       -0.4734
     24 C          -5.0849    4.2387   19.2108 C.ar    1  UNL1        0.1059
     25 C          -3.8452    3.5626   19.7167 C.ar    1  UNL1        0.0215
     26 C          -3.7733    3.0957   21.1404 C.ar    1  UNL1        0.0382
     27 C          -4.9412    3.3048   22.0582 C.ar    1  UNL1        0.1390
     28 C          -6.1810    3.9810   21.5522 C.ar    1  UNL1        0.0382
     29 C          -6.2528    4.4479   20.1285 C.ar    1  UNL1        0.0215
     30 C          -5.2286    5.1725   16.3635 C.3     1  UNL1        0.1816
     31 S          -5.1568    4.7056   17.7871 S.O2    1  UNL1        0.0105
     32 O          -5.7612    6.0008   18.2424 O.2     1  UNL1       -0.1686
     33 O          -4.5524    3.4104   17.3318 O.2     1  UNL1       -0.1686
@<TRIPOS>BOND
     1    30    31    1
     2    31    32    2
     3    31    33    2
     4    31    24    1
     5    24    25   ar
     6    25    26   ar
     7    26    27   ar
     8    27    23    1
     9     1    23    1
    10     1     2    1
    11     2     3   ar
    12     3     4   ar
    13     4     5    1
    14     4     6   ar
    15     6     7   ar
    16     7     8    1
    17     7     9   ar
    18     9    10    1
    19    10    11    1
    20    11    12    1
    21    12    13    1
    22    13    14    1
    23    14    15    1
    24    15    16    1
    25    16    18    1
    26    18    20    1
    27    20    21    1
    28    21    22    1
    29    16    17    1
    30    27    28   ar
    31    28    29   ar
    32    29    24   ar
    33    11     1    1
    34    17    12    1
    35     9     2   ar
    36    18    19    1
@<TRIPOS>MOLECULE
*****
 33 36 0 0 0
SMALL
GASTEIGER

@<TRIPOS>ATOM
      1 C           2.8345    0.9832   21.6355 C.3     1  UNL1        0.2026
      2 C           3.1874    0.0121   20.5480 C.ar    1  UNL1        0.0163
      3 C           3.2193    0.1460   19.0544 C.ar    1  UNL1        0.0104
      4 C           3.6217   -1.0231   18.2051 C.ar    1  UNL1        0.0583
      5 CL          3.6536   -0.8893   16.7114 Cl      1  UNL1       -0.0822
      6 C           3.9924   -2.3259   18.8495 C.ar    1  UNL1        0.0224
      7 C           3.9605   -2.4598   20.3431 C.ar    1  UNL1        0.0544
      8 CL          4.3311   -3.7626   20.9875 Cl      1  UNL1       -0.0826
      9 C           3.5581   -1.2907   21.1924 C.ar    1  UNL1       -0.0106
     10 C           3.4341   -1.1248   22.6780 C.3     1  UNL1        0.0470
     11 C           2.9869    0.2805   22.9519 C.3     1  UNL1        0.1066
     12 N           2.7362    0.8782   24.3046 N.3     1  UNL1       -0.2692
     13 C           3.8442    1.5817   25.0308 C.3     1  UNL1        0.0723
     14 C           3.5934    2.1795   26.3835 C.3     1  UNL1        0.0187
     15 C           2.2347    2.0736   27.0101 C.3     1  UNL1        0.0186
     16 C           1.1267    1.3701   26.2839 C.3     1  UNL1        0.0703
     17 C           1.3774    0.7724   24.9312 C.3     1  UNL1        0.0880
     18 N          -0.2321    1.2643   26.9105 N.3     1  UNL1       -0.2951
     19 H          -0.7248    0.5174   26.4207 H       1  UNL1        0.1233
     20 C          -0.3614    0.9791   28.3774 C.3     1  UNL1        0.1072
     21 C          -1.5712    0.2613   28.8981 C.3     1  UNL1        0.2102
     22 F          -1.7945   -1.1809   28.5517 F       1  UNL1       -0.2328
     23 O           2.4045    2.4070   21.4406 O.3     1  UNL1       -0.4734
     24 C          -1.8470    3.3372   20.2963 C.ar    1  UNL1        0.1059
     25 C          -1.4822    3.1513   21.7393 C.ar    1  UNL1        0.0215
     26 C          -0.0651    2.8413   22.1208 C.ar    1  UNL1        0.0382
     27 C           0.9874    2.7170   21.0592 C.ar    1  UNL1        0.1390
     28 C           0.6225    2.9029   19.6161 C.ar    1  UNL1        0.0382
     29 C          -0.7946    3.2129   19.2346 C.ar    1  UNL1        0.0215
     30 C          -4.6813    3.9573   19.5334 C.3     1  UNL1        0.1816
     31 S          -3.2641    3.6472   19.9148 S.O2    1  UNL1        0.0105
     32 O          -2.7732    4.4802   18.7680 O.2     1  UNL1       -0.1686
     33 O          -3.7551    2.8143   21.0616 O.2     1  UNL1       -0.1686
@<TRIPOS>BOND
     1    30    31    1
     2    31    32    2
     3    31    33    2
     4    31    24    1
     5    24    25   ar
     6    25    26   ar
     7    26    27   ar
     8    27    23    1
     9     1    23    1
    10     1     2    1
    11     2     3   ar
    12     3     4   ar
    13     4     5    1
    14     4     6   ar
    15     6     7   ar
    16     7     8    1
    17     7     9   ar
    18     9    10    1
    19    10    11    1
    20    11    12    1
    21    12    13    1
    22    13    14    1
    23    14    15    1
    24    15    16    1
    25    16    18    1
    26    18    20    1
    27    20    21    1
    28    21    22    1
    29    16    17    1
    30    27    28   ar
    31    28    29   ar
    32    29    24   ar
    33    11     1    1
    34    17    12    1
    35     9     2   ar
    36    18    19    1
@<TRIPOS>MOLECULE
*****
 33 36 0 0 0
SMALL
GASTEIGER

@<TRIPOS>ATOM
      1 C          -3.9311    3.2263   20.8357 C.3     1  UNL1        0.2026
      2 C          -4.7762    3.9511   19.8305 C.ar    1  UNL1        0.0163
      3 C          -6.2536    4.1987   19.7534 C.ar    1  UNL1        0.0104
      4 C          -6.8251    4.9741   18.6036 C.ar    1  UNL1        0.0583
      5 CL         -8.3025    5.2217   18.5265 Cl      1  UNL1       -0.0822
      6 C          -5.9191    5.5020   17.5310 C.ar    1  UNL1        0.0224
      7 C          -4.4418    5.2545   17.6081 C.ar    1  UNL1        0.0544
      8 CL         -3.5358    5.7824   16.5354 Cl      1  UNL1       -0.0826
      9 C          -3.8703    4.4790   18.7579 C.ar    1  UNL1       -0.0106
     10 C          -2.4653    4.0804   19.1001 C.3     1  UNL1        0.0470
     11 C          -2.5029    3.3062   20.3843 C.3     1  UNL1        0.1066
     12 N          -1.3199    2.7155   21.0926 N.3     1  UNL1       -0.2692
     13 C          -0.5537    1.5902   20.4630 C.3     1  UNL1        0.0723
     14 C           0.6292    0.9995   21.1714 C.3     1  UNL1        0.0187
     15 C           1.0460    1.5342   22.5094 C.3     1  UNL1        0.0186
     16 C           0.2798    2.6596   23.1391 C.3     1  UNL1        0.0703
     17 C          -0.9032    3.2502   22.4307 C.3     1  UNL1        0.0880
     18 N           0.6965    3.1943   24.4772 N.3     1  UNL1       -0.2951
     19 H           1.1380    4.0982   24.3085 H       1  UNL1        0.1233
     20 C          -0.3279    3.4066   25.5521 C.3     1  UNL1        0.1072
     21 C          -0.9388    2.2273   26.2494 C.3     1  UNL1        0.2102
     22 F          -2.0400    2.4335   27.2467 F       1  UNL1       -0.2328
     23 O          -4.4271    2.5417   22.0748 O.3     1  UNL1       -0.4734
     24 C          -5.7194    4.9805   25.6289 C.ar    1  UNL1        0.1059
     25 C          -4.3758    4.3135   25.6255 C.ar    1  UNL1        0.0215
     26 C          -3.9451    3.5006   24.4408 C.ar    1  UNL1        0.0382
     27 C          -4.8578    3.3546   23.2594 C.ar    1  UNL1        0.1390
     28 C          -6.2014    4.0216   23.2629 C.ar    1  UNL1        0.0382
     29 C          -6.6322    4.8346   24.4476 C.ar    1  UNL1        0.0215
     30 C          -6.5809    6.6064   27.9983 C.3     1  UNL1        0.1816
     31 S          -6.1501    5.7935   26.8136 S.O2    1  UNL1        0.0105
     32 O          -5.0408    5.1956   27.6274 O.2     1  UNL1       -0.1686
     33 O          -7.2594    6.3914   26.0000 O.2     1  UNL1       -0.1686
@<TRIPOS>BOND
     1    30    31    1
     2    31    32    2
     3    31    33    2
     4    31    24    1
     5    24    25   ar
     6    25    26   ar
     7    26    27   ar
     8    27    23    1
     9     1    23    1
    10     1     2    1
    11     2     3   ar
    12     3     4   ar
    13     4     5    1
    14     4     6   ar
    15     6     7   ar
    16     7     8    1
    17     7     9   ar
    18     9    10    1
    19    10    11    1
    20    11    12    1
    21    12    13    1
    22    13    14    1
    23    14    15    1
    24    15    16    1
    25    16    18    1
    26    18    20    1
    27    20    21    1
    28    21    22    1
    29    16    17    1
    30    27    28   ar
    31    28    29   ar
    32    29    24   ar
    33    11     1    1
    34    17    12    1
    35     9     2   ar
    36    18    19    1
@<TRIPOS>MOLECULE
*****
 33 36 0 0 0
SMALL
GASTEIGER

@<TRIPOS>ATOM
      1 C          -7.9388  -18.1216   21.1985 C.3     1  UNL1        0.2026
      2 C          -7.8902  -19.2754   20.2412 C.ar    1  UNL1        0.0163
      3 C          -8.8420  -19.7386   19.1785 C.ar    1  UNL1        0.0104
      4 C          -8.5190  -20.9536   18.3603 C.ar    1  UNL1        0.0583
      5 CL         -9.4709  -21.4169   17.2975 Cl      1  UNL1       -0.0822
      6 C          -7.2443  -21.7054   18.6049 C.ar    1  UNL1        0.0224
      7 C          -6.2925  -21.2422   19.6676 C.ar    1  UNL1        0.0544
      8 CL         -5.0177  -21.9939   19.9122 Cl      1  UNL1       -0.0826
      9 C          -6.6155  -20.0272   20.4858 C.ar    1  UNL1       -0.0106
     10 C          -5.8763  -19.3380   21.5942 C.3     1  UNL1        0.0470
     11 C          -6.6941  -18.1603   22.0347 C.3     1  UNL1        0.1066
     12 N          -6.3311  -17.1914   23.1207 N.3     1  UNL1       -0.2692
     13 C          -4.8895  -16.8957   23.4109 C.3     1  UNL1        0.0723
     14 C          -4.5264  -15.9268   24.4969 C.3     1  UNL1        0.0187
     15 C          -5.6050  -15.2535   25.2927 C.3     1  UNL1        0.0186
     16 C          -7.0466  -15.5492   25.0026 C.3     1  UNL1        0.0703
     17 C          -7.4096  -16.5181   23.9166 C.3     1  UNL1        0.0880
     18 N          -8.1252  -14.8760   25.7984 N.3     1  UNL1       -0.2951
     19 H          -9.0033  -15.0478   25.3086 H       1  UNL1        0.1233
     20 C          -8.3476  -15.2562   27.2323 C.3     1  UNL1        0.1072
     21 C          -8.3980  -16.7029   27.6254 C.3     1  UNL1        0.2102
     22 F          -9.1620  -17.6824   26.7846 F       1  UNL1       -0.2328
     23 O          -9.0390  -17.1073   21.3015 O.3     1  UNL1       -0.4734
     24 C         -12.7654  -18.0585   23.6380 C.ar    1  UNL1        0.1059
     25 C         -11.4377  -18.5844   24.0969 C.ar    1  UNL1        0.0215
     26 C         -10.1956  -18.2673   23.3181 C.ar    1  UNL1        0.0382
     27 C         -10.2811  -17.4244   22.0803 C.ar    1  UNL1        0.1390
     28 C         -11.6089  -16.8985   21.6214 C.ar    1  UNL1        0.0382
     29 C         -12.8510  -17.2156   22.4002 C.ar    1  UNL1        0.0215
     30 C         -15.2497  -18.6927   25.1956 C.3     1  UNL1        0.1816
     31 S         -14.0076  -18.3756   24.4168 S.O2    1  UNL1        0.0105
     32 O         -13.1769  -18.6226   25.6412 O.2     1  UNL1       -0.1686
     33 O         -14.8382  -18.1287   23.1924 O.2     1  UNL1       -0.1686
@<TRIPOS>BOND
     1    30    31    1
     2    31    32    2
     3    31    33    2
     4    31    24    1
     5    24    25   ar
     6    25    26   ar
     7    26    27   ar
     8    27    23    1
     9     1    23    1
    10     1     2    1
    11     2     3   ar
    12     3     4   ar
    13     4     5    1
    14     4     6   ar
    15     6     7   ar
    16     7     8    1
    17     7     9   ar
    18     9    10    1
    19    10    11    1
    20    11    12    1
    21    12    13    1
    22    13    14    1
    23    14    15    1
    24    15    16    1
    25    16    18    1
    26    18    20    1
    27    20    21    1
    28    21    22    1
    29    16    17    1
    30    27    28   ar
    31    28    29   ar
    32    29    24   ar
    33    11     1    1
    34    17    12    1
    35     9     2   ar
    36    18    19    1
@<TRIPOS>MOLECULE
*****
 33 36 0 0 0
SMALL
GASTEIGER

@<TRIPOS>ATOM
      1 C           7.4769   -3.9703   25.8218 C.3     1  UNL1        0.2026
      2 C           7.7445   -4.8489   27.0077 C.ar    1  UNL1        0.0163
      3 C           7.8781   -4.5467   28.4709 C.ar    1  UNL1        0.0104
      4 C           8.1525   -5.6551   29.4435 C.ar    1  UNL1        0.0583
      5 CL          8.2861   -5.3530   30.9068 Cl      1  UNL1       -0.0822
      6 C           8.2932   -7.0657   28.9531 C.ar    1  UNL1        0.0224
      7 C           8.1596   -7.3678   27.4899 C.ar    1  UNL1        0.0544
      8 CL          8.3004   -8.7783   26.9995 Cl      1  UNL1       -0.0826
      9 C           7.8852   -6.2594   26.5173 C.ar    1  UNL1       -0.0106
     10 C           7.7047   -6.2525   25.0282 C.3     1  UNL1        0.0470
     11 C           7.4523   -4.8378   24.5983 C.3     1  UNL1        0.1066
     12 N           7.2167   -4.3723   23.1920 N.3     1  UNL1       -0.2692
     13 C           8.3250   -4.4412   22.1836 C.3     1  UNL1        0.0723
     14 C           8.0894   -3.9757   20.7772 C.3     1  UNL1        0.0187
     15 C           6.7456   -3.4413   20.3793 C.3     1  UNL1        0.0186
     16 C           5.6373   -3.3724   21.3877 C.3     1  UNL1        0.0703
     17 C           5.8729   -3.8379   22.7940 C.3     1  UNL1        0.0880
     18 N           4.2934   -2.8379   20.9898 N.3     1  UNL1       -0.2951
     19 H           4.3618   -1.8205   21.0151 H       1  UNL1        0.1233
     20 C           3.7070   -3.1994   19.6573 C.3     1  UNL1        0.1072
     21 C           3.5700   -4.6405   19.2643 C.3     1  UNL1        0.2102
     22 F           4.5748   -5.2653   18.3424 F       1  UNL1       -0.2328
     23 O           7.2702   -2.4849   25.8537 O.3     1  UNL1       -0.4734
     24 C           3.4899   -0.7760   27.5967 C.ar    1  UNL1        0.1059
     25 C           4.6345   -1.1366   28.4965 C.ar    1  UNL1        0.0215
     26 C           5.8947   -1.7062   27.9155 C.ar    1  UNL1        0.0382
     27 C           6.0102   -1.9153   26.4347 C.ar    1  UNL1        0.1390
     28 C           4.8655   -1.5547   25.5348 C.ar    1  UNL1        0.0382
     29 C           3.6053   -0.9850   26.1158 C.ar    1  UNL1        0.0215
     30 C           0.9696    0.3634   28.7586 C.3     1  UNL1        0.1816
     31 S           2.2298   -0.2063   28.1777 S.O2    1  UNL1        0.0105
     32 O           2.4507   -0.9974   29.4329 O.2     1  UNL1       -0.1686
     33 O           2.0087    0.5848   26.9226 O.2     1  UNL1       -0.1686
@<TRIPOS>BOND
     1    30    31    1
     2    31    32    2
     3    31    33    2
     4    31    24    1
     5    24    25   ar
     6    25    26   ar
     7    26    27   ar
     8    27    23    1
     9     1    23    1
    10     1     2    1
    11     2     3   ar
    12     3     4   ar
    13     4     5    1
    14     4     6   ar
    15     6     7   ar
    16     7     8    1
    17     7     9   ar
    18     9    10    1
    19    10    11    1
    20    11    12    1
    21    12    13    1
    22    13    14    1
    23    14    15    1
    24    15    16    1
    25    16    18    1
    26    18    20    1
    27    20    21    1
    28    21    22    1
    29    16    17    1
    30    27    28   ar
    31    28    29   ar
    32    29    24   ar
    33    11     1    1
    34    17    12    1
    35     9     2   ar
    36    18    19    1
