@<TRIPOS>MOLECULE
*****
 29 31 0 0 0
SMALL
GASTEIGER

@<TRIPOS>ATOM
      1 C          -6.8553  -19.6370   20.3317 C.ar    1  UNL1        0.1404
      2 C          -5.3703  -19.7893   20.1851 C.ar    1  UNL1        0.0430
      3 C          -4.4454  -19.0222   21.0831 C.ar    1  UNL1        0.0754
      4 C          -5.0056  -18.1028   22.1275 C.ar    1  UNL1        0.1033
      5 N          -4.3464  -17.2239   23.1488 N.ar    1  UNL1       -0.2238
      6 C          -5.4241  -16.5284   23.9265 C.ar    1  UNL1        0.1788
      7 N          -6.7493  -16.9774   23.3859 N.ar    1  UNL1       -0.3031
      8 C          -6.4906  -17.9505   22.2740 C.ar    1  UNL1        0.0824
      9 C          -7.4155  -18.7176   21.3761 C.ar    1  UNL1        0.0556
     10 C          -2.9603  -19.1746   20.9365 C.2     1  UNL1        0.2475
     11 O          -2.2340  -20.2295   21.7173 O.2     1  UNL1       -0.2701
     12 N          -2.2017  -18.2722   20.0091 N.am    1  UNL1       -0.2982
     13 H          -2.6784  -17.5799   19.4966 H       1  UNL1        0.1498
     14 C          -0.7167  -18.4247   19.8626 C.3     1  UNL1        0.1280
     15 C           0.1810  -17.2371   20.0468 C.3     1  UNL1        0.2144
     16 F           1.5999  -17.4315   20.4928 F       1  UNL1       -0.2324
     17 C          -9.1484  -19.8682   19.1326 C.3     1  UNL1        0.2525
     18 O          -7.7802  -20.4040   19.4337 O.3     1  UNL1       -0.4714
     19 C          -8.0966  -16.5316   23.8718 C.3     1  UNL1        0.1531
     20 C          -9.1892  -17.5379   24.0807 C.ar    1  UNL1        0.0823
     21 N          -8.9140  -18.7945   24.8521 N.ar    1  UNL1       -0.2266
     22 C         -10.0065  -19.8008   25.0611 C.ar    1  UNL1        0.1998
     23 N         -11.3744  -19.5503   24.4987 N.ar    1  UNL1       -0.2093
     24 C         -11.6496  -18.2936   23.7273 C.ar    1  UNL1        0.1307
     25 C         -10.5570  -17.2874   23.5183 C.ar    1  UNL1        0.0253
     26 C         -10.8322  -16.0307   22.7470 C.3     1  UNL1        0.0353
     27 N         -13.0175  -18.0432   23.1649 N.pl3   1  UNL1       -0.2899
     28 C         -14.2059  -17.9902   24.0785 C.3     1  UNL1        0.1136
     29 C         -13.1968  -17.8459   21.6888 C.3     1  UNL1        0.1136
@<TRIPOS>BOND
     1    17    18    1
     2    18     1    1
     3     1     2   ar
     4     2     3   ar
     5     3    10    1
     6    10    11    2
     7    10    12   am
     8    12    14    1
     9    14    15    1
    10    15    16    1
    11     3     4   ar
    12     4     5   ar
    13     5     6   ar
    14     6     7   ar
    15     7    19    1
    16    19    20    1
    17    20    21   ar
    18    21    22   ar
    19    22    23   ar
    20    23    24   ar
    21    24    27    1
    22    27    28    1
    23    27    29    1
    24    24    25   ar
    25    25    26    1
    26     7     8   ar
    27     8     9   ar
    28     9     1   ar
    29     8     4   ar
    30    25    20   ar
    31    12    13    1
@<TRIPOS>MOLECULE
*****
 29 31 0 0 0
SMALL
GASTEIGER

@<TRIPOS>ATOM
      1 C          -6.5827  -19.5508   20.6193 C.ar    1  UNL1        0.1404
      2 C          -5.1181  -19.7780   20.3891 C.ar    1  UNL1        0.0430
      3 C          -4.1056  -18.9835   21.1596 C.ar    1  UNL1        0.0754
      4 C          -4.5578  -17.9618   22.1604 C.ar    1  UNL1        0.1033
      5 N          -3.7976  -17.0348   23.0619 N.ar    1  UNL1       -0.2238
      6 C          -4.7925  -16.2347   23.8493 C.ar    1  UNL1        0.1788
      7 N          -6.1676  -16.6672   23.4344 N.ar    1  UNL1       -0.3031
      8 C          -6.0226  -17.7346   22.3906 C.ar    1  UNL1        0.0824
      9 C          -7.0350  -18.5291   21.6201 C.ar    1  UNL1        0.0556
     10 C          -2.6408  -19.2108   20.9294 C.2     1  UNL1        0.2475
     11 O          -1.9497  -20.3698   21.5844 O.2     1  UNL1       -0.2701
     12 N          -1.8674  -18.2792   20.0441 N.am    1  UNL1       -0.2982
     13 H          -2.3210  -17.5185   19.6142 H       1  UNL1        0.1498
     14 C          -0.4027  -18.5065   19.8139 C.3     1  UNL1        0.1280
     15 C           0.5795  -17.4069   20.0900 C.3     1  UNL1        0.2144
     16 F           1.8624  -17.7094   20.8061 F       1  UNL1       -0.2324
     17 C          -8.7998  -19.6643   19.2697 C.3     1  UNL1        0.2525
     18 O          -7.5952  -20.3452   19.8487 O.3     1  UNL1       -0.4714
     19 C          -7.4606  -16.1270   23.9694 C.3     1  UNL1        0.1531
     20 C          -8.7392  -16.3644   23.2218 C.ar    1  UNL1        0.0823
     21 N          -8.9679  -15.6989   21.8971 N.ar    1  UNL1       -0.2266
     22 C         -10.2464  -15.9362   21.1494 C.ar    1  UNL1        0.1998
     23 N         -11.2962  -16.8390   21.7265 N.ar    1  UNL1       -0.2093
     24 C         -11.0674  -17.5044   23.0513 C.ar    1  UNL1        0.1307
     25 C          -9.7890  -17.2671   23.7989 C.ar    1  UNL1        0.0253
     26 C          -9.5601  -17.9325   25.1236 C.3     1  UNL1        0.0353
     27 N         -12.1173  -18.4072   23.6283 N.pl3   1  UNL1       -0.2899
     28 C         -13.5361  -17.9333   23.7382 C.3     1  UNL1        0.1136
     29 C         -11.7481  -19.7840   24.0953 C.3     1  UNL1        0.1136
@<TRIPOS>BOND
     1    17    18    1
     2    18     1    1
     3     1     2   ar
     4     2     3   ar
     5     3    10    1
     6    10    11    2
     7    10    12   am
     8    12    14    1
     9    14    15    1
    10    15    16    1
    11     3     4   ar
    12     4     5   ar
    13     5     6   ar
    14     6     7   ar
    15     7    19    1
    16    19    20    1
    17    20    21   ar
    18    21    22   ar
    19    22    23   ar
    20    23    24   ar
    21    24    27    1
    22    27    28    1
    23    27    29    1
    24    24    25   ar
    25    25    26    1
    26     7     8   ar
    27     8     9   ar
    28     9     1   ar
    29     8     4   ar
    30    25    20   ar
    31    12    13    1
@<TRIPOS>MOLECULE
*****
 29 31 0 0 0
SMALL
GASTEIGER

@<TRIPOS>ATOM
      1 C           3.9004   -1.5315   23.8518 C.ar    1  UNL1        0.1404
      2 C           4.9229   -2.4293   24.4829 C.ar    1  UNL1        0.0430
      3 C           5.6673   -3.4248   23.6433 C.ar    1  UNL1        0.0754
      4 C           5.3890   -3.5225   22.1726 C.ar    1  UNL1        0.1033
      5 N           5.9610   -4.4002   21.0990 N.ar    1  UNL1       -0.2238
      6 C           5.2919   -4.0448   19.8044 C.ar    1  UNL1        0.1788
      7 N           4.3065   -2.9475   20.0778 N.ar    1  UNL1       -0.3031
      8 C           4.3665   -2.6247   21.5414 C.ar    1  UNL1        0.0824
      9 C           3.6222   -1.6291   22.3810 C.ar    1  UNL1        0.0556
     10 C           6.6898   -4.3227   24.2745 C.2     1  UNL1        0.2475
     11 O           6.6948   -4.5250   25.7608 O.2     1  UNL1       -0.2701
     12 N           7.7072   -5.0181   23.4194 N.am    1  UNL1       -0.2982
     13 H           7.7039   -4.8853   22.4439 H       1  UNL1        0.1498
     14 C           8.7297   -5.9159   24.0507 C.3     1  UNL1        0.1280
     15 C           8.4962   -7.3966   24.1052 C.3     1  UNL1        0.2144
     16 F           7.6021   -7.9767   25.1607 F       1  UNL1       -0.2324
     17 C           2.2078    0.4300   24.0450 C.3     1  UNL1        0.2525
     18 O           3.1560   -0.5359   24.6913 O.3     1  UNL1       -0.4714
     19 C           3.4172   -2.2886   19.0654 C.3     1  UNL1        0.1531
     20 C           3.5385   -0.8163   18.8057 C.ar    1  UNL1        0.0823
     21 N           4.7780   -0.2676   18.1636 N.ar    1  UNL1       -0.2266
     22 C           4.8994    1.2047   17.9039 C.ar    1  UNL1        0.1998
     23 N           3.7811    2.1284   18.2865 N.ar    1  UNL1       -0.2093
     24 C           2.5415    1.5797   18.9286 C.ar    1  UNL1        0.1307
     25 C           2.4202    0.1074   19.1882 C.ar    1  UNL1        0.0253
     26 C           1.1807   -0.4413   19.8304 C.3     1  UNL1        0.0353
     27 N           1.4233    2.5034   19.3111 N.pl3   1  UNL1       -0.2899
     28 C           0.3206    2.7904   18.3357 C.3     1  UNL1        0.1136
     29 C           1.4079    3.1402   20.6692 C.3     1  UNL1        0.1136
@<TRIPOS>BOND
     1    17    18    1
     2    18     1    1
     3     1     2   ar
     4     2     3   ar
     5     3    10    1
     6    10    11    2
     7    10    12   am
     8    12    14    1
     9    14    15    1
    10    15    16    1
    11     3     4   ar
    12     4     5   ar
    13     5     6   ar
    14     6     7   ar
    15     7    19    1
    16    19    20    1
    17    20    21   ar
    18    21    22   ar
    19    22    23   ar
    20    23    24   ar
    21    24    27    1
    22    27    28    1
    23    27    29    1
    24    24    25   ar
    25    25    26    1
    26     7     8   ar
    27     8     9   ar
    28     9     1   ar
    29     8     4   ar
    30    25    20   ar
    31    12    13    1
@<TRIPOS>MOLECULE
*****
 29 31 0 0 0
SMALL
GASTEIGER

@<TRIPOS>ATOM
      1 C           0.2320    1.1940   21.2209 C.ar    1  UNL1        0.1404
      2 C           1.0763    0.1961   20.4854 C.ar    1  UNL1        0.0430
      3 C           2.2242   -0.4732   21.1815 C.ar    1  UNL1        0.0754
      4 C           2.5276   -0.1445   22.6133 C.ar    1  UNL1        0.1033
      5 N           3.5854   -0.6398   23.5543 N.ar    1  UNL1       -0.2238
      6 C           3.3948    0.0520   24.8715 C.ar    1  UNL1        0.1788
      7 N           2.2192    0.9750   24.7445 N.ar    1  UNL1       -0.3031
      8 C           1.6832    0.8535   23.3488 C.ar    1  UNL1        0.0824
      9 C           0.5354    1.5228   22.6527 C.ar    1  UNL1        0.0556
     10 C           3.0685   -1.4712   20.4459 C.2     1  UNL1        0.2475
     11 O           3.2310   -1.3645   18.9585 O.2     1  UNL1       -0.2701
     12 N           3.7503   -2.5758   21.1976 N.am    1  UNL1       -0.2982
     13 H           3.6436   -2.6458   22.1738 H       1  UNL1        0.1498
     14 C           4.5946   -3.5737   20.4619 C.3     1  UNL1        0.1280
     15 C           3.9456   -4.7131   19.7334 C.3     1  UNL1        0.2144
     16 F           2.7018   -4.4777   18.9288 F       1  UNL1       -0.2324
     17 C          -0.8382    3.3217   20.1829 C.3     1  UNL1        0.2525
     18 O          -0.9159    1.8633   20.5248 O.3     1  UNL1       -0.4714
     19 C           1.6751    1.8633   25.8237 C.3     1  UNL1        0.1531
     20 C           1.0985    1.2615   27.0709 C.ar    1  UNL1        0.0823
     21 N          -0.3235    0.7846   27.0853 N.ar    1  UNL1       -0.2266
     22 C          -0.9002    0.1827   28.3324 C.ar    1  UNL1        0.1998
     23 N          -0.0546    0.0579   29.5652 N.ar    1  UNL1       -0.2093
     24 C           1.3674    0.5349   29.5507 C.ar    1  UNL1        0.1307
     25 C           1.9440    1.1367   28.3036 C.ar    1  UNL1        0.0253
     26 C           3.3660    1.6137   28.2891 C.3     1  UNL1        0.0353
     27 N           2.2129    0.4100   30.7835 N.pl3   1  UNL1       -0.2899
     28 C           3.0816   -0.7971   30.9781 C.3     1  UNL1        0.1136
     29 C           2.1895    1.4925   31.8216 C.3     1  UNL1        0.1136
@<TRIPOS>BOND
     1    17    18    1
     2    18     1    1
     3     1     2   ar
     4     2     3   ar
     5     3    10    1
     6    10    11    2
     7    10    12   am
     8    12    14    1
     9    14    15    1
    10    15    16    1
    11     3     4   ar
    12     4     5   ar
    13     5     6   ar
    14     6     7   ar
    15     7    19    1
    16    19    20    1
    17    20    21   ar
    18    21    22   ar
    19    22    23   ar
    20    23    24   ar
    21    24    27    1
    22    27    28    1
    23    27    29    1
    24    24    25   ar
    25    25    26    1
    26     7     8   ar
    27     8     9   ar
    28     9     1   ar
    29     8     4   ar
    30    25    20   ar
    31    12    13    1
@<TRIPOS>MOLECULE
*****
 29 31 0 0 0
SMALL
GASTEIGER

@<TRIPOS>ATOM
      1 C           6.0414    0.2050   35.3945 C.ar    1  UNL1        0.1404
      2 C           5.3555    0.2705   36.7268 C.ar    1  UNL1        0.0430
      3 C           4.0385    0.9764   36.8586 C.ar    1  UNL1        0.0754
      4 C           3.4076    1.6169   35.6579 C.ar    1  UNL1        0.1033
      5 N           2.1260    2.3764   35.4827 N.ar    1  UNL1       -0.2238
      6 C           2.0199    2.7803   34.0420 C.ar    1  UNL1        0.1788
      7 N           3.2359    2.2705   33.3268 N.ar    1  UNL1       -0.3031
      8 C           4.0935    1.5514   34.3255 C.ar    1  UNL1        0.0824
      9 C           5.4104    0.8455   34.1938 C.ar    1  UNL1        0.0556
     10 C           3.3527    1.0419   38.1910 C.2     1  UNL1        0.2475
     11 O           4.0862    1.5729   39.3868 O.2     1  UNL1       -0.2701
     12 N           1.9333    0.5762   38.3276 N.am    1  UNL1       -0.2982
     13 H           1.4519    0.2277   37.5427 H       1  UNL1        0.1498
     14 C           1.2475    0.6417   39.6600 C.3     1  UNL1        0.1280
     15 C           0.5404    1.8965   40.0787 C.3     1  UNL1        0.2144
     16 F          -0.1467    2.7483   39.0529 F       1  UNL1       -0.2324
     17 C           8.4548    0.1050   34.4376 C.3     1  UNL1        0.2525
     18 O           7.3584   -0.5009   35.2628 O.3     1  UNL1       -0.4714
     19 C           3.5406    2.4484   31.8689 C.3     1  UNL1        0.1531
     20 C           3.1968    1.3626   30.8928 C.ar    1  UNL1        0.0823
     21 N           4.1624    0.2413   30.6476 N.ar    1  UNL1       -0.2266
     22 C           3.8186   -0.8446   29.6715 C.ar    1  UNL1        0.1998
     23 N           2.5092   -0.8090   28.9406 N.ar    1  UNL1       -0.2093
     24 C           1.5436    0.3125   29.1858 C.ar    1  UNL1        0.1307
     25 C           1.8874    1.3982   30.1619 C.ar    1  UNL1        0.0253
     26 C           0.9219    2.5196   30.4071 C.3     1  UNL1        0.0353
     27 N           0.2342    0.3480   28.4549 N.pl3   1  UNL1       -0.2899
     28 C           0.1149    1.1064   27.1664 C.3     1  UNL1        0.1136
     29 C          -0.9558   -0.3751   29.0126 C.3     1  UNL1        0.1136
@<TRIPOS>BOND
     1    17    18    1
     2    18     1    1
     3     1     2   ar
     4     2     3   ar
     5     3    10    1
     6    10    11    2
     7    10    12   am
     8    12    14    1
     9    14    15    1
    10    15    16    1
    11     3     4   ar
    12     4     5   ar
    13     5     6   ar
    14     6     7   ar
    15     7    19    1
    16    19    20    1
    17    20    21   ar
    18    21    22   ar
    19    22    23   ar
    20    23    24   ar
    21    24    27    1
    22    27    28    1
    23    27    29    1
    24    24    25   ar
    25    25    26    1
    26     7     8   ar
    27     8     9   ar
    28     9     1   ar
    29     8     4   ar
    30    25    20   ar
    31    12    13    1
@<TRIPOS>MOLECULE
*****
 29 31 0 0 0
SMALL
GASTEIGER

@<TRIPOS>ATOM
      1 C           3.9138    0.6721   34.2076 C.ar    1  UNL1        0.1404
      2 C           3.4329    0.2826   32.8413 C.ar    1  UNL1        0.0430
      3 C           2.4124    1.1264   32.1365 C.ar    1  UNL1        0.0754
      4 C           1.8729    2.3597   32.7982 C.ar    1  UNL1        0.1033
      5 N           0.8677    3.3799   32.3522 N.ar    1  UNL1       -0.2238
      6 C           0.7274    4.3999   33.4430 C.ar    1  UNL1        0.1788
      7 N           1.6459    4.0102   34.5631 N.ar    1  UNL1       -0.3031
      8 C           2.3539    2.7492   34.1645 C.ar    1  UNL1        0.0824
      9 C           3.3743    1.9054   34.8693 C.ar    1  UNL1        0.0556
     10 C           1.9315    0.7368   30.7701 C.2     1  UNL1        0.2475
     11 O           2.7490   -0.1942   29.9246 O.2     1  UNL1       -0.2701
     12 N           0.6332    1.2781   30.2494 N.am    1  UNL1       -0.2982
     13 H           0.0966    1.8891   30.8043 H       1  UNL1        0.1498
     14 C           0.1524    0.8884   28.8830 C.3     1  UNL1        0.1280
     15 C          -1.2788    0.4894   28.6770 C.3     1  UNL1        0.2144
     16 F          -1.6464   -0.9617   28.5803 F       1  UNL1       -0.2324
     17 C           5.0776   -0.0864   36.4031 C.3     1  UNL1        0.2525
     18 O           4.9343   -0.1717   34.9124 O.3     1  UNL1       -0.4714
     19 C           1.8249    4.7513   35.8549 C.3     1  UNL1        0.1531
     20 C           2.1558    4.0005   37.1106 C.ar    1  UNL1        0.0823
     21 N           1.1251    3.1187   37.7508 N.ar    1  UNL1       -0.2266
     22 C           1.4558    2.3679   39.0066 C.ar    1  UNL1        0.1998
     23 N           2.8175    2.4990   39.6221 N.ar    1  UNL1       -0.2093
     24 C           3.8482    3.3809   38.9818 C.ar    1  UNL1        0.1307
     25 C           3.5174    4.1316   37.7262 C.ar    1  UNL1        0.0253
     26 C           4.5481    5.0135   37.0859 C.3     1  UNL1        0.0353
     27 N           5.2098    3.5120   39.5974 N.pl3   1  UNL1       -0.2899
     28 C           5.4539    4.5343   40.6675 C.3     1  UNL1        0.1136
     29 C           6.3273    2.6206   39.1428 C.3     1  UNL1        0.1136
@<TRIPOS>BOND
     1    17    18    1
     2    18     1    1
     3     1     2   ar
     4     2     3   ar
     5     3    10    1
     6    10    11    2
     7    10    12   am
     8    12    14    1
     9    14    15    1
    10    15    16    1
    11     3     4   ar
    12     4     5   ar
    13     5     6   ar
    14     6     7   ar
    15     7    19    1
    16    19    20    1
    17    20    21   ar
    18    21    22   ar
    19    22    23   ar
    20    23    24   ar
    21    24    27    1
    22    27    28    1
    23    27    29    1
    24    24    25   ar
    25    25    26    1
    26     7     8   ar
    27     8     9   ar
    28     9     1   ar
    29     8     4   ar
    30    25    20   ar
    31    12    13    1
@<TRIPOS>MOLECULE
*****
 29 31 0 0 0
SMALL
GASTEIGER

@<TRIPOS>ATOM
      1 C          -6.5362  -19.4138   20.8210 C.ar    1  UNL1        0.1404
      2 C          -5.0765  -19.5922   20.5257 C.ar    1  UNL1        0.0430
      3 C          -4.0540  -18.8155   21.3011 C.ar    1  UNL1        0.0754
      4 C          -4.4913  -17.8603   22.3717 C.ar    1  UNL1        0.1033
      5 N          -3.7189  -16.9644   23.2941 N.ar    1  UNL1       -0.2238
      6 C          -4.7014  -16.2323   24.1595 C.ar    1  UNL1        0.1788
      7 N          -6.0809  -16.6757   23.7719 N.ar    1  UNL1       -0.3031
      8 C          -5.9511  -17.6819   22.6670 C.ar    1  UNL1        0.0824
      9 C          -6.9736  -18.4586   21.8916 C.ar    1  UNL1        0.0556
     10 C          -2.5942  -18.9939   21.0057 C.2     1  UNL1        0.2475
     11 O          -1.8002  -20.0288   21.7464 O.2     1  UNL1       -0.2701
     12 N          -1.9284  -18.1375   19.9698 N.am    1  UNL1       -0.2982
     13 H          -2.4495  -17.4583   19.4836 H       1  UNL1        0.1498
     14 C          -0.4686  -18.3161   19.6745 C.3     1  UNL1        0.1280
     15 C           0.5037  -17.2248   20.0116 C.3     1  UNL1        0.2144
     16 F           1.8002  -17.5580   20.6884 F       1  UNL1       -0.2324
     17 C          -8.5219  -19.4736   19.1466 C.3     1  UNL1        0.2525
     18 O          -7.5587  -20.1906   20.0456 O.3     1  UNL1       -0.4714
     19 C          -7.3648  -16.1970   24.3821 C.3     1  UNL1        0.1531
     20 C          -8.6597  -16.8651   24.0256 C.ar    1  UNL1        0.0823
     21 N          -9.1954  -17.9701   24.8869 N.ar    1  UNL1       -0.2266
     22 C         -10.4903  -18.6382   24.5304 C.ar    1  UNL1        0.1998
     23 N         -11.2492  -18.2013   23.3126 N.ar    1  UNL1       -0.2093
     24 C         -10.7134  -17.0963   22.4513 C.ar    1  UNL1        0.1307
     25 C          -9.4186  -16.4282   22.8078 C.ar    1  UNL1        0.0253
     26 C          -8.8828  -15.3232   21.9465 C.3     1  UNL1        0.0353
     27 N         -11.4724  -16.6595   21.2334 N.pl3   1  UNL1       -0.2899
     28 C         -12.9363  -16.9630   21.1132 C.3     1  UNL1        0.1136
     29 C         -10.7673  -15.9191   20.1359 C.3     1  UNL1        0.1136
@<TRIPOS>BOND
     1    17    18    1
     2    18     1    1
     3     1     2   ar
     4     2     3   ar
     5     3    10    1
     6    10    11    2
     7    10    12   am
     8    12    14    1
     9    14    15    1
    10    15    16    1
    11     3     4   ar
    12     4     5   ar
    13     5     6   ar
    14     6     7   ar
    15     7    19    1
    16    19    20    1
    17    20    21   ar
    18    21    22   ar
    19    22    23   ar
    20    23    24   ar
    21    24    27    1
    22    27    28    1
    23    27    29    1
    24    24    25   ar
    25    25    26    1
    26     7     8   ar
    27     8     9   ar
    28     9     1   ar
    29     8     4   ar
    30    25    20   ar
    31    12    13    1
@<TRIPOS>MOLECULE
*****
 29 31 0 0 0
SMALL
GASTEIGER

@<TRIPOS>ATOM
      1 C           4.5355   -2.4555   23.3513 C.ar    1  UNL1        0.1404
      2 C           4.1014   -1.6842   24.5623 C.ar    1  UNL1        0.0430
      3 C           3.1492   -0.5342   24.4175 C.ar    1  UNL1        0.0754
      4 C           2.6313   -0.1555   23.0617 C.ar    1  UNL1        0.1033
      5 N           1.6899    0.9222   22.6119 N.ar    1  UNL1       -0.2238
      6 C           1.5423    0.8169   21.1229 C.ar    1  UNL1        0.1788
      7 N           2.3925   -0.3258   20.6524 N.ar    1  UNL1       -0.3031
      8 C           3.0655   -0.9269   21.8506 C.ar    1  UNL1        0.0824
      9 C           4.0176   -2.0768   21.9955 C.ar    1  UNL1        0.0556
     10 C           2.7150    0.2371   25.6286 C.2     1  UNL1        0.2475
     11 O           3.6690    0.4442   26.7675 O.2     1  UNL1       -0.2701
     12 N           1.3270    0.8011   25.7007 N.am    1  UNL1       -0.2982
     13 H           0.7010    0.6652   24.9532 H       1  UNL1        0.1498
     14 C           0.8930    1.5724   26.9118 C.3     1  UNL1        0.1280
     15 C          -0.5094    1.4344   27.4260 C.3     1  UNL1        0.2144
     16 F          -0.9256    0.1849   28.1439 F       1  UNL1       -0.2324
     17 C           6.7757   -3.6141   22.7274 C.3     1  UNL1        0.2525
     18 O           5.4877   -3.6055   23.4961 O.3     1  UNL1       -0.4714
     19 C           2.5431   -0.7866   19.2329 C.3     1  UNL1        0.1531
     20 C           3.9012   -1.1285   18.6955 C.ar    1  UNL1        0.0823
     21 N           4.3145   -2.5640   18.5601 N.ar    1  UNL1       -0.2266
     22 C           5.6725   -2.9060   18.0227 C.ar    1  UNL1        0.1998
     23 N           6.6172   -1.8123   17.6206 N.ar    1  UNL1       -0.2093
     24 C           6.2037   -0.3768   17.7559 C.ar    1  UNL1        0.1307
     25 C           4.8458   -0.0349   18.2934 C.ar    1  UNL1        0.0253
     26 C           4.4323    1.4006   18.4287 C.3     1  UNL1        0.0353
     27 N           7.1484    0.7168   17.3538 N.pl3   1  UNL1       -0.2899
     28 C           8.1812    1.2099   18.3233 C.3     1  UNL1        0.1136
     29 C           7.0602    1.3172   15.9821 C.3     1  UNL1        0.1136
@<TRIPOS>BOND
     1    17    18    1
     2    18     1    1
     3     1     2   ar
     4     2     3   ar
     5     3    10    1
     6    10    11    2
     7    10    12   am
     8    12    14    1
     9    14    15    1
    10    15    16    1
    11     3     4   ar
    12     4     5   ar
    13     5     6   ar
    14     6     7   ar
    15     7    19    1
    16    19    20    1
    17    20    21   ar
    18    21    22   ar
    19    22    23   ar
    20    23    24   ar
    21    24    27    1
    22    27    28    1
    23    27    29    1
    24    24    25   ar
    25    25    26    1
    26     7     8   ar
    27     8     9   ar
    28     9     1   ar
    29     8     4   ar
    30    25    20   ar
    31    12    13    1
@<TRIPOS>MOLECULE
*****
 29 31 0 0 0
SMALL
GASTEIGER

@<TRIPOS>ATOM
      1 C           1.6208    4.1275   33.1948 C.ar    1  UNL1        0.1404
      2 C           1.9965    3.7019   34.5831 C.ar    1  UNL1        0.0430
      3 C           2.6918    2.3912   34.8035 C.ar    1  UNL1        0.0754
      4 C           3.0113    1.5060   33.6354 C.ar    1  UNL1        0.1033
      5 N           3.6846    0.1687   33.5441 N.ar    1  UNL1       -0.2238
      6 C           3.7250   -0.2321   32.0993 C.ar    1  UNL1        0.1788
      7 N           3.0766    0.8574   31.2976 N.ar    1  UNL1       -0.3031
      8 C           2.6355    1.9316   32.2470 C.ar    1  UNL1        0.0824
      9 C           1.9403    3.2423   32.0267 C.ar    1  UNL1        0.0556
     10 C           3.0675    1.9656   36.1920 C.2     1  UNL1        0.2475
     11 O           4.5024    1.6864   36.5283 O.2     1  UNL1       -0.2701
     12 N           2.0084    1.8194   37.2440 N.am    1  UNL1       -0.2982
     13 H           1.0667    2.0027   37.0233 H       1  UNL1        0.1498
     14 C           2.3842    1.3939   38.6324 C.3     1  UNL1        0.1280
     15 C           1.3309    0.8872   39.5725 C.3     1  UNL1        0.2144
     16 F           0.9949   -0.5744   39.6052 F       1  UNL1       -0.2324
     17 C          -0.5578    5.5429   33.1716 C.3     1  UNL1        0.2525
     18 O           0.9255    5.4383   32.9743 O.3     1  UNL1       -0.4714
     19 C           2.9003    0.8703   29.8080 C.3     1  UNL1        0.1531
     20 C           1.5221    0.8727   29.2159 C.ar    1  UNL1        0.0823
     21 N           0.5307   -0.1780   29.6195 N.ar    1  UNL1       -0.2266
     22 C          -0.8475   -0.1756   29.0274 C.ar    1  UNL1        0.1998
     23 N          -1.2341    0.8776   28.0316 N.ar    1  UNL1       -0.2093
     24 C          -0.2426    1.9282   27.6281 C.ar    1  UNL1        0.1307
     25 C           1.1355    1.9258   28.2202 C.ar    1  UNL1        0.0253
     26 C           2.1271    2.9765   27.8166 C.3     1  UNL1        0.0353
     27 N          -0.6293    2.9813   26.6323 N.pl3   1  UNL1       -0.2899
     28 C          -1.0939    4.3266   27.1056 C.3     1  UNL1        0.1136
     29 C          -0.5513    2.6890   25.1631 C.3     1  UNL1        0.1136
@<TRIPOS>BOND
     1    17    18    1
     2    18     1    1
     3     1     2   ar
     4     2     3   ar
     5     3    10    1
     6    10    11    2
     7    10    12   am
     8    12    14    1
     9    14    15    1
    10    15    16    1
    11     3     4   ar
    12     4     5   ar
    13     5     6   ar
    14     6     7   ar
    15     7    19    1
    16    19    20    1
    17    20    21   ar
    18    21    22   ar
    19    22    23   ar
    20    23    24   ar
    21    24    27    1
    22    27    28    1
    23    27    29    1
    24    24    25   ar
    25    25    26    1
    26     7     8   ar
    27     8     9   ar
    28     9     1   ar
    29     8     4   ar
    30    25    20   ar
    31    12    13    1
