@<TRIPOS>MOLECULE
*****
 27 29 0 0 0
SMALL
GASTEIGER

@<TRIPOS>ATOM
      1 C          -7.4822  -19.5151   20.0588 C.2     1  UNL1        0.2252
      2 O          -7.5187  -18.0820   20.4998 O.2     1  UNL1       -0.2750
      3 N          -8.6436  -20.0994   19.3105 N.am    1  UNL1       -0.3004
      4 H          -8.6197  -21.0401   19.0210 H       1  UNL1        0.1497
      5 C          -6.2843  -20.3642   20.3661 C.3     1  UNL1        0.1154
      6 C          -6.4066  -20.5304   22.3628 C.3     1  UNL1        0.0335
      7 C          -5.3452  -19.9661   21.4657 C.3     1  UNL1        0.1377
      8 C          -4.4800  -19.4851   20.3387 C.3     1  UNL1        0.0613
      9 C          -3.2279  -18.9076   20.9294 C.3     1  UNL1        0.1290
     10 C          -2.0353  -18.3665   21.6608 C.3     1  UNL1        0.0305
     11 C          -0.8926  -17.7697   20.8940 C.3     1  UNL1        0.0025
     12 C          -0.9425  -17.7139   19.3959 C.3     1  UNL1        0.0002
     13 C          -2.1351  -18.2549   18.6645 C.3     1  UNL1        0.0025
     14 C          -3.2778  -18.8518   19.4313 C.3     1  UNL1        0.0305
     15 O          -3.3192  -19.0317   22.4215 O.3     1  UNL1       -0.2256
     16 O          -4.6278  -19.6860   22.7530 O.3     1  UNL1       -0.2251
     17 C          -9.8414  -19.2504   19.0032 C.3     1  UNL1        0.1163
     18 C         -10.7162  -18.7565   20.1171 C.ar    1  UNL1       -0.0024
     19 C         -10.8491  -19.5579   21.3781 C.ar    1  UNL1        0.0005
     20 C         -11.7239  -19.0641   22.4920 C.ar    1  UNL1        0.0368
     21 C         -12.4659  -17.7688   22.3449 C.ar    1  UNL1        0.1443
     22 C         -12.3331  -16.9674   21.0840 C.ar    1  UNL1        0.0368
     23 C         -11.4583  -17.4613   19.9700 C.ar    1  UNL1        0.0005
     24 O         -13.3408  -17.2750   23.4588 O.3     1  UNL1       -0.4236
     25 C         -13.9882  -18.2530   24.3938 C.3     1  UNL1        0.5087
     26 F         -15.4004  -18.6981   24.1537 F       1  UNL1       -0.1550
     27 F         -13.2235  -18.7861   25.5690 F       1  UNL1       -0.1550
@<TRIPOS>BOND
     1     6     7    1
     2     7     5    1
     3     5     1    1
     4     1     2    2
     5     1     3   am
     6     3    17    1
     7    17    18    1
     8    18    19   ar
     9    19    20   ar
    10    20    21   ar
    11    21    24    1
    12    24    25    1
    13    25    26    1
    14    25    27    1
    15    21    22   ar
    16    22    23   ar
    17     7     8    1
    18     8     9    1
    19     9    10    1
    20    10    11    1
    21    11    12    1
    22    12    13    1
    23    13    14    1
    24     9    15    1
    25    15    16    1
    26    16     7    1
    27    23    18   ar
    28    14     9    1
    29     3     4    1
@<TRIPOS>MOLECULE
*****
 27 29 0 0 0
SMALL
GASTEIGER

@<TRIPOS>ATOM
      1 C          -8.8696  -18.4249   21.6096 C.2     1  UNL1        0.2252
      2 O          -9.0737  -18.5454   20.1285 O.2     1  UNL1       -0.2750
      3 N          -7.7974  -19.2263   22.2867 N.am    1  UNL1       -0.3004
      4 H          -7.6635  -19.1472   23.2588 H       1  UNL1        0.1497
      5 C          -9.7377  -17.5029   22.4138 C.3     1  UNL1        0.1154
      6 C         -11.0831  -18.5880   23.4347 C.3     1  UNL1        0.0335
      7 C          -9.9276  -17.7426   23.8822 C.3     1  UNL1        0.1377
      8 C          -8.7325  -16.8471   24.0228 C.3     1  UNL1        0.0613
      9 C          -8.4253  -16.7100   25.4846 C.3     1  UNL1        0.1290
     10 C          -8.2408  -16.6675   26.9726 C.3     1  UNL1        0.0305
     11 C          -7.1244  -15.8612   27.5671 C.3     1  UNL1        0.0025
     12 C          -6.1925  -15.0975   26.6736 C.3     1  UNL1        0.0002
     13 C          -6.3770  -15.1400   25.1857 C.3     1  UNL1        0.0025
     14 C          -7.4934  -15.9463   24.5912 C.3     1  UNL1        0.0305
     15 O          -9.4307  -17.5208   26.2475 O.3     1  UNL1       -0.2256
     16 O         -10.3592  -18.1590   25.2572 O.3     1  UNL1       -0.2251
     17 C          -6.9294  -20.1481   21.4825 C.3     1  UNL1        0.1163
     18 C          -5.4662  -19.8563   21.3285 C.ar    1  UNL1       -0.0024
     19 C          -4.7584  -19.0126   22.3469 C.ar    1  UNL1        0.0005
     20 C          -3.2951  -18.7208   22.1929 C.ar    1  UNL1        0.0368
     21 C          -2.5397  -19.2727   21.0204 C.ar    1  UNL1        0.1443
     22 C          -3.2474  -20.1164   20.0020 C.ar    1  UNL1        0.0368
     23 C          -4.7107  -20.4083   20.1560 C.ar    1  UNL1        0.0005
     24 O          -1.0764  -18.9809   20.8664 O.3     1  UNL1       -0.4236
     25 C          -0.6132  -17.9904   19.8397 C.3     1  UNL1        0.5087
     26 F          -1.3503  -17.8572   18.5401 F       1  UNL1       -0.1550
     27 F           0.5871  -17.1331   20.1124 F       1  UNL1       -0.1550
@<TRIPOS>BOND
     1     6     7    1
     2     7     5    1
     3     5     1    1
     4     1     2    2
     5     1     3   am
     6     3    17    1
     7    17    18    1
     8    18    19   ar
     9    19    20   ar
    10    20    21   ar
    11    21    24    1
    12    24    25    1
    13    25    26    1
    14    25    27    1
    15    21    22   ar
    16    22    23   ar
    17     7     8    1
    18     8     9    1
    19     9    10    1
    20    10    11    1
    21    11    12    1
    22    12    13    1
    23    13    14    1
    24     9    15    1
    25    15    16    1
    26    16     7    1
    27    23    18   ar
    28    14     9    1
    29     3     4    1
@<TRIPOS>MOLECULE
*****
 27 29 0 0 0
SMALL
GASTEIGER

@<TRIPOS>ATOM
      1 C          -6.9123  -18.7217   21.7550 C.2     1  UNL1        0.2252
      2 O          -7.7860  -18.5866   20.5434 O.2     1  UNL1       -0.2750
      3 N          -7.0586  -17.7594   22.8964 N.am    1  UNL1       -0.3004
      4 H          -6.4851  -17.8481   23.6917 H       1  UNL1        0.1497
      5 C          -5.8921  -19.8192   21.8255 C.3     1  UNL1        0.1154
      6 C          -5.8797  -21.1510   20.3235 C.3     1  UNL1        0.0335
      7 C          -4.9436  -20.0358   20.6839 C.3     1  UNL1        0.1377
      8 C          -4.2058  -18.8752   21.2829 C.3     1  UNL1        0.0613
      9 C          -2.9968  -18.6076   20.4362 C.3     1  UNL1        0.1290
     10 C          -1.8346  -18.4600   19.4995 C.3     1  UNL1        0.0305
     11 C          -0.8142  -17.3858   19.7340 C.3     1  UNL1        0.0025
     12 C          -0.9561  -16.4593   20.9051 C.3     1  UNL1        0.0002
     13 C          -2.1183  -16.6070   21.8417 C.3     1  UNL1        0.0025
     14 C          -3.1386  -17.6811   21.6073 C.3     1  UNL1        0.0305
     15 O          -2.9875  -19.6028   19.3138 O.3     1  UNL1       -0.2256
     16 O          -4.1907  -20.4854   19.4669 O.3     1  UNL1       -0.2251
     17 C          -8.0787  -16.6619   22.8260 C.3     1  UNL1        0.1163
     18 C          -9.5397  -16.9890   22.9179 C.ar    1  UNL1       -0.0024
     19 C          -9.9991  -18.1383   23.7653 C.ar    1  UNL1        0.0005
     20 C         -11.4601  -18.4654   23.8572 C.ar    1  UNL1        0.0368
     21 C         -12.4617  -17.6432   23.1017 C.ar    1  UNL1        0.1443
     22 C         -12.0023  -16.4940   22.2543 C.ar    1  UNL1        0.0368
     23 C         -10.5413  -16.1668   22.1624 C.ar    1  UNL1        0.0005
     24 O         -13.9228  -17.9703   23.1937 O.3     1  UNL1       -0.4236
     25 C         -14.5094  -18.4222   24.4981 C.3     1  UNL1        0.5087
     26 F         -15.9574  -18.8064   24.5762 F       1  UNL1       -0.1550
     27 F         -13.6484  -18.4900   25.7244 F       1  UNL1       -0.1550
@<TRIPOS>BOND
     1     6     7    1
     2     7     5    1
     3     5     1    1
     4     1     2    2
     5     1     3   am
     6     3    17    1
     7    17    18    1
     8    18    19   ar
     9    19    20   ar
    10    20    21   ar
    11    21    24    1
    12    24    25    1
    13    25    26    1
    14    25    27    1
    15    21    22   ar
    16    22    23   ar
    17     7     8    1
    18     8     9    1
    19     9    10    1
    20    10    11    1
    21    11    12    1
    22    12    13    1
    23    13    14    1
    24     9    15    1
    25    15    16    1
    26    16     7    1
    27    23    18   ar
    28    14     9    1
    29     3     4    1
@<TRIPOS>MOLECULE
*****
 27 29 0 0 0
SMALL
GASTEIGER

@<TRIPOS>ATOM
      1 C          -7.3223  -15.6927   25.2461 C.2     1  UNL1        0.2252
      2 O          -6.7259  -14.9992   26.4347 O.2     1  UNL1       -0.2750
      3 N          -6.4487  -16.0903   24.0932 N.am    1  UNL1       -0.3004
      4 H          -6.8402  -16.5456   23.3130 H       1  UNL1        0.1497
      5 C          -8.7925  -15.9887   25.2100 C.3     1  UNL1        0.1154
      6 C          -8.8997  -17.2818   26.7418 C.3     1  UNL1        0.0335
      7 C          -9.2742  -17.4067   25.2947 C.3     1  UNL1        0.1377
      8 C          -9.5480  -17.2352   23.8299 C.3     1  UNL1        0.0613
      9 C         -10.1207  -18.5211   23.3116 C.3     1  UNL1        0.1290
     10 C         -10.6796  -19.8625   22.9397 C.3     1  UNL1        0.0305
     11 C         -11.0986  -20.1344   21.5254 C.3     1  UNL1        0.0025
     12 C         -10.9587  -19.0649   20.4829 C.3     1  UNL1        0.0002
     13 C         -10.3998  -17.7236   20.8548 C.3     1  UNL1        0.0025
     14 C          -9.9808  -17.4517   22.2692 C.3     1  UNL1        0.0305
     15 O         -10.2009  -19.4874   24.4562 O.3     1  UNL1       -0.2256
     16 O          -9.6777  -18.7986   25.6818 O.3     1  UNL1       -0.2251
     17 C          -4.9787  -15.7943   24.1293 C.3     1  UNL1        0.1163
     18 C          -4.0355  -16.5720   23.2600 C.ar    1  UNL1       -0.0024
     19 C          -3.0473  -15.8504   22.3925 C.ar    1  UNL1        0.0005
     20 C          -2.1041  -16.6280   21.5232 C.ar    1  UNL1        0.0368
     21 C          -2.1492  -18.1273   21.5215 C.ar    1  UNL1        0.1443
     22 C          -3.1374  -18.8490   22.3890 C.ar    1  UNL1        0.0368
     23 C          -4.0806  -18.0713   23.2583 C.ar    1  UNL1        0.0005
     24 O          -1.2060  -18.9050   20.6521 O.3     1  UNL1       -0.4236
     25 C          -0.2229  -18.1831   19.7790 C.3     1  UNL1        0.5087
     26 F          -0.5808  -17.8538   18.3599 F       1  UNL1       -0.1550
     27 F           1.1180  -17.7905   20.3247 F       1  UNL1       -0.1550
@<TRIPOS>BOND
     1     6     7    1
     2     7     5    1
     3     5     1    1
     4     1     2    2
     5     1     3   am
     6     3    17    1
     7    17    18    1
     8    18    19   ar
     9    19    20   ar
    10    20    21   ar
    11    21    24    1
    12    24    25    1
    13    25    26    1
    14    25    27    1
    15    21    22   ar
    16    22    23   ar
    17     7     8    1
    18     8     9    1
    19     9    10    1
    20    10    11    1
    21    11    12    1
    22    12    13    1
    23    13    14    1
    24     9    15    1
    25    15    16    1
    26    16     7    1
    27    23    18   ar
    28    14     9    1
    29     3     4    1
@<TRIPOS>MOLECULE
*****
 27 29 0 0 0
SMALL
GASTEIGER

@<TRIPOS>ATOM
      1 C         -10.2144  -17.7476   24.7393 C.2     1  UNL1        0.2252
      2 O          -9.4221  -18.2960   25.8888 O.2     1  UNL1       -0.2750
      3 N          -9.8401  -16.4280   24.1321 N.am    1  UNL1       -0.3004
      4 H         -10.3601  -16.0681   23.3776 H       1  UNL1        0.1497
      5 C         -11.3812  -18.5188   24.1969 C.3     1  UNL1        0.1154
      6 C         -13.0456  -17.8947   23.2643 C.3     1  UNL1        0.0335
      7 C         -11.7385  -18.4148   22.7438 C.3     1  UNL1        0.1377
      8 C         -10.3567  -18.9567   22.5271 C.3     1  UNL1        0.0613
      9 C         -10.1332  -19.0789   21.0489 C.3     1  UNL1        0.1290
     10 C         -10.0552  -19.1450   19.5524 C.3     1  UNL1        0.0305
     11 C          -8.8072  -19.6456   18.8878 C.3     1  UNL1        0.0025
     12 C          -7.6371  -20.0801   19.7197 C.3     1  UNL1        0.0002
     13 C          -7.7150  -20.0140   21.2162 C.3     1  UNL1        0.0025
     14 C          -8.9631  -19.5134   21.8808 C.3     1  UNL1        0.0305
     15 O         -11.3769  -18.6125   20.3519 O.3     1  UNL1       -0.2256
     16 O         -12.3691  -18.2021   21.3995 O.3     1  UNL1       -0.2251
     17 C          -8.6734  -15.6569   24.6745 C.3     1  UNL1        0.1163
     18 C          -7.2746  -16.0591   24.3115 C.ar    1  UNL1       -0.0024
     19 C          -6.1081  -15.4459   25.0280 C.ar    1  UNL1        0.0005
     20 C          -4.7094  -15.8480   24.6650 C.ar    1  UNL1        0.0368
     21 C          -4.4771  -16.8633   23.5855 C.ar    1  UNL1        0.1443
     22 C          -5.6435  -17.4765   22.8691 C.ar    1  UNL1        0.0368
     23 C          -7.0424  -17.0744   23.2321 C.ar    1  UNL1        0.0005
     24 O          -3.0783  -17.2654   23.2226 O.3     1  UNL1       -0.4236
     25 C          -2.4743  -16.7970   21.9320 C.3     1  UNL1        0.5087
     26 F          -2.5447  -17.6667   20.7118 F       1  UNL1       -0.1550
     27 F          -1.7999  -15.4590   21.8614 F       1  UNL1       -0.1550
@<TRIPOS>BOND
     1     6     7    1
     2     7     5    1
     3     5     1    1
     4     1     2    2
     5     1     3   am
     6     3    17    1
     7    17    18    1
     8    18    19   ar
     9    19    20   ar
    10    20    21   ar
    11    21    24    1
    12    24    25    1
    13    25    26    1
    14    25    27    1
    15    21    22   ar
    16    22    23   ar
    17     7     8    1
    18     8     9    1
    19     9    10    1
    20    10    11    1
    21    11    12    1
    22    12    13    1
    23    13    14    1
    24     9    15    1
    25    15    16    1
    26    16     7    1
    27    23    18   ar
    28    14     9    1
    29     3     4    1
@<TRIPOS>MOLECULE
*****
 27 29 0 0 0
SMALL
GASTEIGER

@<TRIPOS>ATOM
      1 C          -8.8441  -17.8094   21.0276 C.2     1  UNL1        0.2252
      2 O          -9.0306  -18.7276   19.8563 O.2     1  UNL1       -0.2750
      3 N          -7.8999  -18.1840   22.1314 N.am    1  UNL1       -0.3004
      4 H          -7.7774  -17.5813   22.9002 H       1  UNL1        0.1497
      5 C          -9.6016  -16.5165   21.0951 C.3     1  UNL1        0.1154
      6 C         -10.8723  -15.8273   19.7023 C.3     1  UNL1        0.0335
      7 C         -11.0993  -16.5197   21.0134 C.3     1  UNL1        0.1377
      8 C         -11.0132  -17.2113   22.3417 C.3     1  UNL1        0.0613
      9 C         -12.4104  -17.4973   22.8068 C.3     1  UNL1        0.1290
     10 C         -13.8567  -17.7154   23.1392 C.3     1  UNL1        0.0305
     11 C         -14.2374  -18.3967   24.4201 C.3     1  UNL1        0.0025
     12 C         -13.1717  -18.8599   25.3687 C.3     1  UNL1        0.0002
     13 C         -11.7254  -18.6418   25.0364 C.3     1  UNL1        0.0025
     14 C         -11.3447  -17.9605   23.7554 C.3     1  UNL1        0.0305
     15 O         -13.3599  -16.9824   21.7660 O.3     1  UNL1       -0.2256
     16 O         -12.5497  -16.3782   20.6576 O.3     1  UNL1       -0.2251
     17 C          -7.1424  -19.4769   22.0638 C.3     1  UNL1        0.1163
     18 C          -5.6883  -19.4758   21.6958 C.ar    1  UNL1       -0.0024
     19 C          -4.7143  -18.6563   22.4894 C.ar    1  UNL1        0.0005
     20 C          -3.2602  -18.6551   22.1214 C.ar    1  UNL1        0.0368
     21 C          -2.7800  -19.4736   20.9597 C.ar    1  UNL1        0.1443
     22 C          -3.7538  -20.2931   20.1661 C.ar    1  UNL1        0.0368
     23 C          -5.2080  -20.2942   20.5341 C.ar    1  UNL1        0.0005
     24 O          -1.3258  -19.4724   20.5917 O.3     1  UNL1       -0.4236
     25 C          -0.7552  -18.3383   19.7928 C.3     1  UNL1        0.5087
     26 F           0.4934  -17.6481   20.2562 F       1  UNL1       -0.1550
     27 F          -1.4332  -17.8943   18.5306 F       1  UNL1       -0.1550
@<TRIPOS>BOND
     1     6     7    1
     2     7     5    1
     3     5     1    1
     4     1     2    2
     5     1     3   am
     6     3    17    1
     7    17    18    1
     8    18    19   ar
     9    19    20   ar
    10    20    21   ar
    11    21    24    1
    12    24    25    1
    13    25    26    1
    14    25    27    1
    15    21    22   ar
    16    22    23   ar
    17     7     8    1
    18     8     9    1
    19     9    10    1
    20    10    11    1
    21    11    12    1
    22    12    13    1
    23    13    14    1
    24     9    15    1
    25    15    16    1
    26    16     7    1
    27    23    18   ar
    28    14     9    1
    29     3     4    1
@<TRIPOS>MOLECULE
*****
 27 29 0 0 0
SMALL
GASTEIGER

@<TRIPOS>ATOM
      1 C          -8.9922  -19.1999   20.9642 C.2     1  UNL1        0.2252
      2 O          -9.3930  -18.5086   19.6948 O.2     1  UNL1       -0.2750
      3 N          -7.6203  -19.7924   21.0948 N.am    1  UNL1       -0.3004
      4 H          -7.3573  -20.2461   21.9280 H       1  UNL1        0.1497
      5 C          -9.9634  -19.2987   22.1032 C.3     1  UNL1        0.1154
      6 C         -11.7076  -18.5282   22.7307 C.3     1  UNL1        0.0335
      7 C         -10.2877  -18.0830   22.9198 C.3     1  UNL1        0.1377
      8 C          -8.8001  -17.8920   22.9382 C.3     1  UNL1        0.0613
      9 C          -8.5017  -16.6512   23.7267 C.3     1  UNL1        0.1290
     10 C          -8.3585  -15.3962   24.5355 C.3     1  UNL1        0.0305
     11 C          -6.9961  -14.8305   24.8073 C.3     1  UNL1        0.0025
     12 C          -5.7770  -15.5200   24.2703 C.3     1  UNL1        0.0002
     13 C          -5.9202  -16.7750   23.4614 C.3     1  UNL1        0.0025
     14 C          -7.2826  -17.3406   23.1896 C.3     1  UNL1        0.0305
     15 O          -9.8051  -16.0754   24.1955 O.3     1  UNL1       -0.2256
     16 O         -10.9089  -16.9603   23.6969 O.3     1  UNL1       -0.2251
     17 C          -6.6493  -19.6935   19.9558 C.3     1  UNL1        0.1163
     18 C          -5.1969  -19.4364   20.2287 C.ar    1  UNL1       -0.0024
     19 C          -4.3229  -18.8587   19.1552 C.ar    1  UNL1        0.0005
     20 C          -2.8705  -18.6016   19.4280 C.ar    1  UNL1        0.0368
     21 C          -2.2922  -18.9221   20.7744 C.ar    1  UNL1        0.1443
     22 C          -3.1661  -19.4997   21.8479 C.ar    1  UNL1        0.0368
     23 C          -4.6186  -19.7568   21.5751 C.ar    1  UNL1        0.0005
     24 O          -0.8397  -18.6649   21.0473 O.3     1  UNL1       -0.4236
     25 C          -0.2198  -17.3609   20.6408 C.3     1  UNL1        0.5087
     26 F           1.2054  -17.3212   20.1744 F       1  UNL1       -0.1550
     27 F          -1.0247  -16.0967   20.7008 F       1  UNL1       -0.1550
@<TRIPOS>BOND
     1     6     7    1
     2     7     5    1
     3     5     1    1
     4     1     2    2
     5     1     3   am
     6     3    17    1
     7    17    18    1
     8    18    19   ar
     9    19    20   ar
    10    20    21   ar
    11    21    24    1
    12    24    25    1
    13    25    26    1
    14    25    27    1
    15    21    22   ar
    16    22    23   ar
    17     7     8    1
    18     8     9    1
    19     9    10    1
    20    10    11    1
    21    11    12    1
    22    12    13    1
    23    13    14    1
    24     9    15    1
    25    15    16    1
    26    16     7    1
    27    23    18   ar
    28    14     9    1
    29     3     4    1
@<TRIPOS>MOLECULE
*****
 27 29 0 0 0
SMALL
GASTEIGER

@<TRIPOS>ATOM
      1 C          -7.7602  -18.2176   22.6025 C.2     1  UNL1        0.2252
      2 O          -7.2154  -17.3292   21.5238 O.2     1  UNL1       -0.2750
      3 N          -7.5031  -19.6948   22.5587 N.am    1  UNL1       -0.3004
      4 H          -7.8607  -20.2779   23.2668 H       1  UNL1        0.1497
      5 C          -8.5622  -17.6289   23.7252 C.3     1  UNL1        0.1154
      6 C          -9.8409  -18.4355   25.0457 C.3     1  UNL1        0.0335
      7 C         -10.0568  -17.7559   23.7261 C.3     1  UNL1        0.1377
      8 C          -9.9602  -17.0497   22.4063 C.3     1  UNL1        0.0613
      9 C         -11.3501  -16.8824   21.8673 C.3     1  UNL1        0.1290
     10 C         -12.7901  -16.7879   21.4581 C.3     1  UNL1        0.0305
     11 C         -13.1595  -16.1328   20.1602 C.3     1  UNL1        0.0025
     12 C         -12.0889  -15.5722   19.2716 C.3     1  UNL1        0.0002
     13 C         -10.6489  -15.6667   19.6809 C.3     1  UNL1        0.0025
     14 C         -10.2795  -16.3218   20.9787 C.3     1  UNL1        0.0305
     15 O         -12.3056  -17.4852   22.8540 O.3     1  UNL1       -0.2256
     16 O         -11.5063  -18.0251   24.0029 O.3     1  UNL1       -0.2251
     17 C          -6.7011  -20.2835   21.4361 C.3     1  UNL1        0.1163
     18 C          -5.2491  -19.9369   21.2897 C.ar    1  UNL1       -0.0024
     19 C          -4.5067  -19.3167   22.4360 C.ar    1  UNL1        0.0005
     20 C          -3.0546  -18.9701   22.2895 C.ar    1  UNL1        0.0368
     21 C          -2.3450  -19.2438   20.9967 C.ar    1  UNL1        0.1443
     22 C          -3.0873  -19.8641   19.8504 C.ar    1  UNL1        0.0368
     23 C          -4.5394  -20.2107   19.9968 C.ar    1  UNL1        0.0005
     24 O          -0.8929  -18.8973   20.8503 O.3     1  UNL1       -0.4236
     25 C          -0.4765  -17.7812   19.9388 C.3     1  UNL1        0.5087
     26 F          -1.3994  -17.3172   18.8511 F       1  UNL1       -0.1550
     27 F           0.8627  -17.1289   20.1149 F       1  UNL1       -0.1550
@<TRIPOS>BOND
     1     6     7    1
     2     7     5    1
     3     5     1    1
     4     1     2    2
     5     1     3   am
     6     3    17    1
     7    17    18    1
     8    18    19   ar
     9    19    20   ar
    10    20    21   ar
    11    21    24    1
    12    24    25    1
    13    25    26    1
    14    25    27    1
    15    21    22   ar
    16    22    23   ar
    17     7     8    1
    18     8     9    1
    19     9    10    1
    20    10    11    1
    21    11    12    1
    22    12    13    1
    23    13    14    1
    24     9    15    1
    25    15    16    1
    26    16     7    1
    27    23    18   ar
    28    14     9    1
    29     3     4    1
@<TRIPOS>MOLECULE
*****
 27 29 0 0 0
SMALL
GASTEIGER

@<TRIPOS>ATOM
      1 C          -6.1279  -18.7162   22.1650 C.2     1  UNL1        0.2252
      2 O          -6.0240  -18.6991   20.6688 O.2     1  UNL1       -0.2750
      3 N          -7.4387  -19.0322   22.8223 N.am    1  UNL1       -0.3004
      4 H          -7.5068  -19.0434   23.8044 H       1  UNL1        0.1497
      5 C          -4.9209  -18.4172   23.0041 C.3     1  UNL1        0.1154
      6 C          -5.1984  -16.5380   23.6532 C.3     1  UNL1        0.0335
      7 C          -4.1458  -17.1529   22.7792 C.3     1  UNL1        0.1377
      8 C          -3.2552  -18.0320   21.9523 C.3     1  UNL1        0.0613
      9 C          -2.1495  -17.1825   21.3990 C.3     1  UNL1        0.1290
     10 C          -1.1104  -16.2122   20.9208 C.3     1  UNL1        0.0305
     11 C           0.0064  -16.6841   20.0376 C.3     1  UNL1        0.0025
     12 C           0.0840  -18.1262   19.6325 C.3     1  UNL1        0.0002
     13 C          -0.9551  -19.0966   20.1107 C.3     1  UNL1        0.0025
     14 C          -2.0719  -18.6247   20.9939 C.3     1  UNL1        0.0305
     15 O          -2.3569  -15.7783   21.8840 O.3     1  UNL1       -0.2256
     16 O          -3.5906  -15.7600   22.7371 O.3     1  UNL1       -0.2251
     17 C          -8.6456  -19.3312   21.9833 C.3     1  UNL1        0.1163
     18 C         -10.0045  -18.8899   22.4400 C.ar    1  UNL1       -0.0024
     19 C         -10.5448  -19.3661   23.7558 C.ar    1  UNL1        0.0005
     20 C         -11.9037  -18.9248   24.2125 C.ar    1  UNL1        0.0368
     21 C         -12.7223  -18.0073   23.3534 C.ar    1  UNL1        0.1443
     22 C         -12.1821  -17.5312   22.0377 C.ar    1  UNL1        0.0368
     23 C         -10.8231  -17.9724   21.5809 C.ar    1  UNL1        0.0005
     24 O         -14.0813  -17.5661   23.8102 O.3     1  UNL1       -0.4236
     25 C         -14.8644  -18.4172   24.7652 C.3     1  UNL1        0.5087
     26 F         -16.1112  -19.1111   24.3024 F       1  UNL1       -0.1550
     27 F         -14.4010  -18.5746   26.1831 F       1  UNL1       -0.1550
@<TRIPOS>BOND
     1     6     7    1
     2     7     5    1
     3     5     1    1
     4     1     2    2
     5     1     3   am
     6     3    17    1
     7    17    18    1
     8    18    19   ar
     9    19    20   ar
    10    20    21   ar
    11    21    24    1
    12    24    25    1
    13    25    26    1
    14    25    27    1
    15    21    22   ar
    16    22    23   ar
    17     7     8    1
    18     8     9    1
    19     9    10    1
    20    10    11    1
    21    11    12    1
    22    12    13    1
    23    13    14    1
    24     9    15    1
    25    15    16    1
    26    16     7    1
    27    23    18   ar
    28    14     9    1
    29     3     4    1
