@<TRIPOS>MOLECULE
*****
 39 43 0 0 0
SMALL
GASTEIGER

@<TRIPOS>ATOM
      1 CA          4.8751   -2.6285   21.4095 C.3     2  ILE2        0.1523
      2 C           5.4460   -3.3459   22.5967 C.2     2  ILE2        0.2409
      3 O           6.1199   -4.6740   22.4177 O.2     2  ILE2       -0.2733
      4 N           5.3429   -2.7353   23.9629 N.am    1  UNK1       -0.2970
      5 C           4.6690   -1.4073   24.1419 C.3     1  UNK1        0.1494
      6 C           4.0981   -0.6899   22.9548 C.2     1  UNK1        0.2444
      7 O           3.4242    0.6383   23.1338 O.2     1  UNK1       -0.2731
      8 N           4.2012   -1.3005   21.5886 N.am    2  ILE2       -0.2615
      9 H           5.7176   -3.2062   24.7421 H       1  UNK1        0.1499
     10 C           4.5659   -0.7966   25.5081 C.3     1  UNK1        0.0356
     11 C           5.3145    0.4091   25.9938 C.3     1  UNK1        0.0285
     12 C           4.9074    0.6664   27.4143 C.ar    1  UNK1       -0.0261
     13 C           5.3182    1.7186   28.4013 C.ar    1  UNK1       -0.0046
     14 C           4.7289    1.7240   29.7806 C.ar    1  UNK1       -0.0003
     15 C           3.7287    0.6773   30.1730 C.ar    1  UNK1       -0.0003
     16 C           3.3178   -0.3749   29.1861 C.ar    1  UNK1       -0.0046
     17 C           3.9072   -0.3803   27.8067 C.ar    1  UNK1       -0.0261
     18 C           3.6962   -1.2845   26.6286 C.3     1  UNK1        0.0285
     19 CB          4.9782   -3.2392   20.0433 C.3     2  ILE2        0.0272
     20 CG2         5.8654   -3.2785   19.4053 C.3     2  ILE2        0.0022
     21 CD1         3.4468   -5.3142   19.7285 C.3     2  ILE2        0.0001
     22 CG1         3.7773   -3.8844   19.4177 C.3     2  ILE2        0.0021
     23 C           3.6303   -0.5830   20.4014 C.3     0  UNK0        0.1764
     24 C           2.1480   -0.3843   20.2866 C.2     0  UNK0        0.2483
     25 O           1.3866   -1.1612   20.1740 O.2     0  UNK0       -0.2727
     26 N           1.5718    1.0001   20.3220 N.am    0  UNK0       -0.2728
     27 C           2.4781    2.1860   20.4722 C.3     0  UNK0        0.1255
     28 C           1.9020    3.5705   20.5076 C.3     0  UNK0        0.1636
     29 O           0.4196    3.7691   20.3928 O.3     0  UNK0       -0.3501
     30 C          -0.4866    2.5833   20.2427 C.3     0  UNK0        0.1636
     31 C           0.0895    1.1988   20.2073 C.3     0  UNK0        0.1255
     32 C           4.5418   -0.0642   19.3290 C.ar    0  UNK0        0.0181
     33 C           5.7711    0.7111   19.6998 C.ar    0  UNK0        0.0002
     34 C           6.6826    1.2299   18.6273 C.ar    0  UNK0        0.0145
     35 C           6.3647    0.9733   17.1841 C.ar    0  UNK0        0.0589
     36 C           7.2761    1.4921   16.1117 C.3     0  UNK0        0.0521
     37 N           5.1353    0.1979   16.8132 N.ar    0  UNK0       -0.2542
     38 C           4.2239   -0.3208   17.8856 C.ar    0  UNK0        0.0570
     39 C           3.6340   -0.7012   17.5077 C.3     0  UNK0        0.0518
@<TRIPOS>BOND
     1    21    22    1
     2    22    19    1
     3    19    20    1
     4    19     1    1
     5     1     2    1
     6     2     3    2
     7     2     4   am
     8     4     5    1
     9     5    10    1
    10    10    11    1
    11    11    12    1
    12    12    13   ar
    13    13    14   ar
    14    14    15   ar
    15    15    16   ar
    16    16    17   ar
    17    17    18    1
    18     5     6    1
    19     6     7    2
    20     6     8   am
    21    23     8    1
    22    23    24    1
    23    24    25    2
    24    24    26   am
    25    26    27    1
    26    27    28    1
    27    28    29    1
    28    29    30    1
    29    30    31    1
    30    23    32    1
    31    32    33   ar
    32    33    34   ar
    33    34    35   ar
    34    35    36    1
    35    35    37   ar
    36    37    38   ar
    37    38    39    1
    38     1     8    1
    39    31    26    1
    40    38    32   ar
    41    18    10    1
    42    17    12   ar
    43     4     9    1
@<TRIPOS>MOLECULE
*****
 39 43 0 0 0
SMALL
GASTEIGER

@<TRIPOS>ATOM
      1 CA          5.7223   -1.5579   28.1452 C.3     2  ILE2        0.1523
      2 C           6.4912   -2.5619   27.3386 C.2     2  ILE2        0.2409
      3 O           7.6154   -3.3286   27.9700 O.2     2  ILE2       -0.2733
      4 N           6.1361   -2.7993   25.9007 N.am    1  UNK1       -0.2970
      5 C           5.0120   -2.0327   25.2694 C.3     1  UNK1        0.1494
      6 C           4.2430   -1.0287   26.0759 C.2     1  UNK1        0.2444
      7 O           3.1188   -0.2620   25.4446 O.2     1  UNK1       -0.2731
      8 N           4.5982   -0.7913   27.5138 N.am    2  ILE2       -0.2615
      9 H           6.6408   -3.4583   25.3714 H       1  UNK1        0.1499
     10 C           4.6568   -2.2701   23.8315 C.3     1  UNK1        0.0356
     11 C           3.9901   -1.2882   22.9143 C.3     1  UNK1        0.0285
     12 C           3.8273   -1.9424   21.5743 C.ar    1  UNK1       -0.0261
     13 C           3.2367   -1.4549   20.2845 C.ar    1  UNK1       -0.0046
     14 C           3.2122   -2.3536   19.0839 C.ar    1  UNK1       -0.0003
     15 C           3.7783   -3.7398   19.1729 C.ar    1  UNK1       -0.0003
     16 C           4.3689   -4.2273   20.4627 C.ar    1  UNK1       -0.0046
     17 C           4.3934   -3.3286   21.6633 C.ar    1  UNK1       -0.0261
     18 C           4.9061   -3.5311   23.0584 C.3     1  UNK1        0.0285
     19 CB          6.0774   -1.3205   29.5831 C.3     2  ILE2        0.0272
     20 CG2         5.6099   -1.7761   30.4603 C.3     2  ILE2        0.0022
     21 CD1         7.8061    0.4834   28.8706 C.3     2  ILE2        0.0001
     22 CG1         7.1821   -0.3690   29.9355 C.3     2  ILE2        0.0021
     23 C           3.8291    0.2128   28.3204 C.3     0  UNK0        0.1764
     24 C           2.5224   -0.1720   28.9484 C.2     0  UNK0        0.2483
     25 O           2.3698   -0.8745   29.7723 O.2     0  UNK0       -0.2727
     26 N           1.2432    0.4294   28.4465 N.am    0  UNK0       -0.2728
     27 C           1.2707    1.4158   27.3167 C.3     0  UNK0        0.1255
     28 C          -0.0085    2.0172   26.8149 C.3     0  UNK0        0.1636
     29 O          -1.3153    1.6324   27.4429 O.3     0  UNK0       -0.3501
     30 C          -1.3428    0.6461   28.5727 C.3     0  UNK0        0.1636
     31 C          -0.0635    0.0446   29.0745 C.3     0  UNK0        0.1255
     32 C           4.3668    1.6017   28.4989 C.ar    0  UNK0        0.0181
     33 C           4.7973    2.3987   27.3033 C.ar    0  UNK0        0.0002
     34 C           5.3351    3.7877   27.4819 C.ar    0  UNK0        0.0145
     35 C           5.4423    4.3795   28.8560 C.ar    0  UNK0        0.0589
     36 C           5.9800    5.7683   29.0346 C.3     0  UNK0        0.0521
     37 N           5.0117    3.5824   30.0516 N.ar    0  UNK0       -0.2542
     38 C           4.4740    2.1936   29.8731 C.ar    0  UNK0        0.0570
     39 C           4.2999    1.9296   30.6048 C.3     0  UNK0        0.0518
@<TRIPOS>BOND
     1    21    22    1
     2    22    19    1
     3    19    20    1
     4    19     1    1
     5     1     2    1
     6     2     3    2
     7     2     4   am
     8     4     5    1
     9     5    10    1
    10    10    11    1
    11    11    12    1
    12    12    13   ar
    13    13    14   ar
    14    14    15   ar
    15    15    16   ar
    16    16    17   ar
    17    17    18    1
    18     5     6    1
    19     6     7    2
    20     6     8   am
    21    23     8    1
    22    23    24    1
    23    24    25    2
    24    24    26   am
    25    26    27    1
    26    27    28    1
    27    28    29    1
    28    29    30    1
    29    30    31    1
    30    23    32    1
    31    32    33   ar
    32    33    34   ar
    33    34    35   ar
    34    35    36    1
    35    35    37   ar
    36    37    38   ar
    37    38    39    1
    38     1     8    1
    39    31    26    1
    40    38    32   ar
    41    18    10    1
    42    17    12   ar
    43     4     9    1
@<TRIPOS>MOLECULE
*****
 39 43 0 0 0
SMALL
GASTEIGER

@<TRIPOS>ATOM
      1 CA          3.8043   -1.5932   21.2402 C.3     2  ILE2        0.1523
      2 C           3.8841   -2.2201   22.6005 C.2     2  ILE2        0.2409
      3 O           4.3995   -3.6207   22.7519 O.2     2  ILE2       -0.2733
      4 N           3.4486   -1.4465   23.8096 N.am    1  UNK1       -0.2970
      5 C           2.9333   -0.0460   23.6583 C.3     1  UNK1        0.1494
      6 C           2.8534    0.5809   22.2980 C.2     1  UNK1        0.2444
      7 O           2.3381    1.9815   22.1466 O.2     1  UNK1       -0.2731
      8 N           3.2889   -0.1927   21.0889 N.am    2  ILE2       -0.2615
      9 H           3.5010   -1.8579   24.7025 H       1  UNK1        0.1499
     10 C           2.4978    0.7277   24.8674 C.3     1  UNK1        0.0356
     11 C           3.4030    1.3679   25.8776 C.3     1  UNK1        0.0285
     12 C           2.5453    2.0328   26.9131 C.ar    1  UNK1       -0.0261
     13 C           2.8859    2.8175   28.1453 C.ar    1  UNK1       -0.0046
     14 C           1.7910    3.3728   29.0072 C.ar    1  UNK1       -0.0003
     15 C           0.3557    3.1435   28.6369 C.ar    1  UNK1       -0.0003
     16 C           0.0151    2.3588   27.4048 C.ar    1  UNK1       -0.0046
     17 C           1.1099    1.8035   26.5428 C.ar    1  UNK1       -0.0261
     18 C           1.0806    0.9969   25.2785 C.3     1  UNK1        0.0285
     19 CB          4.2398   -2.3668   20.0311 C.3     2  ILE2        0.0272
     20 CG2         3.5980   -2.9037   19.3271 C.3     2  ILE2        0.0022
     21 CD1         6.1139   -2.8239   18.2909 C.3     2  ILE2        0.0001
     22 CG1         5.6962   -2.4599   19.6848 C.3     2  ILE2        0.0021
     23 C           3.2091    0.4343   19.7285 C.3     0  UNK0        0.1764
     24 C           1.8725    0.7527   19.1268 C.2     0  UNK0        0.2483
     25 O           1.0595    0.0510   18.9207 O.2     0  UNK0       -0.2727
     26 N           1.5411    2.1635   18.7398 N.am    0  UNK0       -0.2728
     27 C           2.5464    3.2559   18.9545 C.3     0  UNK0        0.1255
     28 C           2.2150    4.6667   18.5675 C.3     0  UNK0        0.1636
     29 O           0.8784    4.9852   17.9658 O.3     0  UNK0       -0.3501
     30 C          -0.1269    3.8928   17.7510 C.3     0  UNK0        0.1636
     31 C           0.2045    2.4819   18.1380 C.3     0  UNK0        0.1255
     32 C           4.4658    0.7428   18.9699 C.ar    0  UNK0        0.0181
     33 C           4.5872    0.3484   17.5278 C.ar    0  UNK0        0.0002
     34 C           5.8440    0.6570   16.7692 C.ar    0  UNK0        0.0145
     35 C           6.9792    1.3598   17.4528 C.ar    0  UNK0        0.0589
     36 C           8.2359    1.6683   16.6942 C.3     0  UNK0        0.0521
     37 N           6.8577    1.7542   18.8949 N.ar    0  UNK0       -0.2542
     38 C           5.6010    1.4457   19.6535 C.ar    0  UNK0        0.0570
     39 C           5.7159    1.7241   20.3916 C.3     0  UNK0        0.0518
@<TRIPOS>BOND
     1    21    22    1
     2    22    19    1
     3    19    20    1
     4    19     1    1
     5     1     2    1
     6     2     3    2
     7     2     4   am
     8     4     5    1
     9     5    10    1
    10    10    11    1
    11    11    12    1
    12    12    13   ar
    13    13    14   ar
    14    14    15   ar
    15    15    16   ar
    16    16    17   ar
    17    17    18    1
    18     5     6    1
    19     6     7    2
    20     6     8   am
    21    23     8    1
    22    23    24    1
    23    24    25    2
    24    24    26   am
    25    26    27    1
    26    27    28    1
    27    28    29    1
    28    29    30    1
    29    30    31    1
    30    23    32    1
    31    32    33   ar
    32    33    34   ar
    33    34    35   ar
    34    35    36    1
    35    35    37   ar
    36    37    38   ar
    37    38    39    1
    38     1     8    1
    39    31    26    1
    40    38    32   ar
    41    18    10    1
    42    17    12   ar
    43     4     9    1
@<TRIPOS>MOLECULE
*****
 39 43 0 0 0
SMALL
GASTEIGER

@<TRIPOS>ATOM
      1 CA          1.2309    4.9404   23.7894 C.3     2  ILE2        0.1523
      2 C           2.0898    4.8470   22.5632 C.2     2  ILE2        0.2409
      3 O           2.5179    6.0955   21.8505 O.2     2  ILE2       -0.2733
      4 N           2.5207    3.5051   22.0498 N.am    1  UNK1       -0.2970
      5 C           2.0926    2.2566   22.7625 C.3     1  UNK1        0.1494
      6 C           1.2337    2.3500   23.9886 C.2     1  UNK1        0.2444
      7 O           0.8056    1.1015   24.7014 O.2     1  UNK1       -0.2731
      8 N           0.8028    3.6919   24.5021 N.am    2  ILE2       -0.2615
      9 H           3.0845    3.4438   21.2450 H       1  UNK1        0.1499
     10 C           2.5235    0.9147   22.2491 C.3     1  UNK1        0.0356
     11 C           3.3619   -0.0849   22.9893 C.3     1  UNK1        0.0285
     12 C           3.5482   -1.2806   22.1030 C.ar    1  UNK1       -0.0261
     13 C           4.2830   -2.5730   22.3023 C.ar    1  UNK1       -0.0046
     14 C           4.2945   -3.6048   21.2137 C.ar    1  UNK1       -0.0003
     15 C           3.5712   -3.3443   19.9257 C.ar    1  UNK1       -0.0003
     16 C           2.8364   -2.0519   19.7264 C.ar    1  UNK1       -0.0046
     17 C           2.8249   -1.0201   20.8150 C.ar    1  UNK1       -0.0261
     18 C           2.1916    0.3367   20.9053 C.3     1  UNK1        0.0285
     19 CB          0.8000    6.2823   24.3028 C.3     2  ILE2        0.0272
     20 CG2         1.3102    6.8956   25.0507 C.3     2  ILE2        0.0022
     21 CD1        -1.2100    6.2732   22.6567 C.3     2  ILE2        0.0001
     22 CG1        -0.4555    6.9168   23.7821 C.3     2  ILE2        0.0021
     23 C          -0.0562    3.7853   25.7283 C.3     0  UNK0        0.1764
     24 C           0.5634    3.6643   27.0890 C.2     0  UNK0        0.2483
     25 O           1.3301    4.3120   27.5229 O.2     0  UNK0       -0.2727
     26 N           0.1370    2.5613   28.0118 N.am    0  UNK0       -0.2728
     27 C          -0.9090    1.5793   27.5739 C.3     0  UNK0        0.1255
     28 C          -1.3353    0.4763   28.4967 C.3     0  UNK0        0.1636
     29 O          -0.7158    0.3553   29.8574 O.3     0  UNK0       -0.3501
     30 C           0.3301    1.3373   30.2953 C.3     0  UNK0        0.1636
     31 C           0.7565    2.4403   29.3725 C.3     0  UNK0        0.1255
     32 C          -1.5346    3.9997   25.5937 C.ar    0  UNK0        0.0181
     33 C          -2.3176    3.2142   24.5838 C.ar    0  UNK0        0.0002
     34 C          -3.7961    3.4287   24.4492 C.ar    0  UNK0        0.0145
     35 C          -4.4916    4.4286   25.3247 C.ar    0  UNK0        0.0589
     36 C          -5.9701    4.6430   25.1901 C.3     0  UNK0        0.0521
     37 N          -3.7087    5.2141   26.3346 N.ar    0  UNK0       -0.2542
     38 C          -2.2303    4.9997   26.4691 C.ar    0  UNK0        0.0570
     39 C          -1.9879    5.4948   27.0449 C.3     0  UNK0        0.0518
@<TRIPOS>BOND
     1    21    22    1
     2    22    19    1
     3    19    20    1
     4    19     1    1
     5     1     2    1
     6     2     3    2
     7     2     4   am
     8     4     5    1
     9     5    10    1
    10    10    11    1
    11    11    12    1
    12    12    13   ar
    13    13    14   ar
    14    14    15   ar
    15    15    16   ar
    16    16    17   ar
    17    17    18    1
    18     5     6    1
    19     6     7    2
    20     6     8   am
    21    23     8    1
    22    23    24    1
    23    24    25    2
    24    24    26   am
    25    26    27    1
    26    27    28    1
    27    28    29    1
    28    29    30    1
    29    30    31    1
    30    23    32    1
    31    32    33   ar
    32    33    34   ar
    33    34    35   ar
    34    35    36    1
    35    35    37   ar
    36    37    38   ar
    37    38    39    1
    38     1     8    1
    39    31    26    1
    40    38    32   ar
    41    18    10    1
    42    17    12   ar
    43     4     9    1
@<TRIPOS>MOLECULE
*****
 39 43 0 0 0
SMALL
GASTEIGER

@<TRIPOS>ATOM
      1 CA          2.3595    0.9714   27.3630 C.3     2  ILE2        0.1523
      2 C           2.8639   -0.4410   27.3930 C.2     2  ILE2        0.2409
      3 O           3.0065   -1.1588   28.7023 O.2     2  ILE2       -0.2733
      4 N           3.2256   -1.1355   26.1136 N.am    1  UNK1       -0.2970
      5 C           3.0830   -0.4177   24.8043 C.3     1  UNK1        0.1494
      6 C           2.5787    0.9946   24.7743 C.2     1  UNK1        0.2444
      7 O           2.4360    1.7125   23.4649 O.2     1  UNK1       -0.2731
      8 N           2.2169    1.6892   26.0536 N.am    2  ILE2       -0.2615
      9 H           3.5566   -2.0625   26.1333 H       1  UNK1        0.1499
     10 C           3.4447   -1.1123   23.5249 C.3     1  UNK1        0.0356
     11 C           2.7859   -0.9064   22.1931 C.3     1  UNK1        0.0285
     12 C           3.4628   -1.8015   21.1978 C.ar    1  UNK1       -0.0261
     13 C           3.2375   -2.0235   19.7316 C.ar    1  UNK1       -0.0046
     14 C           4.0893   -3.0045   18.9820 C.ar    1  UNK1       -0.0003
     15 C           5.1664   -3.7636   19.6986 C.ar    1  UNK1       -0.0003
     16 C           5.3918   -3.5416   21.1648 C.ar    1  UNK1       -0.0046
     17 C           4.5399   -2.5606   21.9145 C.ar    1  UNK1       -0.0261
     18 C           4.5288   -2.1346   23.3526 C.3     1  UNK1        0.0285
     19 CB          1.9978    1.6659   28.6423 C.3     2  ILE2        0.0272
     20 CG2         2.6224    2.3566   29.2156 C.3     2  ILE2        0.0022
     21 CD1        -0.4253    0.7417   28.4875 C.3     2  ILE2        0.0001
     22 CG1         0.6518    1.4391   29.2642 C.3     2  ILE2        0.0021
     23 C           1.7126    3.1016   26.0236 C.3     0  UNK0        0.1764
     24 C           2.6795    4.2405   25.8897 C.2     0  UNK0        0.2483
     25 O           3.4705    4.5182   26.5917 O.2     0  UNK0       -0.2727
     26 N           2.6173    5.1401   24.6910 N.am    0  UNK0       -0.2728
     27 C           1.5882    4.9007   23.6262 C.3     0  UNK0        0.1255
     28 C           1.5260    5.8003   22.4275 C.3     0  UNK0        0.1636
     29 O           2.4929    6.9392   22.2936 O.3     0  UNK0       -0.3501
     30 C           3.5220    7.1786   23.3583 C.3     0  UNK0        0.1636
     31 C           3.5842    6.2790   24.5570 C.3     0  UNK0        0.1255
     32 C           0.2414    3.3750   26.1275 C.ar    0  UNK0        0.0181
     33 C          -0.7207    2.6536   25.2309 C.ar    0  UNK0        0.0002
     34 C          -2.1919    2.9271   25.3349 C.ar    0  UNK0        0.0145
     35 C          -2.7010    3.9218   26.3355 C.ar    0  UNK0        0.0589
     36 C          -4.1722    4.1952   26.4394 C.3     0  UNK0        0.0521
     37 N          -1.7389    4.6432   27.2321 N.ar    0  UNK0       -0.2542
     38 C          -0.2677    4.3698   27.1282 C.ar    0  UNK0        0.0570
     39 C           0.0814    4.8359   27.6725 C.3     0  UNK0        0.0518
@<TRIPOS>BOND
     1    21    22    1
     2    22    19    1
     3    19    20    1
     4    19     1    1
     5     1     2    1
     6     2     3    2
     7     2     4   am
     8     4     5    1
     9     5    10    1
    10    10    11    1
    11    11    12    1
    12    12    13   ar
    13    13    14   ar
    14    14    15   ar
    15    15    16   ar
    16    16    17   ar
    17    17    18    1
    18     5     6    1
    19     6     7    2
    20     6     8   am
    21    23     8    1
    22    23    24    1
    23    24    25    2
    24    24    26   am
    25    26    27    1
    26    27    28    1
    27    28    29    1
    28    29    30    1
    29    30    31    1
    30    23    32    1
    31    32    33   ar
    32    33    34   ar
    33    34    35   ar
    34    35    36    1
    35    35    37   ar
    36    37    38   ar
    37    38    39    1
    38     1     8    1
    39    31    26    1
    40    38    32   ar
    41    18    10    1
    42    17    12   ar
    43     4     9    1
@<TRIPOS>MOLECULE
*****
 39 43 0 0 0
SMALL
GASTEIGER

@<TRIPOS>ATOM
      1 CA          2.2432    2.0086   20.5113 C.3     2  ILE2        0.1523
      2 C           1.0465    2.7236   21.0650 C.2     2  ILE2        0.2409
      3 O           0.1819    3.5507   20.1603 O.2     2  ILE2       -0.2733
      4 N           0.7144    2.6116   22.5235 N.am    1  UNK1       -0.2970
      5 C           1.5789    1.7846   23.4282 C.3     1  UNK1        0.1494
      6 C           2.7756    1.0695   22.8745 C.2     1  UNK1        0.2444
      7 O           3.6402    0.2424   23.7792 O.2     1  UNK1       -0.2731
      8 N           3.1077    1.1815   21.4160 N.am    2  ILE2       -0.2615
      9 H          -0.0710    3.0810   22.8870 H       1  UNK1        0.1499
     10 C           1.2468    1.6726   24.8867 C.3     1  UNK1        0.0356
     11 C           2.1111    2.1274   26.0252 C.3     1  UNK1        0.0285
     12 C           1.3906    1.8220   27.3049 C.ar    1  UNK1       -0.0261
     13 C           1.7577    2.0468   28.7418 C.ar    1  UNK1       -0.0046
     14 C           0.8153    1.6281   29.8310 C.ar    1  UNK1       -0.0003
     15 C          -0.4943    0.9845   29.4834 C.ar    1  UNK1       -0.0003
     16 C          -0.8614    0.7598   28.0465 C.ar    1  UNK1       -0.0046
     17 C           0.0810    1.1785   26.9573 C.ar    1  UNK1       -0.0261
     18 C          -0.0079    1.0862   25.4628 C.3     1  UNK1        0.0285
     19 CB          2.5753    2.1206   19.0528 C.3     2  ILE2        0.0272
     20 CG2         2.2541    1.4496   18.2513 C.3     2  ILE2        0.0022
     21 CD1         2.8141    4.4095   17.8470 C.3     2  ILE2        0.0001
     22 CG1         3.4358    3.2477   18.5639 C.3     2  ILE2        0.0021
     23 C           4.3044    0.4664   20.8622 C.3     0  UNK0        0.1764
     24 C           5.5847    1.2135   20.6328 C.2     0  UNK0        0.2483
     25 O           6.1136    1.8483   21.3491 O.2     0  UNK0       -0.2727
     26 N           6.2738    1.1302   19.3031 N.am    0  UNK0       -0.2728
     27 C           5.6824    0.2999   18.2026 C.3     0  UNK0        0.1255
     28 C           6.3715    0.2166   16.8729 C.3     0  UNK0        0.1636
     29 O           7.6518    0.9637   16.6435 O.3     0  UNK0       -0.3501
     30 C           8.2431    1.7940   17.7439 C.3     0  UNK0        0.1636
     31 C           7.5541    1.8773   19.0737 C.3     0  UNK0        0.1255
     32 C           4.2207   -0.9957   20.5379 C.ar    0  UNK0        0.0181
     33 C           3.1468   -1.5001   19.6201 C.ar    0  UNK0        0.0002
     34 C           3.0632   -2.9622   19.2958 C.ar    0  UNK0        0.0145
     35 C           4.0534   -3.9199   19.8892 C.ar    0  UNK0        0.0589
     36 C           3.9697   -5.3820   19.5648 C.3     0  UNK0        0.0521
     37 N           5.1273   -3.4155   20.8070 N.ar    0  UNK0       -0.2542
     38 C           5.2110   -1.9535   21.1313 C.ar    0  UNK0        0.0570
     39 C           5.8320   -1.8729   21.6245 C.3     0  UNK0        0.0518
@<TRIPOS>BOND
     1    21    22    1
     2    22    19    1
     3    19    20    1
     4    19     1    1
     5     1     2    1
     6     2     3    2
     7     2     4   am
     8     4     5    1
     9     5    10    1
    10    10    11    1
    11    11    12    1
    12    12    13   ar
    13    13    14   ar
    14    14    15   ar
    15    15    16   ar
    16    16    17   ar
    17    17    18    1
    18     5     6    1
    19     6     7    2
    20     6     8   am
    21    23     8    1
    22    23    24    1
    23    24    25    2
    24    24    26   am
    25    26    27    1
    26    27    28    1
    27    28    29    1
    28    29    30    1
    29    30    31    1
    30    23    32    1
    31    32    33   ar
    32    33    34   ar
    33    34    35   ar
    34    35    36    1
    35    35    37   ar
    36    37    38   ar
    37    38    39    1
    38     1     8    1
    39    31    26    1
    40    38    32   ar
    41    18    10    1
    42    17    12   ar
    43     4     9    1
@<TRIPOS>MOLECULE
*****
 39 43 0 0 0
SMALL
GASTEIGER

@<TRIPOS>ATOM
      1 CA          5.7238   -2.3670   31.3348 C.3     2  ILE2        0.1523
      2 C           6.6350   -3.5295   31.0737 C.2     2  ILE2        0.2409
      3 O           7.0810   -4.4026   32.2089 O.2     2  ILE2       -0.2733
      4 N           7.1003   -3.8189   29.6773 N.am    1  UNK1       -0.2970
      5 C           6.6543   -2.9458   28.5421 C.3     1  UNK1        0.1494
      6 C           5.7431   -1.7833   28.8032 C.2     1  UNK1        0.2444
      7 O           5.2971   -0.9102   27.6679 O.2     1  UNK1       -0.2731
      8 N           5.2778   -1.4939   30.1995 N.am    2  ILE2       -0.2615
      9 H           7.6984   -4.5819   29.5060 H       1  UNK1        0.1499
     10 C           7.1196   -3.2353   27.1458 C.3     1  UNK1        0.0356
     11 C           6.8208   -4.4750   26.3560 C.3     1  UNK1        0.0285
     12 C           7.4819   -4.3417   25.0161 C.ar    1  UNK1       -0.0261
     13 C           7.5312   -5.2534   23.8261 C.ar    1  UNK1       -0.0046
     14 C           8.2878   -4.8430   22.5977 C.ar    1  UNK1       -0.0003
     15 C           8.9952   -3.5208   22.5594 C.ar    1  UNK1       -0.0003
     16 C           8.9460   -2.6091   23.7495 C.ar    1  UNK1       -0.0046
     17 C           8.1894   -3.0196   24.9778 C.ar    1  UNK1       -0.0261
     18 C           7.9654   -2.3358   26.2940 C.3     1  UNK1        0.0285
     19 CB          5.2585   -2.0776   32.7311 C.3     2  ILE2        0.0272
     20 CG2         4.3714   -2.4821   33.2263 C.3     2  ILE2        0.0022
     21 CD1         7.3694   -0.6197   33.1414 C.3     2  ILE2        0.0001
     22 CG1         6.0417   -1.1423   33.6039 C.3     2  ILE2        0.0021
     23 C           4.3665   -0.3314   30.4606 C.3     0  UNK0        0.1764
     24 C           2.8822   -0.4955   30.3195 C.2     0  UNK0        0.2483
     25 O           2.2230   -1.0940   30.9542 O.2     0  UNK0       -0.2727
     26 N           2.1520    0.2057   29.2126 N.am    0  UNK0       -0.2728
     27 C           2.9061    1.0710   28.2468 C.3     0  UNK0        0.1255
     28 C           2.1759    1.7721   27.1400 C.3     0  UNK0        0.1636
     29 O           0.6916    1.6080   26.9989 O.3     0  UNK0       -0.3501
     30 C          -0.0625    0.7428   27.9646 C.3     0  UNK0        0.1636
     31 C           0.6677    0.0416   29.0715 C.3     0  UNK0        0.1255
     32 C           4.9396    0.9952   30.8627 C.ar    0  UNK0        0.0181
     33 C           6.0915    1.5774   30.0984 C.ar    0  UNK0        0.0002
     34 C           6.6645    2.9040   30.5006 C.ar    0  UNK0        0.0145
     35 C           6.0856    3.6485   31.6670 C.ar    0  UNK0        0.0589
     36 C           6.6586    4.9751   32.0692 C.3     0  UNK0        0.0521
     37 N           4.9337    3.0663   32.4314 N.ar    0  UNK0       -0.2542
     38 C           4.3607    1.7397   32.0292 C.ar    0  UNK0        0.0570
     39 C           3.7662    1.5932   32.5398 C.3     0  UNK0        0.0518
@<TRIPOS>BOND
     1    21    22    1
     2    22    19    1
     3    19    20    1
     4    19     1    1
     5     1     2    1
     6     2     3    2
     7     2     4   am
     8     4     5    1
     9     5    10    1
    10    10    11    1
    11    11    12    1
    12    12    13   ar
    13    13    14   ar
    14    14    15   ar
    15    15    16   ar
    16    16    17   ar
    17    17    18    1
    18     5     6    1
    19     6     7    2
    20     6     8   am
    21    23     8    1
    22    23    24    1
    23    24    25    2
    24    24    26   am
    25    26    27    1
    26    27    28    1
    27    28    29    1
    28    29    30    1
    29    30    31    1
    30    23    32    1
    31    32    33   ar
    32    33    34   ar
    33    34    35   ar
    34    35    36    1
    35    35    37   ar
    36    37    38   ar
    37    38    39    1
    38     1     8    1
    39    31    26    1
    40    38    32   ar
    41    18    10    1
    42    17    12   ar
    43     4     9    1
@<TRIPOS>MOLECULE
*****
 39 43 0 0 0
SMALL
GASTEIGER

@<TRIPOS>ATOM
      1 CA          1.0322    1.7581   20.4629 C.3     2  ILE2        0.1523
      2 C          -0.1516    2.3897   21.1333 C.2     2  ILE2        0.2409
      3 O          -1.2394    3.0092   20.3069 O.2     2  ILE2       -0.2733
      4 N          -0.2478    2.4017   22.6302 N.am    1  UNK1       -0.2970
      5 C           0.8399    1.7822   23.4566 C.3     1  UNK1        0.1494
      6 C           2.0237    1.1506   22.7862 C.2     1  UNK1        0.2444
      7 O           3.1115    0.5310   23.6126 O.2     1  UNK1       -0.2731
      8 N           2.1199    1.1386   21.2893 N.am    2  ILE2       -0.2615
      9 H          -1.0249    2.8162   23.0702 H       1  UNK1        0.1499
     10 C           0.7437    1.7942   24.9535 C.3     1  UNK1        0.0356
     11 C          -0.2143    0.9906   25.7819 C.3     1  UNK1        0.0285
     12 C           0.0385    1.3117   27.2252 C.ar    1  UNK1       -0.0261
     13 C          -0.6019    0.8211   28.4897 C.ar    1  UNK1       -0.0046
     14 C          -0.1280    1.3325   29.8177 C.ar    1  UNK1       -0.0003
     15 C           0.9863    2.3346   29.8813 C.ar    1  UNK1       -0.0003
     16 C           1.6268    2.8252   28.6168 C.ar    1  UNK1       -0.0046
     17 C           1.1529    2.3137   27.2887 C.ar    1  UNK1       -0.0261
     18 C           1.5887    2.6119   25.8847 C.3     1  UNK1        0.0285
     19 CB          1.1284    1.7461   18.9660 C.3     2  ILE2        0.0272
     20 CG2         0.9113    0.9069   18.2993 C.3     2  ILE2        0.0022
     21 CD1         2.2397    4.0944   18.9739 C.3     2  ILE2        0.0001
     22 CG1         1.5622    2.9804   18.2324 C.3     2  ILE2        0.0021
     23 C           3.3039    0.5070   20.6189 C.3     0  UNK0        0.1764
     24 C           3.4046   -0.9868   20.5260 C.2     0  UNK0        0.2483
     25 O           2.7109   -1.6629   20.0186 O.2     0  UNK0       -0.2727
     26 N           4.5526   -1.7028   21.1736 N.am    0  UNK0       -0.2728
     27 C           5.5999   -0.9251   21.9142 C.3     0  UNK0        0.1255
     28 C           6.7478   -1.6411   22.5618 C.3     0  UNK0        0.1636
     29 O           6.8485   -3.1348   22.4689 O.3     0  UNK0       -0.3501
     30 C           5.8013   -3.9125   21.7284 C.3     0  UNK0        0.1636
     31 C           4.6533   -3.1965   21.0807 C.3     0  UNK0        0.1255
     32 C           4.3870    1.3691   20.0414 C.ar    0  UNK0        0.0181
     33 C           5.0263    2.4341   20.8823 C.ar    0  UNK0        0.0002
     34 C           6.1095    3.2962   20.3047 C.ar    0  UNK0        0.0145
     35 C           6.5534    3.0933   18.8864 C.ar    0  UNK0        0.0589
     36 C           7.6365    3.9554   18.3089 C.3     0  UNK0        0.0521
     37 N           5.9141    2.0283   18.0455 N.ar    0  UNK0       -0.2542
     38 C           4.8310    1.1661   18.6230 C.ar    0  UNK0        0.0570
     39 C           4.6147    0.6659   18.0413 C.3     0  UNK0        0.0518
@<TRIPOS>BOND
     1    21    22    1
     2    22    19    1
     3    19    20    1
     4    19     1    1
     5     1     2    1
     6     2     3    2
     7     2     4   am
     8     4     5    1
     9     5    10    1
    10    10    11    1
    11    11    12    1
    12    12    13   ar
    13    13    14   ar
    14    14    15   ar
    15    15    16   ar
    16    16    17   ar
    17    17    18    1
    18     5     6    1
    19     6     7    2
    20     6     8   am
    21    23     8    1
    22    23    24    1
    23    24    25    2
    24    24    26   am
    25    26    27    1
    26    27    28    1
    27    28    29    1
    28    29    30    1
    29    30    31    1
    30    23    32    1
    31    32    33   ar
    32    33    34   ar
    33    34    35   ar
    34    35    36    1
    35    35    37   ar
    36    37    38   ar
    37    38    39    1
    38     1     8    1
    39    31    26    1
    40    38    32   ar
    41    18    10    1
    42    17    12   ar
    43     4     9    1
@<TRIPOS>MOLECULE
*****
 39 43 0 0 0
SMALL
GASTEIGER

@<TRIPOS>ATOM
      1 CA          1.5758    1.8953   26.7589 C.3     2  ILE2        0.1523
      2 C           0.6089    1.4399   25.7065 C.2     2  ILE2        0.2409
      3 O          -0.8316    1.8514   25.7828 O.2     2  ILE2       -0.2733
      4 N           1.0824    0.5729   24.5777 N.am    1  UNK1       -0.2970
      5 C           2.5228    0.1614   24.5013 C.3     1  UNK1        0.1494
      6 C           3.4897    0.6168   25.5537 C.2     1  UNK1        0.2444
      7 O           4.9302    0.2053   25.4774 O.2     1  UNK1       -0.2731
      8 N           3.0162    1.4838   26.6825 N.am    2  ILE2       -0.2615
      9 H           0.4478    0.2739   23.8870 H       1  UNK1        0.1499
     10 C           2.9963   -0.7056   23.3726 C.3     1  UNK1        0.0356
     11 C           2.6866   -0.5069   21.9184 C.3     1  UNK1        0.0285
     12 C           3.3615   -1.6020   21.1468 C.ar    1  UNK1       -0.0261
     13 C           3.4081   -1.9151   19.6806 C.ar    1  UNK1       -0.0046
     14 C           4.1816   -3.1037   19.1918 C.ar    1  UNK1       -0.0003
     15 C           4.9085   -3.9792   20.1691 C.ar    1  UNK1       -0.0003
     16 C           4.8618   -3.6661   21.6353 C.ar    1  UNK1       -0.0046
     17 C           4.0884   -2.4775   22.1242 C.ar    1  UNK1       -0.0261
     18 C           3.8626   -1.9235   23.4997 C.3     1  UNK1        0.0285
     19 CB          1.1023    2.7623   27.8877 C.3     2  ILE2        0.0272
     20 CG2         1.1391    3.8540   27.9391 C.3     2  ILE2        0.0022
     21 CD1         0.2651    0.6573   29.1597 C.3     2  ILE2        0.0001
     22 CG1         0.5019    2.1378   29.1122 C.3     2  ILE2        0.0021
     23 C           3.9832    1.9393   27.7349 C.3     0  UNK0        0.1764
     24 C           4.9778    3.0180   27.4232 C.2     0  UNK0        0.2483
     25 O           4.7608    4.0547   27.1516 O.2     0  UNK0       -0.2727
     26 N           6.4470    2.7191   27.4678 N.am    0  UNK0       -0.2728
     27 C           6.9217    1.3415   27.8243 C.3     0  UNK0        0.1255
     28 C           8.3909    1.0426   27.8689 C.3     0  UNK0        0.1636
     29 O           9.3855    2.1212   27.5571 O.3     0  UNK0       -0.3501
     30 C           8.9110    3.4988   27.2007 C.3     0  UNK0        0.1636
     31 C           7.4417    3.7977   27.1561 C.3     0  UNK0        0.1255
     32 C           3.9555    1.3161   29.0991 C.ar    0  UNK0        0.0181
     33 C           3.9728    2.1855   30.3213 C.ar    0  UNK0        0.0002
     34 C           3.9451    1.5623   31.6855 C.ar    0  UNK0        0.0145
     35 C           3.9002    0.0697   31.8273 C.ar    0  UNK0        0.0589
     36 C           3.8725   -0.5534   33.1914 C.3     0  UNK0        0.0521
     37 N           3.8828   -0.7997   30.6051 N.ar    0  UNK0       -0.2542
     38 C           3.9105   -0.1765   29.2410 C.ar    0  UNK0        0.0570
     39 C           3.8962   -0.7818   28.7225 C.3     0  UNK0        0.0518
@<TRIPOS>BOND
     1    21    22    1
     2    22    19    1
     3    19    20    1
     4    19     1    1
     5     1     2    1
     6     2     3    2
     7     2     4   am
     8     4     5    1
     9     5    10    1
    10    10    11    1
    11    11    12    1
    12    12    13   ar
    13    13    14   ar
    14    14    15   ar
    15    15    16   ar
    16    16    17   ar
    17    17    18    1
    18     5     6    1
    19     6     7    2
    20     6     8   am
    21    23     8    1
    22    23    24    1
    23    24    25    2
    24    24    26   am
    25    26    27    1
    26    27    28    1
    27    28    29    1
    28    29    30    1
    29    30    31    1
    30    23    32    1
    31    32    33   ar
    32    33    34   ar
    33    34    35   ar
    34    35    36    1
    35    35    37   ar
    36    37    38   ar
    37    38    39    1
    38     1     8    1
    39    31    26    1
    40    38    32   ar
    41    18    10    1
    42    17    12   ar
    43     4     9    1
