@<TRIPOS>MOLECULE
*****
 22 25 0 0 0
SMALL
GASTEIGER

@<TRIPOS>ATOM
      1 C          -7.5602  -16.1818   24.1152 C.ar    1  UNL1        0.2118
      2 C          -8.2308  -17.2412   23.2919 C.ar    1  UNL1        0.1822
      3 O          -7.4059  -18.1833   22.4660 O.2     1  UNL1       -0.4471
      4 C          -5.9105  -18.0660   22.4636 C.ar    1  UNL1        0.1828
      5 C          -5.2400  -17.0066   23.2869 C.ar    1  UNL1        0.0797
      6 C          -3.7446  -16.8893   23.2845 C.ar    1  UNL1        0.0066
      7 C          -2.9197  -17.8314   22.4586 C.ar    1  UNL1        0.0034
      8 C          -3.5903  -18.8908   21.6352 C.ar    1  UNL1        0.0408
      9 C          -3.0434  -19.9536   20.7289 C.ar    1  UNL1        0.0438
     10 C          -4.2008  -20.7277   20.1712 C.ar    1  UNL1        0.1798
     11 O          -5.4630  -20.1434   20.7329 O.2     1  UNL1       -0.4473
     12 C          -5.0857  -19.0081   21.6377 C.ar    1  UNL1        0.1798
     13 C          -6.0649  -16.0644   24.1128 C.ar    1  UNL1        0.2353
     14 O          -5.3943  -15.0050   24.9362 O.2     1  UNL1       -0.2831
     15 C          -9.7262  -17.3586   23.2943 C.ar    1  UNL1        0.0377
     16 C         -10.3971  -18.3769   24.1677 C.ar    1  UNL1        0.0031
     17 C         -11.8925  -18.4944   24.1702 C.ar    1  UNL1        0.0001
     18 C         -12.7170  -17.5935   23.2992 C.ar    1  UNL1        0.0000
     19 C         -12.0460  -16.5751   22.4258 C.ar    1  UNL1        0.0001
     20 C         -10.5507  -16.4577   22.4234 C.ar    1  UNL1        0.0031
     21 C          -8.4843  -15.4334   26.4252 C.3     1  UNL1        0.2528
     22 O          -8.3852  -15.2396   24.9411 O.3     1  UNL1       -0.4653
@<TRIPOS>BOND
     1    21    22    1
     2    22     1    1
     3     1     2   ar
     4     2    15    1
     5    15    16   ar
     6    16    17   ar
     7    17    18   ar
     8    18    19   ar
     9    19    20   ar
    10     2     3   ar
    11     3     4   ar
    12     4     5   ar
    13     5     6   ar
    14     6     7   ar
    15     7     8   ar
    16     8     9   ar
    17     9    10   ar
    18    10    11   ar
    19    11    12   ar
    20     5    13   ar
    21    13    14    2
    22    13     1   ar
    23    20    15   ar
    24    12     4   ar
    25    12     8   ar
@<TRIPOS>MOLECULE
*****
 22 25 0 0 0
SMALL
GASTEIGER

@<TRIPOS>ATOM
      1 C         -14.4067   -4.8684   18.9799 C.ar    1  UNL1        0.2118
      2 C         -13.4908   -5.9328   18.4525 C.ar    1  UNL1        0.1822
      3 O         -13.9675   -7.3517   18.3551 O.2     1  UNL1       -0.4471
      4 C         -15.3602   -7.7062   18.7851 C.ar    1  UNL1        0.1828
      5 C         -16.2761   -6.6418   19.3125 C.ar    1  UNL1        0.0797
      6 C         -17.6687   -6.9962   19.7424 C.ar    1  UNL1        0.0066
      7 C         -18.1455   -8.4151   19.6451 C.ar    1  UNL1        0.0034
      8 C         -17.2296   -9.4795   19.1177 C.ar    1  UNL1        0.0408
      9 C         -17.4188  -10.9526   18.9076 C.ar    1  UNL1        0.0438
     10 C         -16.1431  -11.5086   18.3477 C.ar    1  UNL1        0.1798
     11 O         -15.1654  -10.3791   18.2118 O.2     1  UNL1       -0.4473
     12 C         -15.8369   -9.1250   18.6877 C.ar    1  UNL1        0.1798
     13 C         -15.7993   -5.2228   19.4098 C.ar    1  UNL1        0.2353
     14 O         -16.7152   -4.1584   19.9372 O.2     1  UNL1       -0.2831
     15 C         -12.0981   -5.5784   18.0225 C.ar    1  UNL1        0.0377
     16 C         -11.8053   -5.3098   16.5761 C.ar    1  UNL1        0.0031
     17 C         -10.4127   -4.9554   16.1460 C.ar    1  UNL1        0.0001
     18 C          -9.3128   -4.8696   17.1623 C.ar    1  UNL1        0.0000
     19 C          -9.6057   -5.1383   18.6088 C.ar    1  UNL1        0.0001
     20 C         -10.9982   -5.4927   19.0388 C.ar    1  UNL1        0.0031
     21 C         -13.3695   -2.9337   20.3694 C.3     1  UNL1        0.2528
     22 O         -13.9299   -3.4495   19.0772 O.3     1  UNL1       -0.4653
@<TRIPOS>BOND
     1    21    22    1
     2    22     1    1
     3     1     2   ar
     4     2    15    1
     5    15    16   ar
     6    16    17   ar
     7    17    18   ar
     8    18    19   ar
     9    19    20   ar
    10     2     3   ar
    11     3     4   ar
    12     4     5   ar
    13     5     6   ar
    14     6     7   ar
    15     7     8   ar
    16     8     9   ar
    17     9    10   ar
    18    10    11   ar
    19    11    12   ar
    20     5    13   ar
    21    13    14    2
    22    13     1   ar
    23    20    15   ar
    24    12     4   ar
    25    12     8   ar
@<TRIPOS>MOLECULE
*****
 22 25 0 0 0
SMALL
GASTEIGER

@<TRIPOS>ATOM
      1 C          -8.7185  -19.5864   20.6014 C.ar    1  UNL1        0.2118
      2 C          -8.6845  -18.6145   21.7435 C.ar    1  UNL1        0.1822
      3 O          -7.3712  -18.2087   22.3439 O.2     1  UNL1       -0.4471
      4 C          -6.0920  -18.7747   21.8024 C.ar    1  UNL1        0.1828
      5 C          -6.1261  -19.7466   20.6603 C.ar    1  UNL1        0.0797
      6 C          -4.8470  -20.3126   20.1188 C.ar    1  UNL1        0.0066
      7 C          -3.5336  -19.9067   20.7193 C.ar    1  UNL1        0.0034
      8 C          -3.4995  -18.9348   21.8613 C.ar    1  UNL1        0.0408
      9 C          -2.3644  -18.3533   22.6507 C.ar    1  UNL1        0.0438
     10 C          -2.9420  -17.4278   23.6802 C.ar    1  UNL1        0.1798
     11 O          -4.4342  -17.4374   23.5270 O.2     1  UNL1       -0.4473
     12 C          -4.7787  -18.3688   22.4028 C.ar    1  UNL1        0.1798
     13 C          -7.4394  -20.1524   20.0599 C.ar    1  UNL1        0.2353
     14 O          -7.4735  -21.1243   18.9178 O.2     1  UNL1       -0.2831
     15 C          -9.9636  -18.0484   22.2851 C.ar    1  UNL1        0.0377
     16 C         -10.8303  -18.8796   23.1840 C.ar    1  UNL1        0.0031
     17 C         -12.1095  -18.3136   23.7256 C.ar    1  UNL1        0.0001
     18 C         -12.5220  -16.9164   23.3684 C.ar    1  UNL1        0.0000
     19 C         -11.6552  -16.0852   22.4695 C.ar    1  UNL1        0.0001
     20 C         -10.3762  -16.6512   21.9279 C.ar    1  UNL1        0.0031
     21 C         -10.8193  -19.0097   19.1858 C.3     1  UNL1        0.2528
     22 O         -10.0319  -19.9922   20.0010 O.3     1  UNL1       -0.4653
@<TRIPOS>BOND
     1    21    22    1
     2    22     1    1
     3     1     2   ar
     4     2    15    1
     5    15    16   ar
     6    16    17   ar
     7    17    18   ar
     8    18    19   ar
     9    19    20   ar
    10     2     3   ar
    11     3     4   ar
    12     4     5   ar
    13     5     6   ar
    14     6     7   ar
    15     7     8   ar
    16     8     9   ar
    17     9    10   ar
    18    10    11   ar
    19    11    12   ar
    20     5    13   ar
    21    13    14    2
    22    13     1   ar
    23    20    15   ar
    24    12     4   ar
    25    12     8   ar
@<TRIPOS>MOLECULE
*****
 22 25 0 0 0
SMALL
GASTEIGER

@<TRIPOS>ATOM
      1 C         -12.1648   -5.8048   18.8895 C.ar    1  UNL1        0.2118
      2 C         -13.6509   -5.7361   18.6980 C.ar    1  UNL1        0.1822
      3 O         -14.3229   -4.4075   18.5157 O.2     1  UNL1       -0.4471
      4 C         -13.5088   -3.1477   18.5250 C.ar    1  UNL1        0.1828
      5 C         -12.0227   -3.2164   18.7165 C.ar    1  UNL1        0.0797
      6 C         -11.2086   -1.9567   18.7258 C.ar    1  UNL1        0.0066
      7 C         -11.8806   -0.6280   18.5436 C.ar    1  UNL1        0.0034
      8 C         -13.3667   -0.5592   18.3520 C.ar    1  UNL1        0.0408
      9 C         -14.3001    0.5974   18.1496 C.ar    1  UNL1        0.0438
     10 C         -15.6911    0.0524   18.0153 C.ar    1  UNL1        0.1798
     11 O         -15.6174   -1.4411   18.1346 O.2     1  UNL1       -0.4473
     12 C         -14.1808   -1.8191   18.3427 C.ar    1  UNL1        0.1798
     13 C         -11.3507   -4.5451   18.8988 C.ar    1  UNL1        0.2353
     14 O          -9.8646   -4.6139   19.0904 O.2     1  UNL1       -0.2831
     15 C         -14.4651   -6.9959   18.6887 C.ar    1  UNL1        0.0377
     16 C         -15.6294   -7.1432   19.6229 C.ar    1  UNL1        0.0031
     17 C         -16.4436   -8.4030   19.6137 C.ar    1  UNL1        0.0001
     18 C         -16.0935   -9.5154   18.6703 C.ar    1  UNL1        0.0000
     19 C         -14.9292   -9.3680   17.7361 C.ar    1  UNL1        0.0001
     20 C         -14.1150   -8.1083   17.7453 C.ar    1  UNL1        0.0031
     21 C         -10.5288   -7.6345   18.0376 C.3     1  UNL1        0.2528
     22 O         -11.4928   -7.1335   19.0718 O.3     1  UNL1       -0.4653
@<TRIPOS>BOND
     1    21    22    1
     2    22     1    1
     3     1     2   ar
     4     2    15    1
     5    15    16   ar
     6    16    17   ar
     7    17    18   ar
     8    18    19   ar
     9    19    20   ar
    10     2     3   ar
    11     3     4   ar
    12     4     5   ar
    13     5     6   ar
    14     6     7   ar
    15     7     8   ar
    16     8     9   ar
    17     9    10   ar
    18    10    11   ar
    19    11    12   ar
    20     5    13   ar
    21    13    14    2
    22    13     1   ar
    23    20    15   ar
    24    12     4   ar
    25    12     8   ar
