@<TRIPOS>MOLECULE
*****
 31 33 0 0 0
SMALL
GASTEIGER

@<TRIPOS>ATOM
      1 C          -5.6483  -17.5494   22.9006 C.ar    1  UNL1        0.0942
      2 C          -5.8523  -16.4096   23.8542 C.ar    1  UNL1        0.1078
      3 N          -7.2392  -16.0213   24.2732 N.ar    1  UNL1       -0.2119
      4 C          -8.4223  -16.7729   23.7385 C.ar    1  UNL1        0.2206
      5 N          -8.2182  -17.9126   22.7850 N.ar    1  UNL1       -0.2094
      6 C          -6.8312  -18.3009   22.3660 C.ar    1  UNL1        0.1613
      7 O          -3.2002  -16.8874   22.3360 O.2     1  UNL1       -0.2700
      8 C          -4.2613  -17.9376   22.4816 C.2     1  UNL1        0.2488
      9 N          -3.9354  -19.3761   22.2083 N.am    1  UNL1       -0.3008
     10 H          -4.6319  -20.0654   22.3039 H       1  UNL1        0.1497
     11 C          -2.5485  -19.7643   21.7893 C.3     1  UNL1        0.0898
     12 C          -1.8870  -19.0604   20.6417 C.3     1  UNL1        0.0246
     13 C          -0.4677  -18.5915   20.7671 C.3     1  UNL1        0.0338
     14 C           0.1937  -17.8876   19.6195 C.3     1  UNL1        0.1422
     15 O          -0.5641  -17.6527   18.3465 O.3     1  UNL1       -0.3538
     16 C          -1.9833  -18.1217   18.2211 C.3     1  UNL1        0.1422
     17 C          -2.6448  -18.8255   19.3687 C.3     1  UNL1        0.0338
     18 C          -6.6272  -19.4406   21.4124 C.3     1  UNL1        0.4351
     19 F          -6.4232  -20.5804   20.4588 F       1  UNL1       -0.1644
     20 F          -6.4405  -18.4661   20.2875 F       1  UNL1       -0.1644
     21 F          -6.8138  -20.4152   22.5373 F       1  UNL1       -0.1644
     22 N          -9.8092  -16.3846   24.1575 N.pl3   1  UNL1       -0.2824
     23 H          -9.9552  -15.9377   25.0225 H       1  UNL1        0.1551
     24 C         -10.9738  -16.6773   23.2586 C.ar    1  UNL1        0.0550
     25 C         -10.9749  -16.1754   21.8451 C.ar    1  UNL1        0.0444
     26 C         -12.1395  -16.4681   20.9462 C.ar    1  UNL1        0.1436
     27 F         -12.1405  -15.9661   19.5326 F       1  UNL1       -0.2041
     28 C         -13.3030  -17.2626   21.4608 C.ar    1  UNL1        0.0593
     29 C         -13.3020  -17.7645   22.8743 C.ar    1  UNL1        0.1436
     30 F         -14.4655  -18.5590   23.3890 F       1  UNL1       -0.2041
     31 C         -12.1374  -17.4718   23.7732 C.ar    1  UNL1        0.0444
@<TRIPOS>BOND
     1     7     8    2
     2     8     9   am
     3     9    11    1
     4    11    12    1
     5    12    13    1
     6    13    14    1
     7    14    15    1
     8    15    16    1
     9    16    17    1
    10     8     1    1
    11     1     2   ar
    12     2     3   ar
    13     3     4   ar
    14     4    22    1
    15    22    24    1
    16    24    25   ar
    17    25    26   ar
    18    26    27    1
    19    26    28   ar
    20    28    29   ar
    21    29    30    1
    22    29    31   ar
    23     4     5   ar
    24     5     6   ar
    25     6    18    1
    26    18    19    1
    27    18    20    1
    28    18    21    1
    29    17    12    1
    30     6     1   ar
    31    31    24   ar
    32     9    10    1
    33    22    23    1
@<TRIPOS>MOLECULE
*****
 31 33 0 0 0
SMALL
GASTEIGER

@<TRIPOS>ATOM
      1 C          -5.6468  -17.5650   22.8877 C.ar    1  UNL1        0.0942
      2 C          -5.8522  -16.4248   23.8405 C.ar    1  UNL1        0.1078
      3 N          -7.2394  -16.0396   24.2612 N.ar    1  UNL1       -0.2119
      4 C          -8.4214  -16.7946   23.7291 C.ar    1  UNL1        0.2206
      5 N          -8.2160  -17.9348   22.7763 N.ar    1  UNL1       -0.2094
      6 C          -6.8287  -18.3200   22.3556 C.ar    1  UNL1        0.1613
      7 O          -3.2006  -16.8979   22.3211 O.2     1  UNL1       -0.2700
      8 C          -4.2595  -17.9502   22.4669 C.2     1  UNL1        0.2488
      9 N          -3.9311  -19.3878   22.1920 N.am    1  UNL1       -0.3008
     10 H          -4.6261  -20.0785   22.2876 H       1  UNL1        0.1497
     11 C          -2.5439  -19.7730   21.7712 C.3     1  UNL1        0.0898
     12 C          -1.8817  -19.0612   20.6288 C.3     1  UNL1        0.0246
     13 C          -2.6369  -18.8227   19.3550 C.3     1  UNL1        0.0338
     14 C          -1.9747  -18.1109   18.2126 C.3     1  UNL1        0.1422
     15 O          -0.5574  -17.6377   18.3442 O.3     1  UNL1       -0.3538
     16 C           0.1977  -17.8762   19.6181 C.3     1  UNL1        0.1422
     17 C          -0.4644  -18.5880   20.7604 C.3     1  UNL1        0.0338
     18 C          -6.6233  -19.4601   21.4028 C.3     1  UNL1        0.4351
     19 F          -6.4179  -20.6003   20.4500 F       1  UNL1       -0.1644
     20 F          -6.4453  -18.4863   20.2758 F       1  UNL1       -0.1644
     21 F          -6.8012  -20.4339   22.5297 F       1  UNL1       -0.1644
     22 N          -9.8087  -16.4094   24.1499 N.pl3   1  UNL1       -0.2824
     23 H          -9.9549  -15.9660   25.0166 H       1  UNL1        0.1551
     24 C         -10.9732  -16.6997   23.2500 C.ar    1  UNL1        0.0550
     25 C         -12.1429  -17.4839   23.7665 C.ar    1  UNL1        0.0444
     26 C         -13.3073  -17.7742   22.8667 C.ar    1  UNL1        0.1436
     27 F         -14.4771  -18.5584   23.3832 F       1  UNL1       -0.2041
     28 C         -13.3021  -17.2804   21.4503 C.ar    1  UNL1        0.0593
     29 C         -12.1324  -16.4962   20.9339 C.ar    1  UNL1        0.1436
     30 F         -12.1271  -16.0023   19.5174 F       1  UNL1       -0.2041
     31 C         -10.9679  -16.2059   21.8337 C.ar    1  UNL1        0.0444
@<TRIPOS>BOND
     1     7     8    2
     2     8     9   am
     3     9    11    1
     4    11    12    1
     5    12    13    1
     6    13    14    1
     7    14    15    1
     8    15    16    1
     9    16    17    1
    10     8     1    1
    11     1     2   ar
    12     2     3   ar
    13     3     4   ar
    14     4    22    1
    15    22    24    1
    16    24    25   ar
    17    25    26   ar
    18    26    27    1
    19    26    28   ar
    20    28    29   ar
    21    29    30    1
    22    29    31   ar
    23     4     5   ar
    24     5     6   ar
    25     6    18    1
    26    18    19    1
    27    18    20    1
    28    18    21    1
    29    17    12    1
    30     6     1   ar
    31    31    24   ar
    32     9    10    1
    33    22    23    1
@<TRIPOS>MOLECULE
*****
 31 33 0 0 0
SMALL
GASTEIGER

@<TRIPOS>ATOM
      1 C           6.0704   -2.4252   19.2852 C.ar    1  UNL1        0.0942
      2 C           7.4698   -1.9928   19.6086 C.ar    1  UNL1        0.1078
      3 N           8.3888   -2.9190   20.3486 N.ar    1  UNL1       -0.2119
      4 C           7.9085   -4.2776   20.7652 C.ar    1  UNL1        0.2206
      5 N           6.5090   -4.7100   20.4417 N.ar    1  UNL1       -0.2094
      6 C           5.5900   -3.7838   19.7017 C.ar    1  UNL1        0.1613
      7 O           4.9104   -1.6958   17.0779 O.2     1  UNL1       -0.2700
      8 C           5.1513   -1.4991   18.5453 C.2     1  UNL1        0.2488
      9 N           4.4731   -0.3761   19.2727 N.am    1  UNL1       -0.3008
     10 H           4.6312   -0.2470   20.2358 H       1  UNL1        0.1497
     11 C           3.5541    0.5500   18.5327 C.3     1  UNL1        0.0898
     12 C           2.2043    0.8779   19.0992 C.3     1  UNL1        0.0246
     13 C           1.5276   -0.0843   20.0298 C.3     1  UNL1        0.0338
     14 C           0.1779    0.2436   20.5961 C.3     1  UNL1        0.1422
     15 O          -0.4950    1.5338   20.2319 O.3     1  UNL1       -0.3538
     16 C           0.1818    2.4960   19.3013 C.3     1  UNL1        0.1422
     17 C           1.5314    2.1681   18.7349 C.3     1  UNL1        0.0338
     18 C           4.1905   -4.2162   19.3783 C.3     1  UNL1        0.4351
     19 F           2.7911   -4.6486   19.0549 F       1  UNL1       -0.1644
     20 F           4.7120   -5.0652   18.2571 F       1  UNL1       -0.1644
     21 F           3.6691   -3.3671   20.4996 F       1  UNL1       -0.1644
     22 N           8.8275   -5.2037   21.5051 N.pl3   1  UNL1       -0.2824
     23 H           9.6375   -5.5490   21.0648 H       1  UNL1        0.1551
     24 C           8.5125   -5.6038   22.9161 C.ar    1  UNL1        0.0550
     25 C           9.0901   -6.8659   23.4845 C.ar    1  UNL1        0.0444
     26 C           8.7751   -7.2660   24.8955 C.ar    1  UNL1        0.1436
     27 F           9.3528   -8.5282   25.4639 F       1  UNL1       -0.2041
     28 C           7.8824   -6.4039   25.7379 C.ar    1  UNL1        0.0593
     29 C           7.3047   -5.1417   25.1695 C.ar    1  UNL1        0.1436
     30 F           6.4120   -4.2795   26.0119 F       1  UNL1       -0.2041
     31 C           7.6198   -4.7416   23.7585 C.ar    1  UNL1        0.0444
@<TRIPOS>BOND
     1     7     8    2
     2     8     9   am
     3     9    11    1
     4    11    12    1
     5    12    13    1
     6    13    14    1
     7    14    15    1
     8    15    16    1
     9    16    17    1
    10     8     1    1
    11     1     2   ar
    12     2     3   ar
    13     3     4   ar
    14     4    22    1
    15    22    24    1
    16    24    25   ar
    17    25    26   ar
    18    26    27    1
    19    26    28   ar
    20    28    29   ar
    21    29    30    1
    22    29    31   ar
    23     4     5   ar
    24     5     6   ar
    25     6    18    1
    26    18    19    1
    27    18    20    1
    28    18    21    1
    29    17    12    1
    30     6     1   ar
    31    31    24   ar
    32     9    10    1
    33    22    23    1
@<TRIPOS>MOLECULE
*****
 31 33 0 0 0
SMALL
GASTEIGER

@<TRIPOS>ATOM
      1 C           6.0473   -2.3923   19.3290 C.ar    1  UNL1        0.0942
      2 C           7.4420   -1.9613   19.6741 C.ar    1  UNL1        0.1078
      3 N           8.3548   -2.8955   20.4116 N.ar    1  UNL1       -0.2119
      4 C           7.8730   -4.2608   20.8040 C.ar    1  UNL1        0.2206
      5 N           6.4783   -4.6918   20.4589 N.ar    1  UNL1       -0.2094
      6 C           5.5654   -3.7575   19.7214 C.ar    1  UNL1        0.1613
      7 O           4.8726   -1.6642   17.1290 O.2     1  UNL1       -0.2700
      8 C           5.1344   -1.4581   18.5916 C.2     1  UNL1        0.2488
      9 N           4.4833   -0.3177   19.3167 N.am    1  UNL1       -0.3008
     10 H           4.6551   -0.1825   20.2766 H       1  UNL1        0.1497
     11 C           3.5704    0.6165   18.5792 C.3     1  UNL1        0.0898
     12 C           2.2094    0.9250   19.1293 C.3     1  UNL1        0.0246
     13 C           1.5187    2.2012   18.7496 C.3     1  UNL1        0.0338
     14 C           0.1577    2.5097   19.2997 C.3     1  UNL1        0.1422
     15 O          -0.5125    1.5420   20.2294 O.3     1  UNL1       -0.3538
     16 C           0.1782    0.2658   20.6090 C.3     1  UNL1        0.1422
     17 C           1.5391   -0.0427   20.0589 C.3     1  UNL1        0.0338
     18 C           4.1707   -4.1885   19.3763 C.3     1  UNL1        0.4351
     19 F           2.7760   -4.6195   19.0313 F       1  UNL1       -0.1644
     20 F           3.6378   -3.3828   20.5239 F       1  UNL1       -0.1644
     21 F           4.7036   -4.9942   18.2288 F       1  UNL1       -0.1644
     22 N           8.7859   -5.1950   21.5414 N.pl3   1  UNL1       -0.2824
     23 H           9.5898   -5.5501   21.0977 H       1  UNL1        0.1551
     24 C           8.4739   -5.5883   22.9550 C.ar    1  UNL1        0.0550
     25 C           7.5983   -4.7124   23.8012 C.ar    1  UNL1        0.0444
     26 C           7.2864   -5.1057   25.2148 C.ar    1  UNL1        0.1436
     27 F           6.4107   -4.2298   26.0611 F       1  UNL1       -0.2041
     28 C           7.8500   -6.3747   25.7820 C.ar    1  UNL1        0.0593
     29 C           8.7256   -7.2505   24.9358 C.ar    1  UNL1        0.1436
     30 F           9.2893   -8.5196   25.5030 F       1  UNL1       -0.2041
     31 C           9.0376   -6.8573   23.5222 C.ar    1  UNL1        0.0444
@<TRIPOS>BOND
     1     7     8    2
     2     8     9   am
     3     9    11    1
     4    11    12    1
     5    12    13    1
     6    13    14    1
     7    14    15    1
     8    15    16    1
     9    16    17    1
    10     8     1    1
    11     1     2   ar
    12     2     3   ar
    13     3     4   ar
    14     4    22    1
    15    22    24    1
    16    24    25   ar
    17    25    26   ar
    18    26    27    1
    19    26    28   ar
    20    28    29   ar
    21    29    30    1
    22    29    31   ar
    23     4     5   ar
    24     5     6   ar
    25     6    18    1
    26    18    19    1
    27    18    20    1
    28    18    21    1
    29    17    12    1
    30     6     1   ar
    31    31    24   ar
    32     9    10    1
    33    22    23    1
@<TRIPOS>MOLECULE
*****
 31 33 0 0 0
SMALL
GASTEIGER

@<TRIPOS>ATOM
      1 C          -9.0695  -19.4603   21.0388 C.ar    1  UNL1        0.0942
      2 C          -8.5386  -19.6315   19.6464 C.ar    1  UNL1        0.1078
      3 N          -7.0904  -19.9572   19.4306 N.ar    1  UNL1       -0.2119
      4 C          -6.1730  -20.1116   20.6073 C.ar    1  UNL1        0.2206
      5 N          -6.7039  -19.9404   21.9998 N.ar    1  UNL1       -0.2094
      6 C          -8.1521  -19.6147   22.2155 C.ar    1  UNL1        0.1613
      7 O         -11.5557  -20.2096   21.1240 O.2     1  UNL1       -0.2700
      8 C         -10.5177  -19.1346   21.2546 C.2     1  UNL1        0.2488
      9 N         -10.9280  -17.7339   21.6010 N.am    1  UNL1       -0.3008
     10 H         -10.2467  -17.0284   21.6867 H       1  UNL1        0.1497
     11 C         -12.3762  -17.4083   21.8168 C.3     1  UNL1        0.0898
     12 C         -13.0724  -17.8742   23.0611 C.3     1  UNL1        0.0246
     13 C         -14.5689  -17.9716   23.0915 C.3     1  UNL1        0.0338
     14 C         -15.2650  -18.4375   24.3357 C.3     1  UNL1        0.1422
     15 O         -14.4647  -18.8061   25.5496 O.3     1  UNL1       -0.3538
     16 C         -12.9682  -18.7088   25.5193 C.3     1  UNL1        0.1422
     17 C         -12.2720  -18.2428   24.2750 C.3     1  UNL1        0.0338
     18 C          -8.6830  -19.4434   23.6079 C.3     1  UNL1        0.4351
     19 F          -9.2138  -19.2722   25.0004 F       1  UNL1       -0.1644
     20 F          -8.4093  -17.9706   23.5312 F       1  UNL1       -0.1644
     21 F          -8.9567  -20.9163   23.6847 F       1  UNL1       -0.1644
     22 N          -4.7248  -20.4373   20.3916 N.pl3   1  UNL1       -0.2824
     23 H          -4.4378  -21.3757   20.3119 H       1  UNL1        0.1551
     24 C          -3.7138  -19.3332   20.2971 C.ar    1  UNL1        0.0550
     25 C          -3.3709  -18.5243   21.5127 C.ar    1  UNL1        0.0444
     26 C          -2.3598  -17.4202   21.4183 C.ar    1  UNL1        0.1436
     27 F          -2.0169  -16.6112   22.6340 F       1  UNL1       -0.2041
     28 C          -1.6917  -17.1252   20.1081 C.ar    1  UNL1        0.0593
     29 C          -2.0347  -17.9341   18.8925 C.ar    1  UNL1        0.1436
     30 F          -1.3666  -17.6391   17.5822 F       1  UNL1       -0.2041
     31 C          -3.0457  -19.0382   18.9869 C.ar    1  UNL1        0.0444
@<TRIPOS>BOND
     1     7     8    2
     2     8     9   am
     3     9    11    1
     4    11    12    1
     5    12    13    1
     6    13    14    1
     7    14    15    1
     8    15    16    1
     9    16    17    1
    10     8     1    1
    11     1     2   ar
    12     2     3   ar
    13     3     4   ar
    14     4    22    1
    15    22    24    1
    16    24    25   ar
    17    25    26   ar
    18    26    27    1
    19    26    28   ar
    20    28    29   ar
    21    29    30    1
    22    29    31   ar
    23     4     5   ar
    24     5     6   ar
    25     6    18    1
    26    18    19    1
    27    18    20    1
    28    18    21    1
    29    17    12    1
    30     6     1   ar
    31    31    24   ar
    32     9    10    1
    33    22    23    1
@<TRIPOS>MOLECULE
*****
 31 33 0 0 0
SMALL
GASTEIGER

@<TRIPOS>ATOM
      1 C          -7.7298  -19.3095   21.2219 C.ar    1  UNL1        0.0942
      2 C          -6.8211  -18.9141   22.3479 C.ar    1  UNL1        0.1078
      3 N          -5.3526  -19.2085   22.2653 N.ar    1  UNL1       -0.2119
      4 C          -4.7928  -19.8984   21.0566 C.ar    1  UNL1        0.2206
      5 N          -5.7015  -20.2938   19.9306 N.ar    1  UNL1       -0.2094
      6 C          -7.1701  -19.9993   20.0133 C.ar    1  UNL1        0.1613
      7 O         -10.1957  -20.1239   21.1438 O.2     1  UNL1       -0.2700
      8 C          -9.1983  -19.0151   21.3045 C.2     1  UNL1        0.2488
      9 N          -9.6694  -17.6119   21.5479 N.am    1  UNL1       -0.3008
     10 H          -9.0148  -16.8842   21.6534 H       1  UNL1        0.1497
     11 C         -11.1379  -17.3176   21.6305 C.3     1  UNL1        0.0898
     12 C         -11.9271  -17.7677   22.8241 C.3     1  UNL1        0.0246
     13 C         -13.4133  -17.5682   22.8592 C.3     1  UNL1        0.0338
     14 C         -14.2025  -18.0184   24.0527 C.3     1  UNL1        0.1422
     15 O         -13.5054  -18.6681   25.2112 O.3     1  UNL1       -0.3538
     16 C         -12.0192  -18.8676   25.1761 C.3     1  UNL1        0.1422
     17 C         -11.2300  -18.4174   23.9825 C.3     1  UNL1        0.0338
     18 C          -8.0788  -20.3947   18.8873 C.3     1  UNL1        0.4351
     19 F          -8.9875  -20.7902   17.7613 F       1  UNL1       -0.1644
     20 F          -8.5310  -18.9709   18.7522 F       1  UNL1       -0.1644
     21 F          -7.6266  -21.8186   19.0224 F       1  UNL1       -0.1644
     22 N          -3.3243  -20.1928   20.9740 N.pl3   1  UNL1       -0.2824
     23 H          -2.9635  -21.0145   21.3787 H       1  UNL1        0.1551
     24 C          -2.4056  -19.2351   20.2748 C.ar    1  UNL1        0.0550
     25 C          -2.8791  -18.4926   19.0606 C.ar    1  UNL1        0.0444
     26 C          -1.9603  -17.5350   18.3614 C.ar    1  UNL1        0.1436
     27 F          -2.4339  -16.7925   17.1471 F       1  UNL1       -0.2041
     28 C          -0.5681  -17.3199   18.8765 C.ar    1  UNL1        0.0593
     29 C          -0.0946  -18.0624   20.0907 C.ar    1  UNL1        0.1436
     30 F           1.2977  -17.8473   20.6058 F       1  UNL1       -0.2041
     31 C          -1.0133  -19.0200   20.7899 C.ar    1  UNL1        0.0444
@<TRIPOS>BOND
     1     7     8    2
     2     8     9   am
     3     9    11    1
     4    11    12    1
     5    12    13    1
     6    13    14    1
     7    14    15    1
     8    15    16    1
     9    16    17    1
    10     8     1    1
    11     1     2   ar
    12     2     3   ar
    13     3     4   ar
    14     4    22    1
    15    22    24    1
    16    24    25   ar
    17    25    26   ar
    18    26    27    1
    19    26    28   ar
    20    28    29   ar
    21    29    30    1
    22    29    31   ar
    23     4     5   ar
    24     5     6   ar
    25     6    18    1
    26    18    19    1
    27    18    20    1
    28    18    21    1
    29    17    12    1
    30     6     1   ar
    31    31    24   ar
    32     9    10    1
    33    22    23    1
@<TRIPOS>MOLECULE
*****
 31 33 0 0 0
SMALL
GASTEIGER

@<TRIPOS>ATOM
      1 C          -7.6160  -19.1310   21.2877 C.ar    1  UNL1        0.0942
      2 C          -6.6880  -18.6800   22.3764 C.ar    1  UNL1        0.1078
      3 N          -5.2246  -18.9991   22.2946 N.ar    1  UNL1       -0.2119
      4 C          -4.6892  -19.7692   21.1240 C.ar    1  UNL1        0.2206
      5 N          -5.6172  -20.2202   20.0352 N.ar    1  UNL1       -0.2094
      6 C          -7.0807  -19.9011   20.1171 C.ar    1  UNL1        0.1613
      7 O         -10.0957  -19.8992   21.1825 O.2     1  UNL1       -0.2700
      8 C          -9.0793  -18.8119   21.3695 C.2     1  UNL1        0.2488
      9 N          -9.5264  -17.4055   21.6383 N.am    1  UNL1       -0.3008
     10 H          -8.8594  -16.6919   21.7610 H       1  UNL1        0.1497
     11 C         -10.9898  -17.0864   21.7201 C.3     1  UNL1        0.0898
     12 C         -11.8106  -17.6168   22.8581 C.3     1  UNL1        0.0246
     13 C         -11.1413  -18.3185   24.0025 C.3     1  UNL1        0.0338
     14 C         -11.9622  -18.8489   25.1403 C.3     1  UNL1        0.1422
     15 O         -13.4523  -18.6777   25.1338 O.3     1  UNL1       -0.3538
     16 C         -14.1217  -17.9760   23.9895 C.3     1  UNL1        0.1422
     17 C         -13.3008  -17.4456   22.8516 C.3     1  UNL1        0.0338
     18 C          -8.0087  -20.3521   19.0283 C.3     1  UNL1        0.4351
     19 F          -8.9367  -20.8031   17.9395 F       1  UNL1       -0.1644
     20 F          -7.5577  -21.7683   19.2306 F       1  UNL1       -0.1644
     21 F          -8.4597  -18.9359   18.8261 F       1  UNL1       -0.1644
     22 N          -3.2259  -20.0883   21.0422 N.pl3   1  UNL1       -0.2824
     23 H          -2.8754  -20.9040   21.4677 H       1  UNL1        0.1551
     24 C          -2.2965  -19.1647   20.3120 C.ar    1  UNL1        0.0550
     25 C          -0.9074  -18.9353   20.8294 C.ar    1  UNL1        0.0444
     26 C           0.0219  -18.0117   20.0992 C.ar    1  UNL1        0.1436
     27 F           1.4111  -17.7823   20.6167 F       1  UNL1       -0.2041
     28 C          -0.4378  -17.3175   18.8516 C.ar    1  UNL1        0.0593
     29 C          -1.8269  -17.5469   18.3341 C.ar    1  UNL1        0.1436
     30 F          -2.2866  -16.8526   17.0864 F       1  UNL1       -0.2041
     31 C          -2.7562  -18.4705   19.0643 C.ar    1  UNL1        0.0444
@<TRIPOS>BOND
     1     7     8    2
     2     8     9   am
     3     9    11    1
     4    11    12    1
     5    12    13    1
     6    13    14    1
     7    14    15    1
     8    15    16    1
     9    16    17    1
    10     8     1    1
    11     1     2   ar
    12     2     3   ar
    13     3     4   ar
    14     4    22    1
    15    22    24    1
    16    24    25   ar
    17    25    26   ar
    18    26    27    1
    19    26    28   ar
    20    28    29   ar
    21    29    30    1
    22    29    31   ar
    23     4     5   ar
    24     5     6   ar
    25     6    18    1
    26    18    19    1
    27    18    20    1
    28    18    21    1
    29    17    12    1
    30     6     1   ar
    31    31    24   ar
    32     9    10    1
    33    22    23    1
@<TRIPOS>MOLECULE
*****
 31 33 0 0 0
SMALL
GASTEIGER

@<TRIPOS>ATOM
      1 C           5.9391   -2.3398   19.3952 C.ar    1  UNL1        0.0942
      2 C           7.2919   -1.8653   19.8368 C.ar    1  UNL1        0.1078
      3 N           8.1592   -2.7520   20.6803 N.ar    1  UNL1       -0.2119
      4 C           7.6738   -4.1133   21.0822 C.ar    1  UNL1        0.2206
      5 N           6.3211   -4.5878   20.6406 N.ar    1  UNL1       -0.2094
      6 C           5.4537   -3.7010   19.7971 C.ar    1  UNL1        0.1613
      7 O           5.2580   -1.4177   17.0638 O.2     1  UNL1       -0.2700
      8 C           5.0718   -1.4531   18.5518 C.2     1  UNL1        0.2488
      9 N           4.0183   -0.6018   19.1963 N.am    1  UNL1       -0.3008
     10 H           3.8961   -0.6250   20.1729 H       1  UNL1        0.1497
     11 C           3.1509    0.2849   18.3528 C.3     1  UNL1        0.0898
     12 C           3.4036    1.7630   18.3130 C.3     1  UNL1        0.0246
     13 C           2.2747    2.7233   18.5444 C.3     1  UNL1        0.0338
     14 C           2.5274    4.2013   18.5047 C.3     1  UNL1        0.1422
     15 O           3.9089    4.7190   18.2336 O.3     1  UNL1       -0.3538
     16 C           5.0377    3.7587   18.0022 C.3     1  UNL1        0.1422
     17 C           4.7850    2.2807   18.0419 C.3     1  UNL1        0.0338
     18 C           4.1010   -4.1755   19.3555 C.3     1  UNL1        0.4351
     19 F           2.7483   -4.6499   18.9139 F       1  UNL1       -0.1644
     20 F           4.7311   -4.8985   18.2022 F       1  UNL1       -0.1644
     21 F           3.4709   -3.4524   20.5088 F       1  UNL1       -0.1644
     22 N           8.5411   -5.0000   21.9257 N.pl3   1  UNL1       -0.2824
     23 H           9.3902   -5.3445   21.5658 H       1  UNL1        0.1551
     24 C           8.1148   -5.3617   23.3176 C.ar    1  UNL1        0.0550
     25 C           8.4144   -6.7265   23.8629 C.ar    1  UNL1        0.0444
     26 C           7.9881   -7.0882   25.2549 C.ar    1  UNL1        0.1436
     27 F           8.2878   -8.4531   25.8002 F       1  UNL1       -0.2041
     28 C           7.2621   -6.0851   26.1014 C.ar    1  UNL1        0.0593
     29 C           6.9624   -4.7203   25.5561 C.ar    1  UNL1        0.1436
     30 F           6.2364   -3.7172   26.4026 F       1  UNL1       -0.2041
     31 C           7.3888   -4.3586   24.1641 C.ar    1  UNL1        0.0444
@<TRIPOS>BOND
     1     7     8    2
     2     8     9   am
     3     9    11    1
     4    11    12    1
     5    12    13    1
     6    13    14    1
     7    14    15    1
     8    15    16    1
     9    16    17    1
    10     8     1    1
    11     1     2   ar
    12     2     3   ar
    13     3     4   ar
    14     4    22    1
    15    22    24    1
    16    24    25   ar
    17    25    26   ar
    18    26    27    1
    19    26    28   ar
    20    28    29   ar
    21    29    30    1
    22    29    31   ar
    23     4     5   ar
    24     5     6   ar
    25     6    18    1
    26    18    19    1
    27    18    20    1
    28    18    21    1
    29    17    12    1
    30     6     1   ar
    31    31    24   ar
    32     9    10    1
    33    22    23    1
@<TRIPOS>MOLECULE
*****
 31 33 0 0 0
SMALL
GASTEIGER

@<TRIPOS>ATOM
      1 C           6.9930   -3.1166   20.8679 C.ar    1  UNL1        0.0942
      2 C           8.3311   -3.6232   20.4174 C.ar    1  UNL1        0.1078
      3 N           9.0443   -4.6720   21.2181 N.ar    1  UNL1       -0.2119
      4 C           8.4196   -5.2143   22.4694 C.ar    1  UNL1        0.2206
      5 N           7.0815   -4.7077   22.9200 N.ar    1  UNL1       -0.2094
      6 C           6.3682   -3.6588   22.1192 C.ar    1  UNL1        0.1613
      7 O           6.5230   -0.6147   20.3489 O.2     1  UNL1       -0.2700
      8 C           6.2797   -2.0678   20.0672 C.2     1  UNL1        0.2488
      9 N           5.3231   -2.4720   18.9848 N.am    1  UNL1       -0.3008
     10 H           5.1635   -3.4258   18.7999 H       1  UNL1        0.1497
     11 C           4.6099   -1.4232   18.1841 C.3     1  UNL1        0.0898
     12 C           3.3162   -0.8501   18.6822 C.3     1  UNL1        0.0246
     13 C           2.6871   -1.3926   19.9311 C.3     1  UNL1        0.0338
     14 C           1.3934   -0.8195   20.4291 C.3     1  UNL1        0.1422
     15 O           0.7289    0.2960   19.6781 O.3     1  UNL1       -0.3538
     16 C           1.3580    0.8385   18.4292 C.3     1  UNL1        0.1422
     17 C           2.6516    0.2654   17.9312 C.3     1  UNL1        0.0338
     18 C           5.0302   -3.1522   22.5697 C.3     1  UNL1        0.4351
     19 F           3.6921   -2.6456   23.0202 F       1  UNL1       -0.1644
     20 F           5.7043   -2.0515   23.3340 F       1  UNL1       -0.1644
     21 F           4.3561   -4.2528   21.8054 F       1  UNL1       -0.1644
     22 N           9.1328   -6.2631   23.2701 N.pl3   1  UNL1       -0.2824
     23 H           9.7999   -6.8437   22.8375 H       1  UNL1        0.1551
     24 C           8.8297   -6.4274   24.7300 C.ar    1  UNL1        0.0550
     25 C           9.0822   -5.2948   25.6805 C.ar    1  UNL1        0.0444
     26 C           8.7790   -5.4590   27.1403 C.ar    1  UNL1        0.1436
     27 F           9.0315   -4.3264   28.0908 F       1  UNL1       -0.2041
     28 C           8.2235   -6.7559   27.6497 C.ar    1  UNL1        0.0593
     29 C           7.9711   -7.8885   26.6992 C.ar    1  UNL1        0.1436
     30 F           7.4155   -9.1854   27.2085 F       1  UNL1       -0.2041
     31 C           8.2742   -7.7242   25.2393 C.ar    1  UNL1        0.0444
@<TRIPOS>BOND
     1     7     8    2
     2     8     9   am
     3     9    11    1
     4    11    12    1
     5    12    13    1
     6    13    14    1
     7    14    15    1
     8    15    16    1
     9    16    17    1
    10     8     1    1
    11     1     2   ar
    12     2     3   ar
    13     3     4   ar
    14     4    22    1
    15    22    24    1
    16    24    25   ar
    17    25    26   ar
    18    26    27    1
    19    26    28   ar
    20    28    29   ar
    21    29    30    1
    22    29    31   ar
    23     4     5   ar
    24     5     6   ar
    25     6    18    1
    26    18    19    1
    27    18    20    1
    28    18    21    1
    29    17    12    1
    30     6     1   ar
    31    31    24   ar
    32     9    10    1
    33    22    23    1
