@<TRIPOS>MOLECULE
*****
 30 33 0 0 0
SMALL
GASTEIGER

@<TRIPOS>ATOM
      1 C          -0.6417    2.2237   20.3335 C.ar    1  UNL1        0.1311
      2 C           0.1042    3.0369   19.3175 C.ar    1  UNL1        0.0339
      3 C           1.2279    2.4181   18.5400 C.ar    1  UNL1        0.0027
      4 C           1.6056    0.9862   18.7785 C.ar    1  UNL1        0.0283
      5 C           0.8596    0.1730   19.7945 C.ar    1  UNL1        0.2196
      6 F           1.2373   -1.2589   20.0330 F       1  UNL1       -0.1835
      7 N          -0.2640    0.7918   20.5720 N.ar    1  UNL1       -0.2035
      8 N          -1.7654    2.8425   21.1110 N.pl3   1  UNL1       -0.3144
      9 H          -1.7430    2.8397   22.0952 H       1  UNL1        0.1485
     10 C          -2.9233    3.4655   20.3890 C.3     1  UNL1        0.1169
     11 C          -6.7969    4.1984   22.5585 C.ar    1  UNL1        0.2250
     12 C          -6.6701    4.5581   21.1078 C.ar    1  UNL1        0.0574
     13 C          -5.3789    4.3137   20.3846 C.ar    1  UNL1        0.0037
     14 C          -4.2144    3.7098   21.1122 C.ar    1  UNL1        0.0168
     15 C          -4.3412    3.3501   22.5629 C.ar    1  UNL1        0.0994
     16 N          -5.6325    3.5945   23.2861 N.ar    1  UNL1       -0.2104
     17 C          -8.2676    5.6899   24.0956 C.3     1  UNL1        0.2542
     18 O          -8.0881    4.4427   23.2818 O.3     1  UNL1       -0.4561
     19 C           2.7293    0.3674   18.0010 C.3     1  UNL1        0.0582
     20 C           4.0271    0.0496   18.6826 C.ar    1  UNL1        0.0044
     21 C           5.0645    1.0445   19.1116 C.ar    1  UNL1        0.0966
     22 N           6.1939    0.2907   19.7491 N.ar    1  UNL1       -0.2273
     23 C           5.8545   -1.1699   19.7141 C.ar    1  UNL1        0.1402
     24 N           6.5918   -2.3835   20.1973 N.ar    1  UNL1       -0.3377
     25 C           5.9900   -3.7461   20.0214 C.ar    1  UNL1        0.0691
     26 C           4.6508   -3.8952   19.3623 C.ar    1  UNL1       -0.0047
     27 C           4.0490   -5.2579   19.1864 C.3     1  UNL1        0.0326
     28 C           3.9135   -2.6816   18.8791 C.ar    1  UNL1       -0.0001
     29 C           4.5153   -1.3190   19.0550 C.ar    1  UNL1        0.0315
     30 H           7.4708   -2.2857   20.6299 H       1  UNL1        0.1674
@<TRIPOS>BOND
     1    17    18    1
     2    18    11    1
     3    11    12   ar
     4    12    13   ar
     5    13    14   ar
     6    14    10    1
     7    10     8    1
     8     8     1    1
     9     1     2   ar
    10     2     3   ar
    11     3     4   ar
    12     4    19    1
    13    19    20    1
    14    20    21   ar
    15    21    22   ar
    16    22    23   ar
    17    23    24   ar
    18    24    25   ar
    19    25    26   ar
    20    26    27    1
    21    26    28   ar
    22    28    29   ar
    23     4     5   ar
    24     5     6    1
    25     5     7   ar
    26    14    15   ar
    27    15    16   ar
    28    16    11   ar
    29     7     1   ar
    30    29    20   ar
    31    29    23    1
    32     8     9    1
    33    24    30    1
@<TRIPOS>MOLECULE
*****
 30 33 0 0 0
SMALL
GASTEIGER

@<TRIPOS>ATOM
      1 C          -0.5434    2.2403   20.7748 C.ar    1  UNL1        0.1311
      2 C           0.0650    3.0385   19.6601 C.ar    1  UNL1        0.0339
      3 C           1.0331    2.3904   18.7153 C.ar    1  UNL1        0.0027
      4 C           1.3927    0.9441   18.8851 C.ar    1  UNL1        0.0283
      5 C           0.7842    0.1458   19.9998 C.ar    1  UNL1        0.2196
      6 F           1.1438   -1.3005   20.1696 F       1  UNL1       -0.1835
      7 N          -0.1838    0.7940   20.9446 N.ar    1  UNL1       -0.2035
      8 N          -1.5115    2.8883   21.7197 N.pl3   1  UNL1       -0.3144
      9 H          -2.4805    2.7890   21.5765 H       1  UNL1        0.1485
     10 C          -1.0034    3.6877   22.8828 C.3     1  UNL1        0.1169
     11 C          -0.8440    1.8416   26.9836 C.ar    1  UNL1        0.2250
     12 C           0.0642    1.3410   25.8999 C.ar    1  UNL1        0.0574
     13 C           0.0111    1.9563   24.5330 C.ar    1  UNL1        0.0037
     14 C          -0.9503    3.0724   24.2498 C.ar    1  UNL1        0.0168
     15 C          -1.8586    3.5730   25.3334 C.ar    1  UNL1        0.0994
     16 N          -1.8054    2.9576   26.7004 N.ar    1  UNL1       -0.2104
     17 C          -1.1965   -0.2048   28.5451 C.3     1  UNL1        0.2542
     18 O          -0.7910    1.2263   28.3505 O.3     1  UNL1       -0.4561
     19 C           2.3608    0.2960   17.9401 C.3     1  UNL1        0.0582
     20 C           3.7559   -0.0172   18.3936 C.ar    1  UNL1        0.0044
     21 C           4.8973    0.9532   18.4686 C.ar    1  UNL1        0.0966
     22 N           6.1013    0.2143   18.9731 N.ar    1  UNL1       -0.2273
     23 C           5.7040   -1.2126   19.2099 C.ar    1  UNL1        0.1402
     24 N           6.4749   -2.4001   19.7054 N.ar    1  UNL1       -0.3377
     25 C           5.7962   -3.7306   19.8428 C.ar    1  UNL1        0.0691
     26 C           4.3466   -3.8737   19.4846 C.ar    1  UNL1       -0.0047
     27 C           3.6679   -5.2044   19.6220 C.3     1  UNL1        0.0326
     28 C           3.5757   -2.6862   18.9891 C.ar    1  UNL1       -0.0001
     29 C           4.2544   -1.3556   18.8518 C.ar    1  UNL1        0.0315
     30 H           7.4263   -2.3062   19.9404 H       1  UNL1        0.1674
@<TRIPOS>BOND
     1    17    18    1
     2    18    11    1
     3    11    12   ar
     4    12    13   ar
     5    13    14   ar
     6    14    10    1
     7    10     8    1
     8     8     1    1
     9     1     2   ar
    10     2     3   ar
    11     3     4   ar
    12     4    19    1
    13    19    20    1
    14    20    21   ar
    15    21    22   ar
    16    22    23   ar
    17    23    24   ar
    18    24    25   ar
    19    25    26   ar
    20    26    27    1
    21    26    28   ar
    22    28    29   ar
    23     4     5   ar
    24     5     6    1
    25     5     7   ar
    26    14    15   ar
    27    15    16   ar
    28    16    11   ar
    29     7     1   ar
    30    29    20   ar
    31    29    23    1
    32     8     9    1
    33    24    30    1
@<TRIPOS>MOLECULE
*****
 30 33 0 0 0
SMALL
GASTEIGER

@<TRIPOS>ATOM
      1 C           6.7001   -3.2949   24.2961 C.ar    1  UNL1        0.1311
      2 C           5.2441   -2.9609   24.1600 C.ar    1  UNL1        0.0339
      3 C           4.5384   -3.1994   22.8581 C.ar    1  UNL1        0.0027
      4 C           5.2887   -3.7719   21.6922 C.ar    1  UNL1        0.0283
      5 C           6.7447   -4.1059   21.8282 C.ar    1  UNL1        0.2196
      6 F           7.4950   -4.6784   20.6624 F       1  UNL1       -0.1835
      7 N           7.4503   -3.8674   23.1302 N.ar    1  UNL1       -0.2035
      8 N           7.4058   -3.0564   25.5980 N.pl3   1  UNL1       -0.3144
      9 H           7.6808   -2.1451   25.8491 H       1  UNL1        0.1485
     10 C           7.6926   -4.2065   26.5174 C.3     1  UNL1        0.1169
     11 C           6.6267   -3.9195   30.8799 C.ar    1  UNL1        0.2250
     12 C           7.0140   -5.2422   30.2879 C.ar    1  UNL1        0.0574
     13 C           7.3693   -5.3378   28.8337 C.ar    1  UNL1        0.0037
     14 C           7.3373   -4.1108   27.9716 C.ar    1  UNL1        0.0168
     15 C           6.9500   -2.7881   28.5636 C.ar    1  UNL1        0.0994
     16 N           6.5947   -2.6925   30.0178 N.ar    1  UNL1       -0.2104
     17 C           5.3364   -2.7512   32.8086 C.3     1  UNL1        0.2542
     18 O           6.2714   -3.8239   32.3340 O.3     1  UNL1       -0.4561
     19 C           4.5830   -4.0104   20.3902 C.3     1  UNL1        0.0582
     20 C           4.5790   -2.9460   19.3333 C.ar    1  UNL1        0.0044
     21 C           5.5634   -2.8161   18.2090 C.ar    1  UNL1        0.0966
     22 N           5.1827   -1.6144   17.3960 N.ar    1  UNL1       -0.2273
     23 C           3.9629   -1.0016   18.0178 C.ar    1  UNL1        0.1402
     24 N           3.1438    0.1995   17.6485 N.ar    1  UNL1       -0.3377
     25 C           1.9516    0.5776   18.4765 C.ar    1  UNL1        0.0691
     26 C           1.5785   -0.2454   19.6738 C.ar    1  UNL1       -0.0047
     27 C           0.3862    0.1328   20.5018 C.3     1  UNL1        0.0326
     28 C           2.3976   -1.4464   20.0431 C.ar    1  UNL1       -0.0001
     29 C           3.5898   -1.8245   19.2151 C.ar    1  UNL1        0.0315
     30 H           3.3887    0.7396   16.8627 H       1  UNL1        0.1674
@<TRIPOS>BOND
     1    17    18    1
     2    18    11    1
     3    11    12   ar
     4    12    13   ar
     5    13    14   ar
     6    14    10    1
     7    10     8    1
     8     8     1    1
     9     1     2   ar
    10     2     3   ar
    11     3     4   ar
    12     4    19    1
    13    19    20    1
    14    20    21   ar
    15    21    22   ar
    16    22    23   ar
    17    23    24   ar
    18    24    25   ar
    19    25    26   ar
    20    26    27    1
    21    26    28   ar
    22    28    29   ar
    23     4     5   ar
    24     5     6    1
    25     5     7   ar
    26    14    15   ar
    27    15    16   ar
    28    16    11   ar
    29     7     1   ar
    30    29    20   ar
    31    29    23    1
    32     8     9    1
    33    24    30    1
@<TRIPOS>MOLECULE
*****
 30 33 0 0 0
SMALL
GASTEIGER

@<TRIPOS>ATOM
      1 C           0.5235    1.9707   23.6688 C.ar    1  UNL1        0.1311
      2 C           1.5374    0.8846   23.4627 C.ar    1  UNL1        0.0339
      3 C           1.7550    0.3119   22.0935 C.ar    1  UNL1        0.0027
      4 C           0.9589    0.8253   20.9305 C.ar    1  UNL1        0.0283
      5 C          -0.0550    1.9114   21.1367 C.ar    1  UNL1        0.2196
      6 F          -0.8512    2.4248   19.9737 F       1  UNL1       -0.1835
      7 N          -0.2726    2.4840   22.5059 N.ar    1  UNL1       -0.2035
      8 N           0.3058    2.5434   25.0380 N.pl3   1  UNL1       -0.3144
      9 H           0.6873    3.4205   25.2710 H       1  UNL1        0.1485
     10 C          -0.4931    1.7797   26.0522 C.3     1  UNL1        0.1169
     11 C           1.5793   -0.2015   29.5205 C.ar    1  UNL1        0.2250
     12 C           2.3867    0.4022   28.4099 C.ar    1  UNL1        0.0574
     13 C           1.6959    1.0626   27.2538 C.ar    1  UNL1        0.0037
     14 C           0.1976    1.1193   27.2083 C.ar    1  UNL1        0.0168
     15 C          -0.6098    0.5155   28.3190 C.ar    1  UNL1        0.0994
     16 N           0.0810   -0.1449   29.4751 N.ar    1  UNL1       -0.2104
     17 C           3.0179   -0.0315   31.6772 C.3     1  UNL1        0.2542
     18 O           2.2700   -0.8619   30.6767 O.3     1  UNL1       -0.4561
     19 C           1.1766    0.2525   19.5613 C.3     1  UNL1        0.0582
     20 C           2.5503    0.2506   18.9589 C.ar    1  UNL1        0.0044
     21 C           3.2712    1.4430   18.4036 C.ar    1  UNL1        0.0966
     22 N           4.6107    0.9852   17.9075 N.ar    1  UNL1       -0.2273
     23 C           4.7177   -0.4902   18.1562 C.ar    1  UNL1        0.1402
     24 N           5.8101   -1.4788   17.8750 N.ar    1  UNL1       -0.3377
     25 C           5.6290   -2.9215   18.2435 C.ar    1  UNL1        0.0691
     26 C           4.3556   -3.3755   18.8933 C.ar    1  UNL1       -0.0047
     27 C           4.1746   -4.8183   19.2618 C.3     1  UNL1        0.0326
     28 C           3.2632   -2.3869   19.1745 C.ar    1  UNL1       -0.0001
     29 C           3.4442   -0.9442   18.8060 C.ar    1  UNL1        0.0315
     30 H           6.6459   -1.1809   17.4485 H       1  UNL1        0.1674
@<TRIPOS>BOND
     1    17    18    1
     2    18    11    1
     3    11    12   ar
     4    12    13   ar
     5    13    14   ar
     6    14    10    1
     7    10     8    1
     8     8     1    1
     9     1     2   ar
    10     2     3   ar
    11     3     4   ar
    12     4    19    1
    13    19    20    1
    14    20    21   ar
    15    21    22   ar
    16    22    23   ar
    17    23    24   ar
    18    24    25   ar
    19    25    26   ar
    20    26    27    1
    21    26    28   ar
    22    28    29   ar
    23     4     5   ar
    24     5     6    1
    25     5     7   ar
    26    14    15   ar
    27    15    16   ar
    28    16    11   ar
    29     7     1   ar
    30    29    20   ar
    31    29    23    1
    32     8     9    1
    33    24    30    1
@<TRIPOS>MOLECULE
*****
 30 33 0 0 0
SMALL
GASTEIGER

@<TRIPOS>ATOM
      1 C           4.7641   -3.2979   20.6372 C.ar    1  UNL1        0.1311
      2 C           4.5242   -3.3665   22.1163 C.ar    1  UNL1        0.0339
      3 C           5.6414   -3.7515   23.0402 C.ar    1  UNL1        0.0027
      4 C           6.9985   -4.0678   22.4850 C.ar    1  UNL1        0.0283
      5 C           7.2385   -3.9991   21.0059 C.ar    1  UNL1        0.2196
      6 F           8.5956   -4.3154   20.4508 F       1  UNL1       -0.1835
      7 N           6.1213   -3.6141   20.0821 N.ar    1  UNL1       -0.2035
      8 N           3.6470   -2.9129   19.7133 N.pl3   1  UNL1       -0.3144
      9 H           2.9519   -3.5702   19.4808 H       1  UNL1        0.1485
     10 C           3.5888   -1.5265   19.1435 C.3     1  UNL1        0.1169
     11 C           0.1744    1.2033   20.2110 C.ar    1  UNL1        0.2250
     12 C           0.8453    0.3890   21.2773 C.ar    1  UNL1        0.0574
     13 C           1.9834   -0.5209   20.9214 C.ar    1  UNL1        0.0037
     14 C           2.4507   -0.6166   19.4992 C.ar    1  UNL1        0.0168
     15 C           1.7798    0.1977   18.4330 C.ar    1  UNL1        0.0994
     16 N           0.6417    1.1076   18.7888 N.ar    1  UNL1       -0.2104
     17 C          -0.8902    2.9577   21.8043 C.3     1  UNL1        0.2542
     18 O          -0.9637    2.1132   20.5668 O.3     1  UNL1       -0.4561
     19 C           8.1158   -4.4528   23.4090 C.3     1  UNL1        0.0582
     20 C           7.8869   -5.4845   24.4736 C.ar    1  UNL1        0.0044
     21 C           8.0969   -6.9626   24.3286 C.ar    1  UNL1        0.0966
     22 N           7.7476   -7.6107   25.6354 N.ar    1  UNL1       -0.2273
     23 C           7.3216   -6.5332   26.5880 C.ar    1  UNL1        0.1402
     24 N           6.8665   -6.5789   28.0166 N.ar    1  UNL1       -0.3377
     25 C           6.4974   -5.3105   28.7270 C.ar    1  UNL1        0.0691
     26 C           6.5835   -3.9963   28.0089 C.ar    1  UNL1       -0.0047
     27 C           6.2144   -2.7279   28.7195 C.3     1  UNL1        0.0326
     28 C           7.0386   -3.9506   26.5804 C.ar    1  UNL1       -0.0001
     29 C           7.4077   -5.2191   25.8700 C.ar    1  UNL1        0.0315
     30 H           6.8099   -7.4415   28.4878 H       1  UNL1        0.1674
@<TRIPOS>BOND
     1    17    18    1
     2    18    11    1
     3    11    12   ar
     4    12    13   ar
     5    13    14   ar
     6    14    10    1
     7    10     8    1
     8     8     1    1
     9     1     2   ar
    10     2     3   ar
    11     3     4   ar
    12     4    19    1
    13    19    20    1
    14    20    21   ar
    15    21    22   ar
    16    22    23   ar
    17    23    24   ar
    18    24    25   ar
    19    25    26   ar
    20    26    27    1
    21    26    28   ar
    22    28    29   ar
    23     4     5   ar
    24     5     6    1
    25     5     7   ar
    26    14    15   ar
    27    15    16   ar
    28    16    11   ar
    29     7     1   ar
    30    29    20   ar
    31    29    23    1
    32     8     9    1
    33    24    30    1
@<TRIPOS>MOLECULE
*****
 30 33 0 0 0
SMALL
GASTEIGER

@<TRIPOS>ATOM
      1 C           1.8801    0.8371   22.7807 C.ar    1  UNL1        0.1311
      2 C           2.9940   -0.1293   23.0550 C.ar    1  UNL1        0.0339
      3 C           3.4126   -1.1103   22.0003 C.ar    1  UNL1        0.0027
      4 C           2.7172   -1.1250   20.6713 C.ar    1  UNL1        0.0283
      5 C           1.6033   -0.1586   20.3970 C.ar    1  UNL1        0.2196
      6 F           0.9080   -0.1732   19.0680 F       1  UNL1       -0.1835
      7 N           1.1848    0.8224   21.4517 N.ar    1  UNL1       -0.2035
      8 N           1.4615    1.8181   23.8353 N.pl3   1  UNL1       -0.3144
      9 H           1.9295    2.6802   23.9192 H       1  UNL1        0.1485
     10 C           0.3299    1.4858   24.7622 C.3     1  UNL1        0.1169
     11 C           1.1807    0.3174   29.0237 C.ar    1  UNL1        0.2250
     12 C          -0.2217    0.6399   28.6001 C.ar    1  UNL1        0.0574
     13 C          -0.5052    1.0293   27.1796 C.ar    1  UNL1        0.0037
     14 C           0.6135    1.0963   26.1826 C.ar    1  UNL1        0.0168
     15 C           2.0159    0.7738   26.6062 C.ar    1  UNL1        0.0994
     16 N           2.2994    0.3843   28.0267 N.ar    1  UNL1       -0.2104
     17 C           2.8046   -0.6350   30.8142 C.3     1  UNL1        0.2542
     18 O           1.4643   -0.0721   30.4441 O.3     1  UNL1       -0.4561
     19 C           3.1358   -2.1061   19.6166 C.3     1  UNL1        0.0582
     20 C           4.3757   -1.8567   18.8100 C.ar    1  UNL1        0.0044
     21 C           5.3488   -2.8987   18.3440 C.ar    1  UNL1        0.0966
     22 N           6.4346   -2.2075   17.5738 N.ar    1  UNL1       -0.2273
     23 C           6.1325   -0.7382   17.5638 C.ar    1  UNL1        0.1402
     24 N           6.8518    0.4302   16.9577 N.ar    1  UNL1       -0.3377
     25 C           6.2985    1.8155   17.1157 C.ar    1  UNL1        0.0691
     26 C           5.0260    2.0323   17.8797 C.ar    1  UNL1       -0.0047
     27 C           4.4728    3.4176   18.0376 C.3     1  UNL1        0.0326
     28 C           4.3068    0.8638   18.4858 C.ar    1  UNL1       -0.0001
     29 C           4.8600   -0.5214   18.3278 C.ar    1  UNL1        0.0315
     30 H           7.6870    0.2879   16.4563 H       1  UNL1        0.1674
@<TRIPOS>BOND
     1    17    18    1
     2    18    11    1
     3    11    12   ar
     4    12    13   ar
     5    13    14   ar
     6    14    10    1
     7    10     8    1
     8     8     1    1
     9     1     2   ar
    10     2     3   ar
    11     3     4   ar
    12     4    19    1
    13    19    20    1
    14    20    21   ar
    15    21    22   ar
    16    22    23   ar
    17    23    24   ar
    18    24    25   ar
    19    25    26   ar
    20    26    27    1
    21    26    28   ar
    22    28    29   ar
    23     4     5   ar
    24     5     6    1
    25     5     7   ar
    26    14    15   ar
    27    15    16   ar
    28    16    11   ar
    29     7     1   ar
    30    29    20   ar
    31    29    23    1
    32     8     9    1
    33    24    30    1
@<TRIPOS>MOLECULE
*****
 30 33 0 0 0
SMALL
GASTEIGER

@<TRIPOS>ATOM
      1 C           4.0818   -1.9672   24.1914 C.ar    1  UNL1        0.1311
      2 C           3.3316   -0.8619   23.5090 C.ar    1  UNL1        0.0339
      3 C           3.1356   -0.8952   22.0222 C.ar    1  UNL1        0.0027
      4 C           3.6896   -2.0336   21.2179 C.ar    1  UNL1        0.0283
      5 C           4.4398   -3.1389   21.9003 C.ar    1  UNL1        0.2196
      6 F           4.9938   -4.2774   21.0960 F       1  UNL1       -0.1835
      7 N           4.6358   -3.1056   23.3871 N.ar    1  UNL1       -0.2035
      8 N           4.2779   -1.9340   25.6781 N.pl3   1  UNL1       -0.3144
      9 H           4.3336   -2.7754   26.1861 H       1  UNL1        0.1485
     10 C           4.3890   -0.6188   26.3909 C.3     1  UNL1        0.1169
     11 C           1.2024    0.6343   29.3106 C.ar    1  UNL1        0.2250
     12 C           2.2893   -0.3043   29.7438 C.ar    1  UNL1        0.0574
     13 C           3.3515   -0.7220   28.7705 C.ar    1  UNL1        0.0037
     14 C           3.3268   -0.2011   27.3641 C.ar    1  UNL1        0.0168
     15 C           2.2399    0.7375   26.9309 C.ar    1  UNL1        0.0994
     16 N           1.1777    1.1552   27.9042 N.ar    1  UNL1       -0.2104
     17 C           0.4165    2.1466   31.2716 C.3     1  UNL1        0.2542
     18 O           0.1402    1.0520   30.2838 O.3     1  UNL1       -0.4561
     19 C           3.4935   -2.0668   19.7311 C.3     1  UNL1        0.0582
     20 C           4.6437   -1.7673   18.8160 C.ar    1  UNL1        0.0044
     21 C           5.5935   -2.7727   18.2355 C.ar    1  UNL1        0.0966
     22 N           6.5828   -2.0365   17.3815 N.ar    1  UNL1       -0.2273
     23 C           6.2445   -0.5761   17.4343 C.ar    1  UNL1        0.1402
     24 N           6.8728    0.6236   16.7895 N.ar    1  UNL1       -0.3377
     25 C           6.3027    1.9898   17.0314 C.ar    1  UNL1        0.0691
     26 C           5.1042    2.1562   17.9180 C.ar    1  UNL1       -0.0047
     27 C           4.5341    3.5224   18.1598 C.3     1  UNL1        0.0326
     28 C           4.4759    0.9564   18.5627 C.ar    1  UNL1       -0.0001
     29 C           5.0460   -0.4097   18.3208 C.ar    1  UNL1        0.0315
     30 H           7.6594    0.5144   16.2077 H       1  UNL1        0.1674
@<TRIPOS>BOND
     1    17    18    1
     2    18    11    1
     3    11    12   ar
     4    12    13   ar
     5    13    14   ar
     6    14    10    1
     7    10     8    1
     8     8     1    1
     9     1     2   ar
    10     2     3   ar
    11     3     4   ar
    12     4    19    1
    13    19    20    1
    14    20    21   ar
    15    21    22   ar
    16    22    23   ar
    17    23    24   ar
    18    24    25   ar
    19    25    26   ar
    20    26    27    1
    21    26    28   ar
    22    28    29   ar
    23     4     5   ar
    24     5     6    1
    25     5     7   ar
    26    14    15   ar
    27    15    16   ar
    28    16    11   ar
    29     7     1   ar
    30    29    20   ar
    31    29    23    1
    32     8     9    1
    33    24    30    1
@<TRIPOS>MOLECULE
*****
 30 33 0 0 0
SMALL
GASTEIGER

@<TRIPOS>ATOM
      1 C           7.2456   -3.2390   24.2808 C.ar    1  UNL1        0.1311
      2 C           7.7005   -4.0478   23.1022 C.ar    1  UNL1        0.0339
      3 C           6.7726   -4.2756   21.9460 C.ar    1  UNL1        0.0027
      4 C           5.3898   -3.6948   21.9682 C.ar    1  UNL1        0.0283
      5 C           4.9349   -2.8860   23.1467 C.ar    1  UNL1        0.2196
      6 F           3.5521   -2.3052   23.1689 F       1  UNL1       -0.1835
      7 N           5.8628   -2.6581   24.3030 N.ar    1  UNL1       -0.2035
      8 N           8.1734   -3.0111   25.4371 N.pl3   1  UNL1       -0.3144
      9 H           8.5363   -2.1118   25.6072 H       1  UNL1        0.1485
     10 C           8.5484   -4.1532   26.3343 C.3     1  UNL1        0.1169
     11 C           7.1263   -4.2216   30.6031 C.ar    1  UNL1        0.2250
     12 C           8.1711   -3.2336   30.1764 C.ar    1  UNL1        0.0574
     13 C           8.6451   -3.2108   28.7535 C.ar    1  UNL1        0.0037
     14 C           8.0743   -4.1760   27.7572 C.ar    1  UNL1        0.0168
     15 C           7.0295   -5.1641   28.1839 C.ar    1  UNL1        0.0994
     16 N           6.5555   -5.1869   29.6069 N.ar    1  UNL1       -0.2104
     17 C           5.8324   -3.1083   32.5618 C.3     1  UNL1        0.2542
     18 O           6.6522   -4.2445   32.0260 O.3     1  UNL1       -0.4561
     19 C           4.4619   -3.9227   20.8118 C.3     1  UNL1        0.0582
     20 C           4.4804   -2.9870   19.6396 C.ar    1  UNL1        0.0044
     21 C           5.4701   -3.0049   18.5126 C.ar    1  UNL1        0.0966
     22 N           5.1138   -1.8980   17.5652 N.ar    1  UNL1       -0.2273
     23 C           3.9038   -1.1959   18.1065 C.ar    1  UNL1        0.1402
     24 N           3.1079   -0.0308   17.5976 N.ar    1  UNL1       -0.3377
     25 C           1.9206    0.4613   18.3709 C.ar    1  UNL1        0.0691
     26 C           1.5291   -0.2117   19.6530 C.ar    1  UNL1       -0.0047
     27 C           0.3417    0.2805   20.4262 C.3     1  UNL1        0.0326
     28 C           2.3250   -1.3768   20.1618 C.ar    1  UNL1       -0.0001
     29 C           3.5123   -1.8690   19.3886 C.ar    1  UNL1        0.0315
     30 H           3.3649    0.4109   16.7562 H       1  UNL1        0.1674
@<TRIPOS>BOND
     1    17    18    1
     2    18    11    1
     3    11    12   ar
     4    12    13   ar
     5    13    14   ar
     6    14    10    1
     7    10     8    1
     8     8     1    1
     9     1     2   ar
    10     2     3   ar
    11     3     4   ar
    12     4    19    1
    13    19    20    1
    14    20    21   ar
    15    21    22   ar
    16    22    23   ar
    17    23    24   ar
    18    24    25   ar
    19    25    26   ar
    20    26    27    1
    21    26    28   ar
    22    28    29   ar
    23     4     5   ar
    24     5     6    1
    25     5     7   ar
    26    14    15   ar
    27    15    16   ar
    28    16    11   ar
    29     7     1   ar
    30    29    20   ar
    31    29    23    1
    32     8     9    1
    33    24    30    1
@<TRIPOS>MOLECULE
*****
 30 33 0 0 0
SMALL
GASTEIGER

@<TRIPOS>ATOM
      1 C          -0.4185    2.4156   20.7076 C.ar    1  UNL1        0.1311
      2 C           0.3371    3.1979   19.6745 C.ar    1  UNL1        0.0339
      3 C           1.3052    2.5003   18.7656 C.ar    1  UNL1        0.0027
      4 C           1.5178    1.0207   18.8897 C.ar    1  UNL1        0.0283
      5 C           0.7622    0.2385   19.9228 C.ar    1  UNL1        0.2196
      6 F           0.9748   -1.2412   20.0469 F       1  UNL1       -0.1835
      7 N          -0.2059    0.9360   20.8317 N.ar    1  UNL1       -0.2035
      8 N          -1.3866    3.1131   21.6166 N.pl3   1  UNL1       -0.3144
      9 H          -1.6093    2.7216   22.4920 H       1  UNL1        0.1485
     10 C          -2.0155    4.4070   21.1918 C.3     1  UNL1        0.1169
     11 C          -5.9721    4.3889   19.0485 C.ar    1  UNL1        0.2250
     12 C          -5.8943    4.8440   20.4756 C.ar    1  UNL1        0.0574
     13 C          -4.5754    4.8500   21.1901 C.ar    1  UNL1        0.0037
     14 C          -3.3343    4.4009   20.4773 C.ar    1  UNL1        0.0168
     15 C          -3.4121    3.9458   19.0502 C.ar    1  UNL1        0.0994
     16 N          -4.7310    3.9398   18.3358 N.ar    1  UNL1       -0.2104
     17 C          -8.3043    5.4509   18.6209 C.3     1  UNL1        0.2542
     18 O          -7.2909    4.3828   18.3340 O.3     1  UNL1       -0.4561
     19 C           2.4860    0.3232   17.9807 C.3     1  UNL1        0.0582
     20 C           3.8602   -0.0231   18.4724 C.ar    1  UNL1        0.0044
     21 C           5.0187    0.9224   18.5899 C.ar    1  UNL1        0.0966
     22 N           6.1916    0.1542   19.1230 N.ar    1  UNL1       -0.2273
     23 C           5.7580   -1.2660   19.3349 C.ar    1  UNL1        0.1402
     24 N           6.4890   -2.4736   19.8421 N.ar    1  UNL1       -0.3377
     25 C           5.7791   -3.7908   19.9472 C.ar    1  UNL1        0.0691
     26 C           4.3381   -3.9003   19.5451 C.ar    1  UNL1       -0.0047
     27 C           3.6282   -5.2176   19.6502 C.3     1  UNL1        0.0326
     28 C           3.6071   -2.6927   19.0379 C.ar    1  UNL1       -0.0001
     29 C           4.3170   -1.3756   18.9328 C.ar    1  UNL1        0.0315
     30 H           7.4347   -2.4017   20.1060 H       1  UNL1        0.1674
@<TRIPOS>BOND
     1    17    18    1
     2    18    11    1
     3    11    12   ar
     4    12    13   ar
     5    13    14   ar
     6    14    10    1
     7    10     8    1
     8     8     1    1
     9     1     2   ar
    10     2     3   ar
    11     3     4   ar
    12     4    19    1
    13    19    20    1
    14    20    21   ar
    15    21    22   ar
    16    22    23   ar
    17    23    24   ar
    18    24    25   ar
    19    25    26   ar
    20    26    27    1
    21    26    28   ar
    22    28    29   ar
    23     4     5   ar
    24     5     6    1
    25     5     7   ar
    26    14    15   ar
    27    15    16   ar
    28    16    11   ar
    29     7     1   ar
    30    29    20   ar
    31    29    23    1
    32     8     9    1
    33    24    30    1
