@<TRIPOS>MOLECULE
*****
 16 17 0 0 0
SMALL
GASTEIGER

@<TRIPOS>ATOM
      1 C          -9.9895  -19.2476   20.9905 C.ar    1  UNL1        0.1386
      2 C          -9.1920  -19.4226   19.7322 C.ar    1  UNL1        0.0384
      3 C          -7.7018  -19.5784   19.8043 C.ar    1  UNL1        0.0223
      4 C          -7.0092  -19.5594   21.1347 C.ar    1  UNL1        0.0848
      5 C          -7.8068  -19.3845   22.3930 C.ar    1  UNL1        0.0223
      6 C          -9.2969  -19.2286   22.3209 C.ar    1  UNL1        0.0384
      7 N          -5.5191  -19.7152   21.2068 N.ar    1  UNL1       -0.2079
      8 C          -4.6592  -20.4390   20.2135 C.ar    1  UNL1        0.2016
      9 N          -3.2359  -20.3458   20.6777 N.ar    1  UNL1       -0.2004
     10 C          -3.2161  -19.5644   21.9579 C.ar    1  UNL1        0.2214
     11 N          -4.6272  -19.1747   22.2849 N.ar    1  UNL1       -0.1409
     12 O         -11.4797  -19.0918   20.9184 O.3     1  UNL1       -0.4755
     13 C         -12.0977  -17.7298   21.0327 C.3     1  UNL1        0.2054
     14 C         -12.4591  -17.1809   22.3810 C.3     1  UNL1        0.0473
     15 C         -14.0173  -18.1311   24.2301 C.3     1  UNL1        0.0001
     16 C         -12.6891  -18.1134   23.5333 C.3     1  UNL1        0.0038
@<TRIPOS>BOND
     1    15    16    1
     2    16    14    1
     3    14    13    1
     4    13    12    1
     5    12     1    1
     6     1     2   ar
     7     2     3   ar
     8     3     4   ar
     9     4     7    1
    10     7     8   ar
    11     8     9   ar
    12     9    10   ar
    13    10    11   ar
    14     4     5   ar
    15     5     6   ar
    16     6     1   ar
    17    11     7   ar
@<TRIPOS>MOLECULE
*****
 16 17 0 0 0
SMALL
GASTEIGER

@<TRIPOS>ATOM
      1 C         -10.2118  -18.3250   23.4839 C.ar    1  UNL1        0.1386
      2 C          -9.3726  -17.1331   23.1304 C.ar    1  UNL1        0.0384
      3 C          -8.0269  -17.3249   22.4960 C.ar    1  UNL1        0.0223
      4 C          -7.5205  -18.7086   22.2150 C.ar    1  UNL1        0.0848
      5 C          -8.3598  -19.9005   22.5685 C.ar    1  UNL1        0.0223
      6 C          -9.7054  -19.7087   23.2029 C.ar    1  UNL1        0.0384
      7 N          -6.1749  -18.9003   21.5806 N.ar    1  UNL1       -0.2079
      8 C          -4.8981  -19.2191   22.3004 C.ar    1  UNL1        0.2016
      9 N          -3.8039  -19.3228   21.2796 N.ar    1  UNL1       -0.2004
     10 C          -4.4045  -19.0680   19.9289 C.ar    1  UNL1        0.2214
     11 N          -5.8698  -18.8069   20.1149 N.ar    1  UNL1       -0.1409
     12 O         -11.5574  -18.1333   24.1184 O.3     1  UNL1       -0.4755
     13 C         -12.7366  -17.7492   23.2746 C.3     1  UNL1        0.2054
     14 C         -12.6511  -17.8415   21.7798 C.3     1  UNL1        0.0473
     15 C         -11.3308  -16.5998   19.9184 C.3     1  UNL1        0.0001
     16 C         -12.4052  -16.6062   20.9650 C.3     1  UNL1        0.0038
@<TRIPOS>BOND
     1    15    16    1
     2    16    14    1
     3    14    13    1
     4    13    12    1
     5    12     1    1
     6     1     2   ar
     7     2     3   ar
     8     3     4   ar
     9     4     7    1
    10     7     8   ar
    11     8     9   ar
    12     9    10   ar
    13    10    11   ar
    14     4     5   ar
    15     5     6   ar
    16     6     1   ar
    17    11     7   ar
@<TRIPOS>MOLECULE
*****
 16 17 0 0 0
SMALL
GASTEIGER

@<TRIPOS>ATOM
      1 C          -6.1745  -20.0072   21.8594 C.ar    1  UNL1        0.1386
      2 C          -5.6764  -20.5856   20.5681 C.ar    1  UNL1        0.0384
      3 C          -4.3665  -20.1288   19.9976 C.ar    1  UNL1        0.0223
      4 C          -3.5546  -19.0938   20.7184 C.ar    1  UNL1        0.0848
      5 C          -4.0527  -18.5155   22.0096 C.ar    1  UNL1        0.0223
      6 C          -5.3627  -18.9722   22.5801 C.ar    1  UNL1        0.0384
      7 N          -2.2447  -18.6371   20.1479 N.ar    1  UNL1       -0.2079
      8 C          -1.9977  -18.2244   18.7271 C.ar    1  UNL1        0.2016
      9 N          -0.5521  -17.8451   18.5991 N.ar    1  UNL1       -0.2004
     10 C           0.0944  -18.0234   19.9408 C.ar    1  UNL1        0.2214
     11 N          -0.9517  -18.5129   20.8980 N.ar    1  UNL1       -0.1409
     12 O          -7.4845  -20.4640   22.4298 O.3     1  UNL1       -0.4755
     13 C          -8.5306  -19.4569   22.8060 C.3     1  UNL1        0.2054
     14 C          -9.8707  -19.9161   23.2992 C.3     1  UNL1        0.0473
     15 C         -10.9129  -19.8483   20.9203 C.3     1  UNL1        0.0001
     16 C         -11.0745  -19.8069   22.4109 C.3     1  UNL1        0.0038
@<TRIPOS>BOND
     1    15    16    1
     2    16    14    1
     3    14    13    1
     4    13    12    1
     5    12     1    1
     6     1     2   ar
     7     2     3   ar
     8     3     4   ar
     9     4     7    1
    10     7     8   ar
    11     8     9   ar
    12     9    10   ar
    13    10    11   ar
    14     4     5   ar
    15     5     6   ar
    16     6     1   ar
    17    11     7   ar
@<TRIPOS>MOLECULE
*****
 16 17 0 0 0
SMALL
GASTEIGER

@<TRIPOS>ATOM
      1 C          -9.1146  -18.9040   20.8622 C.ar    1  UNL1        0.1386
      2 C          -8.2872  -19.6029   19.8245 C.ar    1  UNL1        0.0384
      3 C          -6.7982  -19.6884   19.9852 C.ar    1  UNL1        0.0223
      4 C          -6.1368  -19.0749   21.1836 C.ar    1  UNL1        0.0848
      5 C          -6.9643  -18.3760   22.2212 C.ar    1  UNL1        0.0223
      6 C          -8.4532  -18.2905   22.0605 C.ar    1  UNL1        0.0384
      7 N          -4.6479  -19.1603   21.3443 N.ar    1  UNL1       -0.2079
      8 C          -3.7586  -20.2230   20.7699 C.ar    1  UNL1        0.2016
      9 N          -2.3479  -19.9175   21.1783 N.ar    1  UNL1       -0.2004
     10 C          -2.3654  -18.6661   22.0050 C.ar    1  UNL1        0.2214
     11 N          -3.7868  -18.1981   22.1077 N.ar    1  UNL1       -0.1409
     12 O         -10.6036  -18.8186   20.7014 O.3     1  UNL1       -0.4755
     13 C         -11.2230  -17.5972   20.0896 C.3     1  UNL1        0.2054
     14 C         -12.1791  -16.7612   20.8877 C.3     1  UNL1        0.0473
     15 C         -12.9992  -17.7723   23.1360 C.3     1  UNL1        0.0001
     16 C         -12.1379  -16.7994   22.3867 C.3     1  UNL1        0.0038
@<TRIPOS>BOND
     1    15    16    1
     2    16    14    1
     3    14    13    1
     4    13    12    1
     5    12     1    1
     6     1     2   ar
     7     2     3   ar
     8     3     4   ar
     9     4     7    1
    10     7     8   ar
    11     8     9   ar
    12     9    10   ar
    13    10    11   ar
    14     4     5   ar
    15     5     6   ar
    16     6     1   ar
    17    11     7   ar
@<TRIPOS>MOLECULE
*****
 16 17 0 0 0
SMALL
GASTEIGER

@<TRIPOS>ATOM
      1 C          -4.2395  -19.8155   21.3115 C.ar    1  UNL1        0.1386
      2 C          -5.0265  -20.6007   20.3045 C.ar    1  UNL1        0.0384
      3 C          -6.5085  -20.3997   20.1888 C.ar    1  UNL1        0.0223
      4 C          -7.2035  -19.4135   21.0801 C.ar    1  UNL1        0.0848
      5 C          -6.4165  -18.6284   22.0871 C.ar    1  UNL1        0.0223
      6 C          -4.9345  -18.8294   22.2028 C.ar    1  UNL1        0.0384
      7 N          -8.6854  -19.2125   20.9644 N.ar    1  UNL1       -0.2079
      8 C          -9.6998  -19.4973   22.0321 C.ar    1  UNL1        0.2016
      9 N         -11.0545  -19.1522   21.4883 N.ar    1  UNL1       -0.2004
     10 C         -10.8774  -18.6542   20.0845 C.ar    1  UNL1        0.2214
     11 N          -9.4132  -18.6915   19.7608 N.ar    1  UNL1       -0.1409
     12 O          -2.7576  -20.0165   21.4272 O.3     1  UNL1       -0.4755
     13 C          -1.8317  -18.8400   21.3356 C.3     1  UNL1        0.2054
     14 C          -0.9838  -18.6462   20.1135 C.3     1  UNL1        0.0473
     15 C          -2.9732  -17.4909   18.9062 C.3     1  UNL1        0.0001
     16 C          -1.5312  -17.9033   18.9309 C.3     1  UNL1        0.0038
@<TRIPOS>BOND
     1    15    16    1
     2    16    14    1
     3    14    13    1
     4    13    12    1
     5    12     1    1
     6     1     2   ar
     7     2     3   ar
     8     3     4   ar
     9     4     7    1
    10     7     8   ar
    11     8     9   ar
    12     9    10   ar
    13    10    11   ar
    14     4     5   ar
    15     5     6   ar
    16     6     1   ar
    17    11     7   ar
@<TRIPOS>MOLECULE
*****
 16 17 0 0 0
SMALL
GASTEIGER

@<TRIPOS>ATOM
      1 C          -6.4810  -19.8609   20.7613 C.ar    1  UNL1        0.1386
      2 C          -6.7394  -19.0975   22.0263 C.ar    1  UNL1        0.0384
      3 C          -8.0663  -18.4325   22.2433 C.ar    1  UNL1        0.0223
      4 C          -9.1349  -18.5310   21.1952 C.ar    1  UNL1        0.0848
      5 C          -8.8765  -19.2944   19.9302 C.ar    1  UNL1        0.0223
      6 C          -7.5496  -19.9594   19.7133 C.ar    1  UNL1        0.0384
      7 N         -10.4618  -17.8660   21.4122 N.ar    1  UNL1       -0.2079
      8 C         -11.7782  -18.3228   20.8570 C.ar    1  UNL1        0.2016
      9 N         -12.8353  -17.3666   21.3242 N.ar    1  UNL1       -0.2004
     10 C         -12.1721  -16.3187   22.1681 C.ar    1  UNL1        0.2214
     11 N         -10.7052  -16.6273   22.2225 N.ar    1  UNL1       -0.1409
     12 O          -5.1541  -20.5259   20.5443 O.3     1  UNL1       -0.4755
     13 C          -3.9377  -19.6967   20.2568 C.3     1  UNL1        0.2054
     14 C          -2.8032  -19.6643   21.2375 C.3     1  UNL1        0.0473
     15 C          -3.4118  -17.9730   23.1135 C.3     1  UNL1        0.0001
     16 C          -2.5060  -18.4067   21.9993 C.3     1  UNL1        0.0038
@<TRIPOS>BOND
     1    15    16    1
     2    16    14    1
     3    14    13    1
     4    13    12    1
     5    12     1    1
     6     1     2   ar
     7     2     3   ar
     8     3     4   ar
     9     4     7    1
    10     7     8   ar
    11     8     9   ar
    12     9    10   ar
    13    10    11   ar
    14     4     5   ar
    15     5     6   ar
    16     6     1   ar
    17    11     7   ar
@<TRIPOS>MOLECULE
*****
 16 17 0 0 0
SMALL
GASTEIGER

@<TRIPOS>ATOM
      1 C          -7.3014  -18.3320   22.0733 C.ar    1  UNL1        0.1386
      2 C          -7.9569  -17.0271   22.4159 C.ar    1  UNL1        0.0384
      3 C          -9.3748  -17.0055   22.9048 C.ar    1  UNL1        0.0223
      4 C         -10.1372  -18.2889   23.0512 C.ar    1  UNL1        0.0848
      5 C          -9.4818  -19.5939   22.7086 C.ar    1  UNL1        0.0223
      6 C          -8.0639  -19.6154   22.2196 C.ar    1  UNL1        0.0384
      7 N         -11.5551  -18.2674   23.5401 N.ar    1  UNL1       -0.2079
      8 C         -12.7363  -17.7193   22.7956 C.ar    1  UNL1        0.2016
      9 N         -13.9520  -17.9034   23.6548 N.ar    1  UNL1       -0.2004
     10 C         -13.5222  -18.5652   24.9304 C.ar    1  UNL1        0.2214
     11 N         -12.0409  -18.7902   24.8595 N.ar    1  UNL1       -0.1409
     12 O          -5.8835  -18.3535   21.5843 O.3     1  UNL1       -0.4755
     13 C          -5.4872  -19.2803   20.4735 C.3     1  UNL1        0.2054
     14 C          -4.0824  -19.8004   20.3959 C.3     1  UNL1        0.0473
     15 C          -2.5582  -17.8705   19.5579 C.3     1  UNL1        0.0001
     16 C          -3.1321  -19.2445   19.3771 C.3     1  UNL1        0.0038
@<TRIPOS>BOND
     1    15    16    1
     2    16    14    1
     3    14    13    1
     4    13    12    1
     5    12     1    1
     6     1     2   ar
     7     2     3   ar
     8     3     4   ar
     9     4     7    1
    10     7     8   ar
    11     8     9   ar
    12     9    10   ar
    13    10    11   ar
    14     4     5   ar
    15     5     6   ar
    16     6     1   ar
    17    11     7   ar
@<TRIPOS>MOLECULE
*****
 16 17 0 0 0
SMALL
GASTEIGER

@<TRIPOS>ATOM
      1 C          -6.0751  -17.6199   22.8917 C.ar    1  UNL1        0.1386
      2 C          -6.9107  -16.4724   23.3764 C.ar    1  UNL1        0.0384
      3 C          -8.3493  -16.3658   22.9652 C.ar    1  UNL1        0.0223
      4 C          -8.9523  -17.4067   22.0691 C.ar    1  UNL1        0.0848
      5 C          -8.1167  -18.5542   21.5844 C.ar    1  UNL1        0.0223
      6 C          -6.6781  -18.6608   21.9956 C.ar    1  UNL1        0.0384
      7 N         -10.3909  -17.3001   21.6578 N.ar    1  UNL1       -0.2079
      8 C         -10.9643  -16.2889   20.7099 C.ar    1  UNL1        0.2016
      9 N         -12.4364  -16.5499   20.5885 N.ar    1  UNL1       -0.2004
     10 C         -12.7728  -17.7224   21.4614 C.ar    1  UNL1        0.2214
     11 N         -11.5086  -18.1860   22.1223 N.ar    1  UNL1       -0.1409
     12 O          -4.6366  -17.7265   23.3030 O.3     1  UNL1       -0.4755
     13 C          -3.5871  -18.0543   22.2826 C.3     1  UNL1        0.2054
     14 C          -3.1701  -19.4789   22.0667 C.3     1  UNL1        0.0473
     15 C          -3.8600  -19.3419   19.5656 C.3     1  UNL1        0.0001
     16 C          -3.1542  -20.0539   20.6813 C.3     1  UNL1        0.0038
@<TRIPOS>BOND
     1    15    16    1
     2    16    14    1
     3    14    13    1
     4    13    12    1
     5    12     1    1
     6     1     2   ar
     7     2     3   ar
     8     3     4   ar
     9     4     7    1
    10     7     8   ar
    11     8     9   ar
    12     9    10   ar
    13    10    11   ar
    14     4     5   ar
    15     5     6   ar
    16     6     1   ar
    17    11     7   ar
@<TRIPOS>MOLECULE
*****
 16 17 0 0 0
SMALL
GASTEIGER

@<TRIPOS>ATOM
      1 C          -6.4463  -16.2841   23.5575 C.ar    1  UNL1        0.1386
      2 C          -7.5168  -15.2461   23.7207 C.ar    1  UNL1        0.0384
      3 C          -8.8753  -15.4697   23.1253 C.ar    1  UNL1        0.0223
      4 C          -9.1633  -16.7312   22.3667 C.ar    1  UNL1        0.0848
      5 C          -8.0928  -17.7691   22.2034 C.ar    1  UNL1        0.0223
      6 C          -6.7343  -17.5456   22.7988 C.ar    1  UNL1        0.0384
      7 N         -10.5218  -16.9547   21.7713 N.ar    1  UNL1       -0.2079
      8 C         -11.0571  -16.3077   20.5283 C.ar    1  UNL1        0.2016
      9 N         -12.4497  -16.8176   20.3031 N.ar    1  UNL1       -0.2004
     10 C         -12.7751  -17.7798   21.4069 C.ar    1  UNL1        0.2214
     11 N         -11.5836  -17.8645   22.3142 N.ar    1  UNL1       -0.1409
     12 O          -5.0878  -16.0605   24.1529 O.3     1  UNL1       -0.4755
     13 C          -4.9193  -16.0205   25.6428 C.3     1  UNL1        0.2054
     14 C          -5.8544  -15.2008   26.4816 C.3     1  UNL1        0.0473
     15 C          -8.2915  -15.3297   27.3726 C.3     1  UNL1        0.0001
     16 C          -6.8959  -15.8773   27.3229 C.3     1  UNL1        0.0038
@<TRIPOS>BOND
     1    15    16    1
     2    16    14    1
     3    14    13    1
     4    13    12    1
     5    12     1    1
     6     1     2   ar
     7     2     3   ar
     8     3     4   ar
     9     4     7    1
    10     7     8   ar
    11     8     9   ar
    12     9    10   ar
    13    10    11   ar
    14     4     5   ar
    15     5     6   ar
    16     6     1   ar
    17    11     7   ar
