@<TRIPOS>MOLECULE
*****
 28 31 0 0 0
SMALL
GASTEIGER

@<TRIPOS>ATOM
      1 C          -7.7985  -14.7952   25.4023 C.3     1  UNL1        0.0491
      2 C          -7.4337  -15.8606   24.4114 C.3     1  UNL1        0.1855
      3 C          -5.9430  -15.9712   24.5359 C.3     1  UNL1        0.1335
      4 N          -4.6191  -16.5664   24.1576 N.am    1  UNL1       -0.2975
      5 C          -3.7654  -17.5098   23.3632 C.2     1  UNL1        0.2505
      6 O          -2.3744  -17.2338   23.8522 O.2     1  UNL1       -0.2700
      7 C          -3.5774  -18.5854   22.3346 C.ar    1  UNL1        0.1099
      8 C          -2.1655  -19.0389   22.1095 C.ar    1  UNL1        0.1281
      9 N          -2.1840  -20.1068   21.0563 N.ar    1  UNL1       -0.1619
     10 N          -3.6074  -20.3133   20.6304 N.ar    1  UNL1       -0.2104
     11 C          -4.2305  -21.2360   19.6254 C.ar    1  UNL1        0.1049
     12 C          -5.7149  -21.2185   19.4104 C.ar    1  UNL1        0.0548
     13 C          -6.5761  -20.2782   20.2005 C.ar    1  UNL1        0.1319
     14 N          -5.9530  -19.3555   21.2055 N.ar    1  UNL1       -0.2118
     15 C          -4.4686  -19.3730   21.4205 C.ar    1  UNL1        0.1710
     16 N          -8.1034  -19.9587   20.2759 N.pl3   1  UNL1       -0.3159
     17 C          -9.2247  -19.1664   20.8797 C.3     1  UNL1        0.0960
     18 C         -10.4469  -19.6832   20.1802 C.3     1  UNL1        0.0262
     19 C          -9.7611  -18.1266   21.8185 C.ar    1  UNL1        0.0317
     20 C         -11.1293  -18.4443   21.2920 C.ar    1  UNL1        0.0300
     21 C         -12.3261  -17.7131   21.8240 C.ar    1  UNL1        0.1401
     22 F         -13.6943  -18.0307   21.2975 F       1  UNL1       -0.2042
     23 C         -12.1547  -16.6642   22.8825 C.ar    1  UNL1        0.0327
     24 C         -10.7865  -16.3465   23.4090 C.ar    1  UNL1        0.0389
     25 C          -9.5898  -17.0777   22.8770 C.ar    1  UNL1        0.1361
     26 O          -8.7498  -16.2599   23.8128 O.3     1  UNL1       -0.4777
     27 H          -3.9745  -16.0888   24.7281 H       1  UNL1        0.1499
     28 H          -8.5290  -20.5574   19.6204 H       1  UNL1        0.1484
@<TRIPOS>BOND
     1     2     1    1
     2     2     3    1
     3     3     4    1
     4     4     5   am
     5     5     6    2
     6     5     7    1
     7     7     8   ar
     8     8     9   ar
     9     9    10   ar
    10    10    11   ar
    11    11    12   ar
    12    12    13   ar
    13    13    14   ar
    14    14    15   ar
    15    13    16    1
    16    16    17    1
    17    17    18    1
    18    17    19    1
    19    19    20   ar
    20    20    21   ar
    21    21    22    1
    22    21    23   ar
    23    23    24   ar
    24    24    25   ar
    25    25    26    1
    26    26     2    1
    27    15     7   ar
    28    25    19   ar
    29    15    10   ar
    30     4    27    1
    31    16    28    1
@<TRIPOS>MOLECULE
*****
 28 31 0 0 0
SMALL
GASTEIGER

@<TRIPOS>ATOM
      1 C         -11.0834   -7.6640   17.1033 C.3     1  UNL1        0.0491
      2 C         -12.0268   -6.5772   17.5262 C.3     1  UNL1        0.1855
      3 C         -11.2321   -5.3189   17.3386 C.3     1  UNL1        0.1335
      4 N         -11.0709   -3.8288   17.3965 N.am    1  UNL1       -0.2975
      5 C         -11.5802   -2.4480   17.6864 C.2     1  UNL1        0.2505
      6 O         -10.4230   -1.5584   17.3403 O.2     1  UNL1       -0.2700
      7 C         -12.6434   -1.4929   18.1421 C.ar    1  UNL1        0.1099
      8 C         -12.2727   -0.0396   18.1219 C.ar    1  UNL1        0.1281
      9 N         -13.4543    0.7468   18.6070 N.ar    1  UNL1       -0.1619
     10 N         -14.5553   -0.2204   18.9270 N.ar    1  UNL1       -0.2104
     11 C         -15.9493   -0.0195   19.4429 C.ar    1  UNL1        0.1049
     12 C         -16.8422   -1.2030   19.6714 C.ar    1  UNL1        0.0548
     13 C         -16.3410   -2.5872   19.3841 C.ar    1  UNL1        0.1319
     14 N         -14.9469   -2.7881   18.8682 N.ar    1  UNL1       -0.2118
     15 C         -14.0540   -1.6047   18.6397 C.ar    1  UNL1        0.1710
     16 N         -16.9292   -4.0310   19.4831 N.pl3   1  UNL1       -0.3159
     17 C         -16.7500   -5.5094   19.3040 C.3     1  UNL1        0.0960
     18 C         -18.0673   -6.0853   19.7320 C.3     1  UNL1        0.0262
     19 C         -15.9401   -6.7122   18.9200 C.ar    1  UNL1        0.0317
     20 C         -17.1289   -7.5526   19.2814 C.ar    1  UNL1        0.0300
     21 C         -17.0630   -9.0447   19.1419 C.ar    1  UNL1        0.1401
     22 F         -18.2518   -9.8850   19.5032 F       1  UNL1       -0.2042
     23 C         -15.8082   -9.6963   18.6410 C.ar    1  UNL1        0.0327
     24 C         -14.6194   -8.8560   18.2796 C.ar    1  UNL1        0.0389
     25 C         -14.6854   -7.3639   18.4192 C.ar    1  UNL1        0.1361
     26 O         -13.2731   -7.3152   17.9161 O.3     1  UNL1       -0.4777
     27 H         -10.1514   -3.6787   17.0782 H       1  UNL1        0.1499
     28 H         -17.8468   -3.9175   19.8212 H       1  UNL1        0.1484
@<TRIPOS>BOND
     1     2     1    1
     2     2     3    1
     3     3     4    1
     4     4     5   am
     5     5     6    2
     6     5     7    1
     7     7     8   ar
     8     8     9   ar
     9     9    10   ar
    10    10    11   ar
    11    11    12   ar
    12    12    13   ar
    13    13    14   ar
    14    14    15   ar
    15    13    16    1
    16    16    17    1
    17    17    18    1
    18    17    19    1
    19    19    20   ar
    20    20    21   ar
    21    21    22    1
    22    21    23   ar
    23    23    24   ar
    24    24    25   ar
    25    25    26    1
    26    26     2    1
    27    15     7   ar
    28    25    19   ar
    29    15    10   ar
    30     4    27    1
    31    16    28    1
@<TRIPOS>MOLECULE
*****
 28 31 0 0 0
SMALL
GASTEIGER

@<TRIPOS>ATOM
      1 C           4.2945   -1.9553   33.9567 C.3     1  UNL1        0.0491
      2 C           4.6897   -2.3035   32.5522 C.3     1  UNL1        0.1855
      3 C           5.6254   -3.4638   32.7198 C.3     1  UNL1        0.1335
      4 N           6.5360   -4.5249   32.1769 N.am    1  UNL1       -0.2975
      5 C           7.2128   -5.2439   31.0477 C.2     1  UNL1        0.2505
      6 O           8.0252   -6.3030   31.7320 O.2     1  UNL1       -0.2700
      7 C           7.5007   -5.4559   29.5909 C.ar    1  UNL1        0.1099
      8 C           8.4429   -6.5764   29.2642 C.ar    1  UNL1        0.1281
      9 N           8.6024   -6.6282   27.7736 N.ar    1  UNL1       -0.1619
     10 N           7.7588   -5.5397   27.1790 N.ar    1  UNL1       -0.2104
     11 C           7.5228   -5.1146   25.7601 C.ar    1  UNL1        0.1049
     12 C           6.6058   -3.9650   25.4642 C.ar    1  UNL1        0.0548
     13 C           5.9249   -3.2405   26.5874 C.ar    1  UNL1        0.1319
     14 N           6.1610   -3.6655   28.0063 N.ar    1  UNL1       -0.2118
     15 C           7.0780   -4.8151   28.3022 C.ar    1  UNL1        0.1710
     16 N           4.9332   -2.0390   26.7027 N.pl3   1  UNL1       -0.3159
     17 C           4.1158   -1.1224   27.5638 C.3     1  UNL1        0.0960
     18 C           3.4459   -0.2087   26.5807 C.3     1  UNL1        0.0262
     19 C           3.6190   -0.6430   28.8955 C.ar    1  UNL1        0.0317
     20 C           2.8273    0.3959   28.1581 C.ar    1  UNL1        0.0300
     21 C           1.9732    1.3672   28.9179 C.ar    1  UNL1        0.1401
     22 F           1.1814    2.4061   28.1805 F       1  UNL1       -0.2042
     23 C           1.9109    1.2995   30.4150 C.ar    1  UNL1        0.0327
     24 C           2.7026    0.2606   31.1524 C.ar    1  UNL1        0.0389
     25 C           3.5567   -0.7107   30.3926 C.ar    1  UNL1        0.1361
     26 O           3.9431   -1.3099   31.7124 O.3     1  UNL1       -0.4777
     27 H           6.8566   -4.9942   32.9808 H       1  UNL1        0.1499
     28 H           4.7669   -1.7468   25.7774 H       1  UNL1        0.1484
@<TRIPOS>BOND
     1     2     1    1
     2     2     3    1
     3     3     4    1
     4     4     5   am
     5     5     6    2
     6     5     7    1
     7     7     8   ar
     8     8     9   ar
     9     9    10   ar
    10    10    11   ar
    11    11    12   ar
    12    12    13   ar
    13    13    14   ar
    14    14    15   ar
    15    13    16    1
    16    16    17    1
    17    17    18    1
    18    17    19    1
    19    19    20   ar
    20    20    21   ar
    21    21    22    1
    22    21    23   ar
    23    23    24   ar
    24    24    25   ar
    25    25    26    1
    26    26     2    1
    27    15     7   ar
    28    25    19   ar
    29    15    10   ar
    30     4    27    1
    31    16    28    1
@<TRIPOS>MOLECULE
*****
 28 31 0 0 0
SMALL
GASTEIGER

@<TRIPOS>ATOM
      1 C           2.2473    0.2110   24.1017 C.3     1  UNL1        0.0491
      2 C           3.3452   -0.7271   23.6958 C.3     1  UNL1        0.1855
      3 C           3.9107   -1.2038   25.0007 C.3     1  UNL1        0.1335
      4 N           4.8722   -2.0202   25.8124 N.am    1  UNL1       -0.2975
      5 C           6.0094   -2.9894   25.9450 C.2     1  UNL1        0.2505
      6 O           6.1867   -3.1343   27.4275 O.2     1  UNL1       -0.2700
      7 C           7.0617   -3.8893   25.3680 C.ar    1  UNL1        0.1099
      8 C           7.9196   -4.6167   26.3604 C.ar    1  UNL1        0.1281
      9 N           8.9006   -5.4566   25.5973 N.ar    1  UNL1       -0.1619
     10 N           8.6489   -5.2483   24.1333 N.ar    1  UNL1       -0.2104
     11 C           9.3079   -5.8155   22.9110 C.ar    1  UNL1        0.1049
     12 C           8.8303   -5.4140   21.5470 C.ar    1  UNL1        0.0548
     13 C           7.6937   -4.4454   21.4052 C.ar    1  UNL1        0.1319
     14 N           7.0348   -3.8782   22.6275 N.ar    1  UNL1       -0.2118
     15 C           7.5124   -4.2797   23.9916 C.ar    1  UNL1        0.1710
     16 N           6.9237   -3.7939   20.2124 N.pl3   1  UNL1       -0.3159
     17 C           5.8431   -2.8744   19.7261 C.3     1  UNL1        0.0960
     18 C           5.9407   -2.9641   18.2319 C.3     1  UNL1        0.0262
     19 C           4.7156   -1.9118   19.9550 C.ar    1  UNL1        0.0317
     20 C           4.5838   -1.8059   18.4646 C.ar    1  UNL1        0.0300
     21 C           3.5361   -0.9150   17.8657 C.ar    1  UNL1        0.1401
     22 F           3.4043   -0.8090   16.3752 F       1  UNL1       -0.2042
     23 C           2.6202   -0.1300   18.7573 C.ar    1  UNL1        0.0327
     24 C           2.7519   -0.2360   20.2477 C.ar    1  UNL1        0.0389
     25 C           3.7996   -1.1269   20.8465 C.ar    1  UNL1        0.1361
     26 O           3.3050   -0.6993   22.1966 O.3     1  UNL1       -0.4777
     27 H           4.6313   -1.8108   26.7437 H       1  UNL1        0.1499
     28 H           7.3446   -4.1563   19.3995 H       1  UNL1        0.1484
@<TRIPOS>BOND
     1     2     1    1
     2     2     3    1
     3     3     4    1
     4     4     5   am
     5     5     6    2
     6     5     7    1
     7     7     8   ar
     8     8     9   ar
     9     9    10   ar
    10    10    11   ar
    11    11    12   ar
    12    12    13   ar
    13    13    14   ar
    14    14    15   ar
    15    13    16    1
    16    16    17    1
    17    17    18    1
    18    17    19    1
    19    19    20   ar
    20    20    21   ar
    21    21    22    1
    22    21    23   ar
    23    23    24   ar
    24    24    25   ar
    25    25    26    1
    26    26     2    1
    27    15     7   ar
    28    25    19   ar
    29    15    10   ar
    30     4    27    1
    31    16    28    1
@<TRIPOS>MOLECULE
*****
 28 31 0 0 0
SMALL
GASTEIGER

@<TRIPOS>ATOM
      1 C         -11.3660   -5.5537   17.3085 C.3     1  UNL1        0.0491
      2 C         -12.6634   -5.0038   17.8228 C.3     1  UNL1        0.1855
      3 C         -12.4310   -3.5227   17.8721 C.3     1  UNL1        0.1335
      4 N         -12.8728   -2.1178   18.1563 N.am    1  UNL1       -0.2975
      5 C         -13.8875   -1.1106   18.6103 C.2     1  UNL1        0.2505
      6 O         -13.1762    0.2028   18.4729 O.2     1  UNL1       -0.2700
      7 C         -15.2429   -0.7322   19.1299 C.ar    1  UNL1        0.1099
      8 C         -15.4775    0.7335   19.3454 C.ar    1  UNL1        0.1281
      9 N         -16.8749    0.9082   19.8619 N.ar    1  UNL1       -0.1619
     10 N         -17.5039   -0.4496   19.9657 N.ar    1  UNL1       -0.2104
     11 C         -18.8647   -0.8938   20.4137 C.ar    1  UNL1        0.1049
     12 C         -19.2169   -2.3519   20.4093 C.ar    1  UNL1        0.0548
     13 C         -18.2082   -3.3657   19.9569 C.ar    1  UNL1        0.1319
     14 N         -16.8473   -2.9215   19.5089 N.ar    1  UNL1       -0.2118
     15 C         -16.4952   -1.4635   19.5133 C.ar    1  UNL1        0.1710
     16 N         -18.1772   -4.9203   19.8066 N.pl3   1  UNL1       -0.3159
     17 C         -17.4272   -6.1624   19.4265 C.3     1  UNL1        0.0960
     18 C         -18.4100   -7.2670   19.6798 C.3     1  UNL1        0.0262
     19 C         -16.2067   -6.8758   18.9251 C.ar    1  UNL1        0.0317
     20 C         -16.9666   -8.1595   19.0825 C.ar    1  UNL1        0.0300
     21 C         -16.3153   -9.4645   18.7322 C.ar    1  UNL1        0.1401
     22 F         -17.0753  -10.7481   18.8896 F       1  UNL1       -0.2042
     23 C         -14.9041   -9.4859   18.2244 C.ar    1  UNL1        0.0327
     24 C         -14.1441   -8.2022   18.0670 C.ar    1  UNL1        0.0389
     25 C         -14.7955   -6.8973   18.4174 C.ar    1  UNL1        0.1361
     26 O         -13.5166   -6.2217   18.0195 O.3     1  UNL1       -0.4777
     27 H         -12.0871   -1.5721   17.9236 H       1  UNL1        0.1499
     28 H         -19.0656   -5.2294   20.0973 H       1  UNL1        0.1484
@<TRIPOS>BOND
     1     2     1    1
     2     2     3    1
     3     3     4    1
     4     4     5   am
     5     5     6    2
     6     5     7    1
     7     7     8   ar
     8     8     9   ar
     9     9    10   ar
    10    10    11   ar
    11    11    12   ar
    12    12    13   ar
    13    13    14   ar
    14    14    15   ar
    15    13    16    1
    16    16    17    1
    17    17    18    1
    18    17    19    1
    19    19    20   ar
    20    20    21   ar
    21    21    22    1
    22    21    23   ar
    23    23    24   ar
    24    24    25   ar
    25    25    26    1
    26    26     2    1
    27    15     7   ar
    28    25    19   ar
    29    15    10   ar
    30     4    27    1
    31    16    28    1
@<TRIPOS>MOLECULE
*****
 28 31 0 0 0
SMALL
GASTEIGER

@<TRIPOS>ATOM
      1 C           0.2235    1.3918   20.5072 C.3     1  UNL1        0.0491
      2 C           0.9521    0.9290   21.7340 C.3     1  UNL1        0.1855
      3 C           0.4190    1.8124   22.8227 C.3     1  UNL1        0.1335
      4 N           0.3566    2.2719   24.2492 N.am    1  UNL1       -0.2975
      5 C           0.7795    2.2024   25.6867 C.2     1  UNL1        0.2505
      6 O          -0.0318    3.2746   26.3519 O.2     1  UNL1       -0.2700
      7 C           1.5907    1.6197   26.8059 C.ar    1  UNL1        0.1099
      8 C           1.3742    2.2284   28.1596 C.ar    1  UNL1        0.1281
      9 N           2.2656    1.5183   29.1349 N.ar    1  UNL1       -0.1619
     10 N           3.0329    0.4708   28.3840 N.ar    1  UNL1       -0.2104
     11 C           4.0576   -0.5320   28.8250 C.ar    1  UNL1        0.1049
     12 C           4.6651   -1.4721   27.8266 C.ar    1  UNL1        0.0548
     13 C           4.2480   -1.4095   26.3871 C.ar    1  UNL1        0.1319
     14 N           3.2234   -0.4067   25.9461 N.ar    1  UNL1       -0.2118
     15 C           2.6159    0.5334   26.9445 C.ar    1  UNL1        0.1710
     16 N           4.6236   -2.1796   25.0809 N.pl3   1  UNL1       -0.3159
     17 C           4.4380   -2.3804   23.6061 C.3     1  UNL1        0.0960
     18 C           5.3778   -3.5018   23.2753 C.3     1  UNL1        0.0262
     19 C           3.8024   -2.0445   22.2896 C.ar    1  UNL1        0.0317
     20 C           4.6386   -3.1293   21.6780 C.ar    1  UNL1        0.0300
     21 C           4.5351   -3.4185   20.2097 C.ar    1  UNL1        0.1401
     22 F           5.3713   -4.5032   19.5981 F       1  UNL1       -0.2042
     23 C           3.5954   -2.6228   19.3531 C.ar    1  UNL1        0.0327
     24 C           2.7592   -1.5380   19.9647 C.ar    1  UNL1        0.0389
     25 C           2.8628   -1.2489   21.4329 C.ar    1  UNL1        0.1361
     26 O           1.8341   -0.1757   21.2324 O.3     1  UNL1       -0.4777
     27 H          -0.3087    2.9975   24.2341 H       1  UNL1        0.1499
     28 H           5.2974   -2.8439   25.3530 H       1  UNL1        0.1484
@<TRIPOS>BOND
     1     2     1    1
     2     2     3    1
     3     3     4    1
     4     4     5   am
     5     5     6    2
     6     5     7    1
     7     7     8   ar
     8     8     9   ar
     9     9    10   ar
    10    10    11   ar
    11    11    12   ar
    12    12    13   ar
    13    13    14   ar
    14    14    15   ar
    15    13    16    1
    16    16    17    1
    17    17    18    1
    18    17    19    1
    19    19    20   ar
    20    20    21   ar
    21    21    22    1
    22    21    23   ar
    23    23    24   ar
    24    24    25   ar
    25    25    26    1
    26    26     2    1
    27    15     7   ar
    28    25    19   ar
    29    15    10   ar
    30     4    27    1
    31    16    28    1
@<TRIPOS>MOLECULE
*****
 28 31 0 0 0
SMALL
GASTEIGER

@<TRIPOS>ATOM
      1 C          -7.7394    4.5750   23.8243 C.3     1  UNL1        0.0491
      2 C          -6.5194    4.3832   22.9729 C.3     1  UNL1        0.1855
      3 C          -7.0302    4.5456   21.5720 C.3     1  UNL1        0.1335
      4 N          -6.8401    4.5791   20.0845 N.am    1  UNL1       -0.2975
      5 C          -5.9926    4.4759   18.8511 C.2     1  UNL1        0.2505
      6 O          -6.9604    4.7120   17.7296 O.2     1  UNL1       -0.2700
      7 C          -4.6818    4.2597   18.1546 C.ar    1  UNL1        0.1099
      8 C          -4.7140    4.3358   16.6568 C.ar    1  UNL1        0.1281
      9 N          -3.3226    4.0954   16.1506 N.ar    1  UNL1       -0.1619
     10 N          -2.4305    3.8708   17.3354 N.ar    1  UNL1       -0.2104
     11 C          -0.9619    3.5869   17.4465 C.ar    1  UNL1        0.1049
     12 C          -0.3333    3.4045   18.7962 C.ar    1  UNL1        0.0548
     13 C          -1.1734    3.5060   20.0347 C.ar    1  UNL1        0.1319
     14 N          -2.6420    3.7899   19.9236 N.ar    1  UNL1       -0.2118
     15 C          -3.2706    3.9723   18.5740 C.ar    1  UNL1        0.1710
     16 N          -0.9172    3.3856   21.5710 N.pl3   1  UNL1       -0.3159
     17 C          -1.4515    3.4215   22.9721 C.3     1  UNL1        0.0960
     18 C          -0.2458    3.1529   23.8231 C.3     1  UNL1        0.0262
     19 C          -2.5630    3.5860   23.9659 C.ar    1  UNL1        0.0317
     20 C          -1.5512    3.3435   25.0464 C.ar    1  UNL1        0.0300
     21 C          -1.9732    3.3563   26.4857 C.ar    1  UNL1        0.1401
     22 F          -0.9615    3.1138   27.5662 F       1  UNL1       -0.2042
     23 C          -3.4071    3.6116   26.8446 C.ar    1  UNL1        0.0327
     24 C          -4.4189    3.8542   25.7641 C.ar    1  UNL1        0.0389
     25 C          -3.9968    3.8413   24.3247 C.ar    1  UNL1        0.1361
     26 O          -5.4247    4.1291   23.9664 O.3     1  UNL1       -0.4777
     27 H          -7.7416    4.7665   19.7359 H       1  UNL1        0.1499
     28 H           0.0451    3.1987   21.6623 H       1  UNL1        0.1484
@<TRIPOS>BOND
     1     2     1    1
     2     2     3    1
     3     3     4    1
     4     4     5   am
     5     5     6    2
     6     5     7    1
     7     7     8   ar
     8     8     9   ar
     9     9    10   ar
    10    10    11   ar
    11    11    12   ar
    12    12    13   ar
    13    13    14   ar
    14    14    15   ar
    15    13    16    1
    16    16    17    1
    17    17    18    1
    18    17    19    1
    19    19    20   ar
    20    20    21   ar
    21    21    22    1
    22    21    23   ar
    23    23    24   ar
    24    24    25   ar
    25    25    26    1
    26    26     2    1
    27    15     7   ar
    28    25    19   ar
    29    15    10   ar
    30     4    27    1
    31    16    28    1
@<TRIPOS>MOLECULE
*****
 28 31 0 0 0
SMALL
GASTEIGER

@<TRIPOS>ATOM
      1 C           2.0416    1.0855   26.5079 C.3     1  UNL1        0.0491
      2 C           2.4638    0.4015   25.2415 C.3     1  UNL1        0.1855
      3 C           3.5331   -0.5513   25.6874 C.3     1  UNL1        0.1335
      4 N           4.5595   -1.6132   25.4250 N.am    1  UNL1       -0.2975
      5 C           5.3080   -2.5409   24.5145 C.2     1  UNL1        0.2505
      6 O           6.2470   -3.2653   25.4329 O.2     1  UNL1       -0.2700
      7 C           5.6069   -3.1220   23.1642 C.ar    1  UNL1        0.1099
      8 C           6.6736   -4.1758   23.1246 C.ar    1  UNL1        0.1281
      9 N           6.8256   -4.6282   21.7026 N.ar    1  UNL1       -0.1619
     10 N           5.8529   -3.8540   20.8633 N.ar    1  UNL1       -0.2104
     11 C           5.5557   -3.8764   19.3933 C.ar    1  UNL1        0.1049
     12 C           4.5053   -2.9679   18.8265 C.ar    1  UNL1        0.0548
     13 C           3.7521   -2.0370   19.7299 C.ar    1  UNL1        0.1319
     14 N           4.0493   -2.0146   21.2000 N.ar    1  UNL1       -0.2118
     15 C           5.0997   -2.9231   21.7667 C.ar    1  UNL1        0.1710
     16 N           2.6247   -0.9713   19.5463 N.pl3   1  UNL1       -0.3159
     17 C           1.7108    0.0532   20.1503 C.3     1  UNL1        0.0960
     18 C           0.9280    0.5706   18.9799 C.3     1  UNL1        0.0262
     19 C           1.1714    0.8302   21.3145 C.ar    1  UNL1        0.0317
     20 C           0.2548    1.5226   20.3500 C.ar    1  UNL1        0.0300
     21 C          -0.7029    2.5665   20.8430 C.ar    1  UNL1        0.1401
     22 F          -1.6195    3.2589   19.8784 F       1  UNL1       -0.2042
     23 C          -0.7441    2.9179   22.3007 C.ar    1  UNL1        0.0327
     24 C           0.1725    2.2254   23.2653 C.ar    1  UNL1        0.0389
     25 C           1.1302    1.1816   22.7721 C.ar    1  UNL1        0.1361
     26 O           1.5966    1.0269   24.1894 O.3     1  UNL1       -0.4777
     27 H           4.9407   -1.7971   26.3139 H       1  UNL1        0.1499
     28 H           2.4169   -0.9730   18.5840 H       1  UNL1        0.1484
@<TRIPOS>BOND
     1     2     1    1
     2     2     3    1
     3     3     4    1
     4     4     5   am
     5     5     6    2
     6     5     7    1
     7     7     8   ar
     8     8     9   ar
     9     9    10   ar
    10    10    11   ar
    11    11    12   ar
    12    12    13   ar
    13    13    14   ar
    14    14    15   ar
    15    13    16    1
    16    16    17    1
    17    17    18    1
    18    17    19    1
    19    19    20   ar
    20    20    21   ar
    21    21    22    1
    22    21    23   ar
    23    23    24   ar
    24    24    25   ar
    25    25    26    1
    26    26     2    1
    27    15     7   ar
    28    25    19   ar
    29    15    10   ar
    30     4    27    1
    31    16    28    1
@<TRIPOS>MOLECULE
*****
 28 31 0 0 0
SMALL
GASTEIGER

@<TRIPOS>ATOM
      1 C           4.9382   -2.4940   32.9277 C.3     1  UNL1        0.0491
      2 C           4.2666   -1.1915   33.2476 C.3     1  UNL1        0.1855
      3 C           4.6118   -0.9539   34.6879 C.3     1  UNL1        0.1335
      4 N           4.5565   -0.1473   35.9513 N.am    1  UNL1       -0.2975
      5 C           4.1133    1.0436   36.7485 C.2     1  UNL1        0.2505
      6 O           4.7115    0.8109   38.1043 O.2     1  UNL1       -0.2700
      7 C           3.3837    2.3458   36.8968 C.ar    1  UNL1        0.1099
      8 C           3.4567    2.9888   38.2500 C.ar    1  UNL1        0.1281
      9 N           2.6738    4.2672   38.1986 N.ar    1  UNL1       -0.1619
     10 N           2.1169    4.4144   36.8136 N.ar    1  UNL1       -0.2104
     11 C           1.2670    5.4762   36.1811 C.ar    1  UNL1        0.1049
     12 C           0.8558    5.3506   34.7441 C.ar    1  UNL1        0.0548
     13 C           1.2946    4.1631   33.9395 C.ar    1  UNL1        0.1319
     14 N           2.1445    3.1012   34.5720 N.ar    1  UNL1       -0.2118
     15 C           2.5556    3.2268   36.0090 C.ar    1  UNL1        0.1710
     16 N           1.0911    3.6724   32.4704 N.pl3   1  UNL1       -0.3159
     17 C           1.3478    2.6439   31.4093 C.3     1  UNL1        0.0960
     18 C           0.6224    3.1770   30.2095 C.3     1  UNL1        0.0262
     19 C           1.9518    1.3600   30.9225 C.ar    1  UNL1        0.0317
     20 C           1.3297    1.6442   29.5875 C.ar    1  UNL1        0.0300
     21 C           1.5204    0.6836   28.4513 C.ar    1  UNL1        0.1401
     22 F           0.8983    0.9678   27.1163 F       1  UNL1       -0.2042
     23 C           2.3331   -0.5614   28.6503 C.ar    1  UNL1        0.0327
     24 C           2.9552   -0.8456   29.9853 C.ar    1  UNL1        0.0389
     25 C           2.7645    0.1151   31.1213 C.ar    1  UNL1        0.1361
     26 O           3.5999   -0.8058   31.9605 O.3     1  UNL1       -0.4777
     27 H           5.0883   -0.6741   36.5906 H       1  UNL1        0.1499
     28 H           0.5336    4.3599   32.0395 H       1  UNL1        0.1484
@<TRIPOS>BOND
     1     2     1    1
     2     2     3    1
     3     3     4    1
     4     4     5   am
     5     5     6    2
     6     5     7    1
     7     7     8   ar
     8     8     9   ar
     9     9    10   ar
    10    10    11   ar
    11    11    12   ar
    12    12    13   ar
    13    13    14   ar
    14    14    15   ar
    15    13    16    1
    16    16    17    1
    17    17    18    1
    18    17    19    1
    19    19    20   ar
    20    20    21   ar
    21    21    22    1
    22    21    23   ar
    23    23    24   ar
    24    24    25   ar
    25    25    26    1
    26    26     2    1
    27    15     7   ar
    28    25    19   ar
    29    15    10   ar
    30     4    27    1
    31    16    28    1
