@<TRIPOS>MOLECULE
*****
 33 36 0 0 0
SMALL
GASTEIGER

@<TRIPOS>ATOM
      1 C         -11.6769   -4.8806   18.4575 C.ar    1  UNL1        0.0951
      2 C         -10.3305   -5.4467   18.7990 C.ar    1  UNL1        0.1454
      3 F          -9.3245   -4.6033   19.5247 F       1  UNL1       -0.2040
      4 C          -9.9900   -6.8562   18.4148 C.ar    1  UNL1        0.0312
      5 C         -10.9961   -7.6996   17.6892 C.ar    1  UNL1        0.0204
      6 C         -12.3426   -7.1334   17.3477 C.ar    1  UNL1        0.0924
      7 C         -12.6830   -5.7240   17.7318 C.ar    1  UNL1        0.1598
      8 F         -14.0295   -5.1580   17.3903 F       1  UNL1       -0.2026
      9 C         -12.0174   -3.4712   18.8416 C.2     1  UNL1        0.2036
     10 O         -12.7996   -3.2030   20.0931 O.2     1  UNL1       -0.2863
     11 C         -15.0921    1.5617   18.9302 C.3     1  UNL1        0.0307
     12 C         -13.8836    0.9881   18.2515 C.2     1  UNL1        0.0074
     13 C         -13.1107    1.8173   17.2692 C.2     1  UNL1        0.2278
     14 N         -11.9022    1.2437   16.5906 N.2     1  UNL1       -0.0314
     15 C         -11.4666   -0.1591   16.8943 C.2     1  UNL1        0.3720
     16 N         -10.3251   -0.9881   16.3849 N.2     1  UNL1       -0.0307
     17 C         -10.3924   -2.3298   17.0523 C.2     1  UNL1        0.2390
     18 C         -11.5756   -2.3299   17.9743 C.2     1  UNL1        0.0896
     19 C         -12.2395   -0.9883   17.8766 C.2     1  UNL1        0.0771
     20 C         -13.4480   -0.4147   18.5552 C.3     1  UNL1        0.0602
     21 N         -13.3486   -7.9769   16.6220 N.pl3   1  UNL1       -0.2127
     22 H         -13.1603   -8.2905   15.7080 H       1  UNL1        0.1738
     23 S         -14.6415   -8.3424   17.2889 S.O2    1  UNL1        0.0780
     24 O         -15.3868   -7.9947   16.0346 O.2     1  UNL1       -0.1498
     25 O         -13.8961   -8.6901   18.5433 O.2     1  UNL1       -0.1498
     26 C         -15.9344   -8.7079   17.9559 C.ar    1  UNL1        0.1797
     27 C         -16.2708  -10.1491   18.2005 C.ar    1  UNL1        0.1611
     28 F         -15.3144  -11.2248   17.7781 F       1  UNL1       -0.2027
     29 C         -17.5637  -10.5147   18.8674 C.ar    1  UNL1        0.0312
     30 C         -18.5201   -9.4391   19.2898 C.ar    1  UNL1        0.0047
     31 C         -18.1837   -7.9980   19.0452 C.ar    1  UNL1        0.0312
     32 C         -16.8908   -7.6324   18.3783 C.ar    1  UNL1        0.1611
     33 F         -16.5543   -6.1913   18.1337 F       1  UNL1       -0.2027
@<TRIPOS>BOND
     1    11    12    1
     2    12    13    2
     3    13    14    1
     4    14    15    2
     5    15    16    1
     6    16    17    2
     7    17    18    1
     8    18     9    1
     9     9    10    2
    10     9     1    1
    11     1     2   ar
    12     2     3    1
    13     2     4   ar
    14     4     5   ar
    15     5     6   ar
    16     6    21    1
    17    21    23    1
    18    23    24    2
    19    23    25    2
    20    23    26    1
    21    26    27   ar
    22    27    28    1
    23    27    29   ar
    24    29    30   ar
    25    30    31   ar
    26    31    32   ar
    27    32    33    1
    28     6     7   ar
    29     7     8    1
    30    18    19    2
    31    19    20    1
    32    20    12    1
    33    19    15    1
    34     7     1   ar
    35    32    26   ar
    36    21    22    1
@<TRIPOS>MOLECULE
*****
 33 36 0 0 0
SMALL
GASTEIGER

@<TRIPOS>ATOM
      1 C         -13.2004   -4.8253   19.5051 C.ar    1  UNL1        0.0951
      2 C         -11.8136   -4.7316   18.9414 C.ar    1  UNL1        0.1454
      3 F         -11.0971   -3.4139   18.9276 F       1  UNL1       -0.2040
      4 C         -11.1432   -5.9556   18.3914 C.ar    1  UNL1        0.0312
      5 C         -11.8597   -7.2733   18.4051 C.ar    1  UNL1        0.0204
      6 C         -13.2467   -7.3670   18.9689 C.ar    1  UNL1        0.0924
      7 C         -13.9170   -6.1430   19.5189 C.ar    1  UNL1        0.1598
      8 F         -15.3039   -6.2368   20.0826 F       1  UNL1       -0.2026
      9 C         -13.8707   -3.6013   20.0551 C.2     1  UNL1        0.2036
     10 O         -13.7134   -3.2471   21.5042 O.2     1  UNL1       -0.2863
     11 C         -19.6417   -4.6958   19.5168 C.3     1  UNL1        0.0307
     12 C         -18.6217   -3.7288   18.9928 C.2     1  UNL1        0.0074
     13 C         -19.0323   -2.6533   18.0312 C.2     1  UNL1        0.2278
     14 N         -18.0123   -1.6863   17.5073 N.2     1  UNL1       -0.0314
     15 C         -16.5816   -1.7949   17.9448 C.2     1  UNL1        0.3720
     16 N         -15.3629   -0.9913   17.6002 N.2     1  UNL1       -0.0307
     17 C         -14.1990   -1.5701   18.3488 C.2     1  UNL1        0.2390
     18 C         -14.6985   -2.7315   19.1561 C.2     1  UNL1        0.0896
     19 C         -16.1710   -2.8705   18.9063 C.2     1  UNL1        0.0771
     20 C         -17.1911   -3.8374   19.4303 C.3     1  UNL1        0.0602
     21 N         -13.9632   -8.6847   18.9826 N.pl3   1  UNL1       -0.2127
     22 H         -13.5061   -9.4901   19.3169 H       1  UNL1        0.1738
     23 S         -15.3760   -8.7754   18.4871 S.O2    1  UNL1        0.0780
     24 O         -14.9036   -8.5026   17.0899 O.2     1  UNL1       -0.1498
     25 O         -15.8486   -9.0482   19.8843 O.2     1  UNL1       -0.1498
     26 C         -16.7890   -8.8661   17.9916 C.ar    1  UNL1        0.1797
     27 C         -17.4959  -10.1890   17.9791 C.ar    1  UNL1        0.1611
     28 F         -16.7899  -11.4213   18.4621 F       1  UNL1       -0.2027
     29 C         -18.9087  -10.2798   17.4837 C.ar    1  UNL1        0.0312
     30 C         -19.6148   -9.0476   17.0007 C.ar    1  UNL1        0.0047
     31 C         -18.9079   -7.7247   17.0132 C.ar    1  UNL1        0.0312
     32 C         -17.4950   -7.6339   17.5086 C.ar    1  UNL1        0.1611
     33 F         -16.7881   -6.3111   17.5211 F       1  UNL1       -0.2027
@<TRIPOS>BOND
     1    11    12    1
     2    12    13    2
     3    13    14    1
     4    14    15    2
     5    15    16    1
     6    16    17    2
     7    17    18    1
     8    18     9    1
     9     9    10    2
    10     9     1    1
    11     1     2   ar
    12     2     3    1
    13     2     4   ar
    14     4     5   ar
    15     5     6   ar
    16     6    21    1
    17    21    23    1
    18    23    24    2
    19    23    25    2
    20    23    26    1
    21    26    27   ar
    22    27    28    1
    23    27    29   ar
    24    29    30   ar
    25    30    31   ar
    26    31    32   ar
    27    32    33    1
    28     6     7   ar
    29     7     8    1
    30    18    19    2
    31    19    20    1
    32    20    12    1
    33    19    15    1
    34     7     1   ar
    35    32    26   ar
    36    21    22    1
@<TRIPOS>MOLECULE
*****
 33 36 0 0 0
SMALL
GASTEIGER

@<TRIPOS>ATOM
      1 C         -13.2631   -4.7469   19.5394 C.ar    1  UNL1        0.0951
      2 C         -11.8746   -4.6043   18.9903 C.ar    1  UNL1        0.1454
      3 F         -11.1957   -3.2668   19.0058 F       1  UNL1       -0.2040
      4 C         -11.1649   -5.7991   18.4257 C.ar    1  UNL1        0.0312
      5 C         -11.8438   -7.1366   18.4102 C.ar    1  UNL1        0.0204
      6 C         -13.2324   -7.2792   18.9594 C.ar    1  UNL1        0.0924
      7 C         -13.9420   -6.0844   19.5240 C.ar    1  UNL1        0.1598
      8 F         -15.3306   -6.2271   20.0731 F       1  UNL1       -0.2026
      9 C         -13.9728   -3.5521   20.1041 C.2     1  UNL1        0.2036
     10 O         -13.7341   -3.1411   21.5268 O.2     1  UNL1       -0.2863
     11 C         -11.9563    1.1199   17.1212 C.3     1  UNL1        0.0307
     12 C         -13.2450    0.3797   17.3243 C.2     1  UNL1        0.0074
     13 C         -14.4918    0.8398   16.6287 C.2     1  UNL1        0.2278
     14 N         -15.7806    0.0996   16.8318 N.2     1  UNL1       -0.0314
     15 C         -15.8225   -1.1006   17.7305 C.2     1  UNL1        0.3720
     16 N         -16.9385   -2.0239   18.1205 N.2     1  UNL1       -0.0307
     17 C         -16.3814   -3.0547   19.0571 C.2     1  UNL1        0.2390
     18 C         -14.9211   -2.7684   19.2460 C.2     1  UNL1        0.0896
     19 C         -14.5758   -1.5607   18.4260 C.2     1  UNL1        0.0771
     20 C         -13.2870   -0.8205   18.2229 C.3     1  UNL1        0.0602
     21 N         -13.9112   -8.6167   18.9439 N.pl3   1  UNL1       -0.2127
     22 H         -13.4252   -9.4189   19.2431 H       1  UNL1        0.1738
     23 S         -15.3306   -8.7320   18.4725 S.O2    1  UNL1        0.0780
     24 O         -14.8928   -8.4081   17.0749 O.2     1  UNL1       -0.1498
     25 O         -15.7684   -9.0559   19.8701 O.2     1  UNL1       -0.1498
     26 C         -16.7500   -8.8473   18.0012 C.ar    1  UNL1        0.1797
     27 C         -17.4990   -7.6212   17.5702 C.ar    1  UNL1        0.1611
     28 F         -16.8287   -6.2799   17.6106 F       1  UNL1       -0.2027
     29 C         -18.9184   -7.7365   17.0989 C.ar    1  UNL1        0.0312
     30 C         -19.5887   -9.0777   17.0585 C.ar    1  UNL1        0.0047
     31 C         -18.8397  -10.3038   17.4894 C.ar    1  UNL1        0.0312
     32 C         -17.4203  -10.1886   17.9607 C.ar    1  UNL1        0.1611
     33 F         -16.6712  -11.4146   18.3917 F       1  UNL1       -0.2027
@<TRIPOS>BOND
     1    11    12    1
     2    12    13    2
     3    13    14    1
     4    14    15    2
     5    15    16    1
     6    16    17    2
     7    17    18    1
     8    18     9    1
     9     9    10    2
    10     9     1    1
    11     1     2   ar
    12     2     3    1
    13     2     4   ar
    14     4     5   ar
    15     5     6   ar
    16     6    21    1
    17    21    23    1
    18    23    24    2
    19    23    25    2
    20    23    26    1
    21    26    27   ar
    22    27    28    1
    23    27    29   ar
    24    29    30   ar
    25    30    31   ar
    26    31    32   ar
    27    32    33    1
    28     6     7   ar
    29     7     8    1
    30    18    19    2
    31    19    20    1
    32    20    12    1
    33    19    15    1
    34     7     1   ar
    35    32    26   ar
    36    21    22    1
@<TRIPOS>MOLECULE
*****
 33 36 0 0 0
SMALL
GASTEIGER

@<TRIPOS>ATOM
      1 C          -6.2454  -19.8150   21.1224 C.ar    1  UNL1        0.0951
      2 C          -6.0536  -20.8199   20.0255 C.ar    1  UNL1        0.1454
      3 F          -4.8127  -21.6618   19.9883 F       1  UNL1       -0.2040
      4 C          -7.1026  -20.9831   18.9659 C.ar    1  UNL1        0.0312
      5 C          -8.3436  -20.1412   19.0031 C.ar    1  UNL1        0.0204
      6 C          -8.5353  -19.1362   20.1000 C.ar    1  UNL1        0.0924
      7 C          -7.4863  -18.9730   21.1597 C.ar    1  UNL1        0.1598
      8 F          -7.6782  -17.9680   22.2565 F       1  UNL1       -0.2026
      9 C          -5.1963  -19.6518   22.1820 C.2     1  UNL1        0.2036
     10 O          -4.7950  -20.8245   23.0269 O.2     1  UNL1       -0.2863
     11 C          -0.2077  -18.3819   19.3024 C.3     1  UNL1        0.0307
     12 C          -1.1405  -17.7373   20.2843 C.2     1  UNL1        0.0074
     13 C          -0.8618  -16.3510   20.7847 C.2     1  UNL1        0.2278
     14 N          -1.7947  -15.7063   21.7666 N.2     1  UNL1       -0.0314
     15 C          -3.0062  -16.4480   22.2482 C.2     1  UNL1        0.3720
     16 N          -4.0976  -16.0729   23.2064 N.2     1  UNL1       -0.0307
     17 C          -5.0509  -17.2274   23.2983 C.2     1  UNL1        0.2390
     18 C          -4.5487  -18.3160   22.3968 C.2     1  UNL1        0.0896
     19 C          -3.2850  -17.8343   21.7478 C.2     1  UNL1        0.0771
     20 C          -2.3521  -18.4789   20.7659 C.3     1  UNL1        0.0602
     21 N          -9.7763  -18.2943   20.1372 N.pl3   1  UNL1       -0.2127
     22 H         -10.0018  -17.7159   19.3731 H       1  UNL1        0.1738
     23 S         -10.6736  -18.3337   21.3386 S.O2    1  UNL1        0.0780
     24 O         -10.3688  -16.8910   21.6136 O.2     1  UNL1       -0.1498
     25 O         -10.9784  -19.7764   21.0636 O.2     1  UNL1       -0.1498
     26 C         -11.5709  -18.3731   22.5400 C.ar    1  UNL1        0.1797
     27 C         -12.9713  -17.8436   22.4477 C.ar    1  UNL1        0.1611
     28 F         -13.4744  -17.2747   21.1542 F       1  UNL1       -0.2027
     29 C         -13.8687  -17.8830   23.6490 C.ar    1  UNL1        0.0312
     30 C         -13.3656  -18.4519   24.9426 C.ar    1  UNL1        0.0047
     31 C         -11.9653  -18.9814   25.0349 C.ar    1  UNL1        0.0312
     32 C         -11.0679  -18.9420   23.8335 C.ar    1  UNL1        0.1611
     33 F          -9.6675  -19.4715   23.9257 F       1  UNL1       -0.2027
@<TRIPOS>BOND
     1    11    12    1
     2    12    13    2
     3    13    14    1
     4    14    15    2
     5    15    16    1
     6    16    17    2
     7    17    18    1
     8    18     9    1
     9     9    10    2
    10     9     1    1
    11     1     2   ar
    12     2     3    1
    13     2     4   ar
    14     4     5   ar
    15     5     6   ar
    16     6    21    1
    17    21    23    1
    18    23    24    2
    19    23    25    2
    20    23    26    1
    21    26    27   ar
    22    27    28    1
    23    27    29   ar
    24    29    30   ar
    25    30    31   ar
    26    31    32   ar
    27    32    33    1
    28     6     7   ar
    29     7     8    1
    30    18    19    2
    31    19    20    1
    32    20    12    1
    33    19    15    1
    34     7     1   ar
    35    32    26   ar
    36    21    22    1
@<TRIPOS>MOLECULE
*****
 33 36 0 0 0
SMALL
GASTEIGER

@<TRIPOS>ATOM
      1 C         -11.5403   -4.7834   18.2700 C.ar    1  UNL1        0.0951
      2 C         -10.2119   -5.3210   18.7132 C.ar    1  UNL1        0.1454
      3 F          -9.2104   -4.4083   19.3566 F       1  UNL1       -0.2040
      4 C          -9.8852   -6.7712   18.5131 C.ar    1  UNL1        0.0312
      5 C         -10.8868   -7.6839   17.8698 C.ar    1  UNL1        0.0204
      6 C         -12.2152   -7.1462   17.4266 C.ar    1  UNL1        0.0924
      7 C         -12.5419   -5.6960   17.6267 C.ar    1  UNL1        0.1598
      8 F         -13.8703   -5.1584   17.1834 F       1  UNL1       -0.2026
      9 C         -11.8670   -3.3331   18.4701 C.2     1  UNL1        0.2036
     10 O         -10.9677   -2.2762   17.9008 O.2     1  UNL1       -0.2863
     11 C         -14.4303    1.8561   17.3331 C.3     1  UNL1        0.0307
     12 C         -14.6239    0.6745   18.2366 C.2     1  UNL1        0.0074
     13 C         -15.7706    0.6494   19.2032 C.2     1  UNL1        0.2278
     14 N         -15.9642   -0.5322   20.1067 N.2     1  UNL1       -0.0314
     15 C         -15.0112   -1.6887   20.0436 C.2     1  UNL1        0.3720
     16 N         -14.9485   -2.9803   20.8037 N.2     1  UNL1       -0.0307
     17 C         -13.7630   -3.7536   20.3068 C.2     1  UNL1        0.2390
     18 C         -13.0931   -2.9398   19.2396 C.2     1  UNL1        0.0896
     19 C         -13.8645   -1.6637   19.0769 C.2     1  UNL1        0.0771
     20 C         -13.6709   -0.4820   18.1734 C.3     1  UNL1        0.0602
     21 N         -13.2168   -8.0589   16.7833 N.pl3   1  UNL1       -0.2127
     22 H         -13.0236   -8.4613   15.9058 H       1  UNL1        0.1738
     23 S         -14.5126   -8.3583   17.4768 S.O2    1  UNL1        0.0780
     24 O         -15.2613   -8.0340   16.2182 O.2     1  UNL1       -0.1498
     25 O         -13.7640   -8.6826   18.7356 O.2     1  UNL1       -0.1498
     26 C         -15.8085   -8.6577   18.1705 C.ar    1  UNL1        0.1797
     27 C         -16.2464  -10.0798   18.3603 C.ar    1  UNL1        0.1611
     28 F         -15.3885  -11.2024   17.8566 F       1  UNL1       -0.2027
     29 C         -17.5422  -10.3793   19.0539 C.ar    1  UNL1        0.0312
     30 C         -18.4002   -9.2567   19.5577 C.ar    1  UNL1        0.0047
     31 C         -17.9623   -7.8347   19.3679 C.ar    1  UNL1        0.0312
     32 C         -16.6665   -7.5352   18.6743 C.ar    1  UNL1        0.1611
     33 F         -16.2286   -6.1132   18.4844 F       1  UNL1       -0.2027
@<TRIPOS>BOND
     1    11    12    1
     2    12    13    2
     3    13    14    1
     4    14    15    2
     5    15    16    1
     6    16    17    2
     7    17    18    1
     8    18     9    1
     9     9    10    2
    10     9     1    1
    11     1     2   ar
    12     2     3    1
    13     2     4   ar
    14     4     5   ar
    15     5     6   ar
    16     6    21    1
    17    21    23    1
    18    23    24    2
    19    23    25    2
    20    23    26    1
    21    26    27   ar
    22    27    28    1
    23    27    29   ar
    24    29    30   ar
    25    30    31   ar
    26    31    32   ar
    27    32    33    1
    28     6     7   ar
    29     7     8    1
    30    18    19    2
    31    19    20    1
    32    20    12    1
    33    19    15    1
    34     7     1   ar
    35    32    26   ar
    36    21    22    1
@<TRIPOS>MOLECULE
*****
 33 36 0 0 0
SMALL
GASTEIGER

@<TRIPOS>ATOM
      1 C          -8.7382  -19.0719   20.5812 C.ar    1  UNL1        0.0951
      2 C          -9.8996  -19.8757   20.0763 C.ar    1  UNL1        0.1454
      3 F          -9.7026  -20.8589   18.9607 F       1  UNL1       -0.2040
      4 C         -11.2578  -19.6965   20.6870 C.ar    1  UNL1        0.0312
      5 C         -11.4548  -18.7134   21.8027 C.ar    1  UNL1        0.0204
      6 C         -10.2933  -17.9095   22.3076 C.ar    1  UNL1        0.0924
      7 C          -8.9350  -18.0887   21.6969 C.ar    1  UNL1        0.1598
      8 F          -7.7737  -17.2848   22.2018 F       1  UNL1       -0.2026
      9 C          -7.3799  -19.2511   19.9705 C.2     1  UNL1        0.2036
     10 O          -7.2054  -19.1422   18.4847 O.2     1  UNL1       -0.2863
     11 C          -2.0034  -17.6485   18.1493 C.3     1  UNL1        0.0307
     12 C          -2.6429  -18.3219   19.3272 C.2     1  UNL1        0.0074
     13 C          -1.7969  -18.7897   20.4741 C.2     1  UNL1        0.2278
     14 N          -2.4364  -19.4631   21.6521 N.2     1  UNL1       -0.0314
     15 C          -3.9219  -19.6687   21.6831 C.2     1  UNL1        0.3720
     16 N          -4.8273  -20.2960   22.7014 N.2     1  UNL1       -0.0307
     17 C          -6.2329  -20.2158   22.1838 C.2     1  UNL1        0.2390
     18 C          -6.1962  -19.5391   20.8456 C.2     1  UNL1        0.0896
     19 C          -4.7679  -19.2010   20.5362 C.2     1  UNL1        0.0771
     20 C          -4.1284  -18.5276   19.3583 C.3     1  UNL1        0.0602
     21 N         -10.4902  -16.9264   23.4233 N.pl3   1  UNL1       -0.2127
     22 H         -11.3764  -16.5254   23.5754 H       1  UNL1        0.1738
     23 S          -9.3370  -16.5542   24.3072 S.O2    1  UNL1        0.0780
     24 O          -9.1263  -18.0010   24.6418 O.2     1  UNL1       -0.1498
     25 O          -9.5475  -15.1072   23.9726 O.2     1  UNL1       -0.1498
     26 C          -8.1836  -16.1818   25.1912 C.ar    1  UNL1        0.1797
     27 C          -7.0118  -15.4386   24.6218 C.ar    1  UNL1        0.1611
     28 F          -6.9931  -15.0676   23.1685 F       1  UNL1       -0.2027
     29 C          -5.8585  -15.0663   25.5057 C.ar    1  UNL1        0.0312
     30 C          -5.8770  -15.4372   26.9590 C.ar    1  UNL1        0.0047
     31 C          -7.0489  -16.1804   27.5284 C.ar    1  UNL1        0.0312
     32 C          -8.2022  -16.5528   26.6445 C.ar    1  UNL1        0.1611
     33 F          -9.3741  -17.2960   27.2138 F       1  UNL1       -0.2027
@<TRIPOS>BOND
     1    11    12    1
     2    12    13    2
     3    13    14    1
     4    14    15    2
     5    15    16    1
     6    16    17    2
     7    17    18    1
     8    18     9    1
     9     9    10    2
    10     9     1    1
    11     1     2   ar
    12     2     3    1
    13     2     4   ar
    14     4     5   ar
    15     5     6   ar
    16     6    21    1
    17    21    23    1
    18    23    24    2
    19    23    25    2
    20    23    26    1
    21    26    27   ar
    22    27    28    1
    23    27    29   ar
    24    29    30   ar
    25    30    31   ar
    26    31    32   ar
    27    32    33    1
    28     6     7   ar
    29     7     8    1
    30    18    19    2
    31    19    20    1
    32    20    12    1
    33    19    15    1
    34     7     1   ar
    35    32    26   ar
    36    21    22    1
@<TRIPOS>MOLECULE
*****
 33 36 0 0 0
SMALL
GASTEIGER

@<TRIPOS>ATOM
      1 C           4.9275   -2.7191   19.7723 C.ar    1  UNL1        0.0951
      2 C           6.3040   -2.5276   19.2079 C.ar    1  UNL1        0.1454
      3 F           7.4461   -3.3542   19.7201 F       1  UNL1       -0.2040
      4 C           6.5384   -1.5096   18.1315 C.ar    1  UNL1        0.0312
      5 C           5.3963   -0.6830   17.6194 C.ar    1  UNL1        0.0204
      6 C           4.0197   -0.8745   18.1838 C.ar    1  UNL1        0.0924
      7 C           3.7853   -1.8925   19.2602 C.ar    1  UNL1        0.1598
      8 F           2.4087   -2.0839   19.8245 F       1  UNL1       -0.2026
      9 C           4.6931   -3.7371   20.8487 C.2     1  UNL1        0.2036
     10 O           3.9882   -5.0212   20.5259 O.2     1  UNL1       -0.2863
     11 C           1.9961    0.4235   24.0437 C.3     1  UNL1        0.0307
     12 C           3.1186   -0.5610   24.1878 C.2     1  UNL1        0.0074
     13 C           3.8898   -0.6363   25.4722 C.2     1  UNL1        0.2278
     14 N           5.0123   -1.6208   25.6163 N.2     1  UNL1       -0.0314
     15 C           5.3637   -2.5299   24.4762 C.2     1  UNL1        0.3720
     16 N           6.4113   -3.5929   24.3261 N.2     1  UNL1       -0.0307
     17 C           6.2876   -4.1745   22.9490 C.2     1  UNL1        0.2390
     18 C           5.1635   -3.4710   22.2479 C.2     1  UNL1        0.0896
     19 C           4.5925   -2.4545   23.1918 C.2     1  UNL1        0.0771
     20 C           3.4700   -1.4700   23.0477 C.3     1  UNL1        0.0602
     21 N           2.8776   -0.0479   17.6716 N.pl3   1  UNL1       -0.2127
     22 H           2.5973   -0.1247   16.7310 H       1  UNL1        0.1738
     23 S           2.1625    0.8957   18.5926 S.O2    1  UNL1        0.0780
     24 O           0.8544    0.5198   17.9623 O.2     1  UNL1       -0.1498
     25 O           3.4707    1.2717   19.2230 O.2     1  UNL1       -0.1498
     26 C           1.4475    1.8394   19.5137 C.ar    1  UNL1        0.1797
     27 C           0.6831    1.3055   20.6886 C.ar    1  UNL1        0.1611
     28 F           0.6336   -0.1721   20.9426 F       1  UNL1       -0.2027
     29 C          -0.0319    2.2491   21.6097 C.ar    1  UNL1        0.0312
     30 C           0.0175    3.7266   21.3558 C.ar    1  UNL1        0.0047
     31 C           0.7819    4.2606   20.1808 C.ar    1  UNL1        0.0312
     32 C           1.4969    3.3170   19.2598 C.ar    1  UNL1        0.1611
     33 F           2.2614    3.8508   18.0848 F       1  UNL1       -0.2027
@<TRIPOS>BOND
     1    11    12    1
     2    12    13    2
     3    13    14    1
     4    14    15    2
     5    15    16    1
     6    16    17    2
     7    17    18    1
     8    18     9    1
     9     9    10    2
    10     9     1    1
    11     1     2   ar
    12     2     3    1
    13     2     4   ar
    14     4     5   ar
    15     5     6   ar
    16     6    21    1
    17    21    23    1
    18    23    24    2
    19    23    25    2
    20    23    26    1
    21    26    27   ar
    22    27    28    1
    23    27    29   ar
    24    29    30   ar
    25    30    31   ar
    26    31    32   ar
    27    32    33    1
    28     6     7   ar
    29     7     8    1
    30    18    19    2
    31    19    20    1
    32    20    12    1
    33    19    15    1
    34     7     1   ar
    35    32    26   ar
    36    21    22    1
@<TRIPOS>MOLECULE
*****
 33 36 0 0 0
SMALL
GASTEIGER

@<TRIPOS>ATOM
      1 C           3.8609   -1.5742   19.1682 C.ar    1  UNL1        0.0951
      2 C           4.9802   -0.9354   18.4008 C.ar    1  UNL1        0.1454
      3 F           6.2218   -1.7191   18.0936 F       1  UNL1       -0.2040
      4 C           4.8580    0.4870   17.9405 C.ar    1  UNL1        0.0312
      5 C           3.6164    1.2707   18.2478 C.ar    1  UNL1        0.0204
      6 C           2.4971    0.6318   19.0153 C.ar    1  UNL1        0.0924
      7 C           2.6193   -0.7906   19.4755 C.ar    1  UNL1        0.1598
      8 F           1.4999   -1.4294   20.2430 F       1  UNL1       -0.2026
      9 C           3.9831   -2.9966   19.6285 C.2     1  UNL1        0.2036
     10 O           2.9948   -4.0237   19.1612 O.2     1  UNL1       -0.2863
     11 C           3.7738   -1.2641   25.2629 C.3     1  UNL1        0.0307
     12 C           4.6700   -2.0553   24.3570 C.2     1  UNL1        0.0074
     13 C           5.9364   -2.6553   24.8920 C.2     1  UNL1        0.2278
     14 N           6.8326   -3.4466   23.9861 N.2     1  UNL1       -0.0314
     15 C           6.4625   -3.6378   22.5452 C.2     1  UNL1        0.3720
     16 N           7.1427   -4.3627   21.4218 N.2     1  UNL1       -0.0307
     17 C           6.2967   -4.2108   20.1925 C.2     1  UNL1        0.2390
     18 C           5.0937   -3.3919   20.5560 C.2     1  UNL1        0.0896
     19 C           5.1962   -3.0379   22.0101 C.2     1  UNL1        0.0771
     20 C           4.2999   -2.2466   22.9160 C.3     1  UNL1        0.0602
     21 N           1.2555    1.4154   19.3225 N.pl3   1  UNL1       -0.2127
     22 H           0.7086    1.7787   18.5889 H       1  UNL1        0.1738
     23 S           0.8472    1.6455   20.7474 S.O2    1  UNL1        0.0780
     24 O          -0.3867    0.8217   20.5269 O.2     1  UNL1       -0.1498
     25 O           2.0811    2.4694   20.9679 O.2     1  UNL1       -0.1498
     26 C           0.4389    1.8757   22.1723 C.ar    1  UNL1        0.1797
     27 C          -0.5357    2.9659   22.5065 C.ar    1  UNL1        0.1611
     28 F          -1.1020    3.8260   21.4157 F       1  UNL1       -0.2027
     29 C          -0.9439    3.1961   23.9313 C.ar    1  UNL1        0.0312
     30 C          -0.3777    2.3361   25.0221 C.ar    1  UNL1        0.0047
     31 C           0.5969    1.2459   24.6880 C.ar    1  UNL1        0.0312
     32 C           1.0052    1.0157   23.2631 C.ar    1  UNL1        0.1611
     33 F           1.9797   -0.0745   22.9289 F       1  UNL1       -0.2027
@<TRIPOS>BOND
     1    11    12    1
     2    12    13    2
     3    13    14    1
     4    14    15    2
     5    15    16    1
     6    16    17    2
     7    17    18    1
     8    18     9    1
     9     9    10    2
    10     9     1    1
    11     1     2   ar
    12     2     3    1
    13     2     4   ar
    14     4     5   ar
    15     5     6   ar
    16     6    21    1
    17    21    23    1
    18    23    24    2
    19    23    25    2
    20    23    26    1
    21    26    27   ar
    22    27    28    1
    23    27    29   ar
    24    29    30   ar
    25    30    31   ar
    26    31    32   ar
    27    32    33    1
    28     6     7   ar
    29     7     8    1
    30    18    19    2
    31    19    20    1
    32    20    12    1
    33    19    15    1
    34     7     1   ar
    35    32    26   ar
    36    21    22    1
@<TRIPOS>MOLECULE
*****
 33 36 0 0 0
SMALL
GASTEIGER

@<TRIPOS>ATOM
      1 C           5.3401   -3.2613   23.0491 C.ar    1  UNL1        0.0951
      2 C           4.5129   -2.1204   23.5630 C.ar    1  UNL1        0.1454
      3 F           3.5179   -1.4503   22.6625 F       1  UNL1       -0.2040
      4 C           4.6807   -1.6496   24.9772 C.ar    1  UNL1        0.0312
      5 C           5.6758   -2.3198   25.8777 C.ar    1  UNL1        0.0204
      6 C           6.5030   -3.4607   25.3638 C.ar    1  UNL1        0.0924
      7 C           6.3352   -3.9315   23.9495 C.ar    1  UNL1        0.1598
      8 F           7.1624   -5.0724   23.4358 F       1  UNL1       -0.2026
      9 C           5.1723   -3.7321   21.6348 C.2     1  UNL1        0.2036
     10 O           4.1411   -4.7711   21.3076 O.2     1  UNL1       -0.2863
     11 C           2.8256    0.0919   17.8058 C.3     1  UNL1        0.0307
     12 C           4.1444   -0.5692   18.0774 C.2     1  UNL1        0.0074
     13 C           5.3255   -0.2749   17.2008 C.2     1  UNL1        0.2278
     14 N           6.6443   -0.9360   17.4724 N.2     1  UNL1       -0.0314
     15 C           6.7820   -1.8913   18.6206 C.2     1  UNL1        0.3720
     16 N           7.9467   -2.6879   19.1294 N.2     1  UNL1       -0.0307
     17 C           7.4855   -3.4745   20.3204 C.2     1  UNL1        0.2390
     18 C           6.0357   -3.1640   20.5478 C.2     1  UNL1        0.0896
     19 C           5.6010   -2.1855   19.4972 C.2     1  UNL1        0.0771
     20 C           4.2822   -1.5244   19.2256 C.3     1  UNL1        0.0602
     21 N           7.4980   -4.1308   26.2643 N.pl3   1  UNL1       -0.2127
     22 H           8.3069   -4.5432   25.8836 H       1  UNL1        0.1738
     23 S           7.2606   -4.1727   27.7448 S.O2    1  UNL1        0.0780
     24 O           8.4316   -3.2601   27.9584 O.2     1  UNL1       -0.1498
     25 O           6.0895   -5.0853   27.5312 O.2     1  UNL1       -0.1498
     26 C           7.0232   -4.2146   29.2253 C.ar    1  UNL1        0.1797
     27 C           6.4711   -3.0114   29.9307 C.ar    1  UNL1        0.1611
     28 F           6.1565   -1.7663   29.1556 F       1  UNL1       -0.2027
     29 C           6.2336   -3.0533   31.4111 C.ar    1  UNL1        0.0312
     30 C           6.5482   -4.2983   32.1863 C.ar    1  UNL1        0.0047
     31 C           7.1003   -5.5015   31.4810 C.ar    1  UNL1        0.0312
     32 C           7.3378   -5.4597   30.0005 C.ar    1  UNL1        0.1611
     33 F           7.8898   -6.6628   29.2951 F       1  UNL1       -0.2027
@<TRIPOS>BOND
     1    11    12    1
     2    12    13    2
     3    13    14    1
     4    14    15    2
     5    15    16    1
     6    16    17    2
     7    17    18    1
     8    18     9    1
     9     9    10    2
    10     9     1    1
    11     1     2   ar
    12     2     3    1
    13     2     4   ar
    14     4     5   ar
    15     5     6   ar
    16     6    21    1
    17    21    23    1
    18    23    24    2
    19    23    25    2
    20    23    26    1
    21    26    27   ar
    22    27    28    1
    23    27    29   ar
    24    29    30   ar
    25    30    31   ar
    26    31    32   ar
    27    32    33    1
    28     6     7   ar
    29     7     8    1
    30    18    19    2
    31    19    20    1
    32    20    12    1
    33    19    15    1
    34     7     1   ar
    35    32    26   ar
    36    21    22    1
