@<TRIPOS>MOLECULE
*****
 36 38 0 0 0
SMALL
GASTEIGER

@<TRIPOS>ATOM
      1 N          -8.8766  -15.6740   22.3321 N.am    1  UNL1       -0.2683
      2 C          -9.8099  -16.8352   22.1575 C.2     1  UNL1        0.3044
      3 O          -9.6324  -18.0716   22.9881 O.2     1  UNL1       -0.2525
      4 N         -10.9207  -16.7601   21.1523 N.am    1  UNL1       -0.2903
      5 H          -8.9931  -14.8625   21.7869 H       1  UNL1        0.1564
      6 H         -11.0372  -15.9486   20.6071 H       1  UNL1        0.1509
      7 C          -5.2812  -16.2454   23.9121 C.ar    1  UNL1        0.0360
      8 C          -6.3920  -16.1702   22.9069 C.ar    1  UNL1        0.0176
      9 C          -7.7658  -15.7491   23.3374 C.ar    1  UNL1        0.0517
     10 C          -8.0288  -15.4032   24.7730 C.ar    1  UNL1        0.0176
     11 C          -6.9180  -15.4783   25.7782 C.ar    1  UNL1        0.0360
     12 C          -5.5442  -15.8994   25.3477 C.ar    1  UNL1        0.0058
     13 C          -3.2022  -17.7760   24.2039 C.3     1  UNL1        0.0773
     14 C          -3.9074  -16.6665   23.4816 C.2     1  UNL1        0.1735
     15 O          -3.2387  -15.9780   22.3289 O.2     1  UNL1       -0.2913
     16 C          -7.1810  -15.1324   27.2139 C.2     1  UNL1        0.1735
     17 C          -8.3299  -15.7671   27.9400 C.3     1  UNL1        0.0773
     18 O          -6.2951  -14.1518   27.9235 O.2     1  UNL1       -0.2913
     19 C         -11.8540  -17.9213   20.9776 C.3     1  UNL1        0.0745
     20 C         -13.2230  -17.8819   21.5895 C.3     1  UNL1        0.0214
     21 C         -11.4183  -19.1220   20.1912 C.3     1  UNL1        0.0369
     22 C         -10.3418  -18.9897   19.1551 C.3     1  UNL1        0.0738
     23 N          -9.0931  -19.8140   19.2614 N.3     1  UNL1       -0.2726
     24 C          -8.9152  -21.0217   18.3897 C.3     1  UNL1        0.0721
     25 C          -7.6665  -21.8460   18.4961 C.3     1  UNL1        0.0174
     26 C          -6.5958  -21.4626   19.4742 C.3     1  UNL1        0.0031
     27 C          -6.7737  -20.2550   20.3459 C.3     1  UNL1        0.0204
     28 C          -8.0224  -19.4307   20.2395 C.3     1  UNL1        0.0724
     29 C          -5.7030  -19.8716   21.3239 C.3     1  UNL1        0.0277
     30 C          -4.3628  -19.4156   20.8282 C.ar    1  UNL1       -0.0220
     31 C          -4.2690  -18.5590   19.6003 C.ar    1  UNL1       -0.0020
     32 C          -2.9288  -18.1030   19.1046 C.ar    1  UNL1        0.0293
     33 C          -1.6823  -18.5034   19.8367 C.ar    1  UNL1        0.1401
     34 F          -0.3420  -18.0473   19.3409 F       1  UNL1       -0.2042
     35 C          -1.7760  -19.3599   21.0645 C.ar    1  UNL1        0.0293
     36 C          -3.1163  -19.8160   21.5603 C.ar    1  UNL1       -0.0020
@<TRIPOS>BOND
     1    13    14    1
     2    14    15    2
     3    14     7    1
     4     7     8   ar
     5     8     9   ar
     6     9     1    1
     7     1     2   am
     8     2     3    2
     9     2     4   am
    10     4    19    1
    11    19    20    1
    12    19    21    1
    13    21    22    1
    14    22    23    1
    15    23    24    1
    16    24    25    1
    17    25    26    1
    18    26    27    1
    19    27    29    1
    20    29    30    1
    21    30    31   ar
    22    31    32   ar
    23    32    33   ar
    24    33    34    1
    25    33    35   ar
    26    35    36   ar
    27    27    28    1
    28     9    10   ar
    29    10    11   ar
    30    11    16    1
    31    16    17    1
    32    16    18    2
    33    11    12   ar
    34    12     7   ar
    35    28    23    1
    36    36    30   ar
    37     1     5    1
    38     4     6    1
@<TRIPOS>MOLECULE
*****
 36 38 0 0 0
SMALL
GASTEIGER

@<TRIPOS>ATOM
      1 N          -8.8802  -15.6859   22.3296 N.am    1  UNL1       -0.2683
      2 C          -9.8171  -16.8462   22.1688 C.2     1  UNL1        0.3044
      3 O          -9.6420  -18.0742   23.0123 O.2     1  UNL1       -0.2525
      4 N         -10.9291  -16.7786   21.1644 N.am    1  UNL1       -0.2903
      5 H          -8.9951  -14.8800   21.7760 H       1  UNL1        0.1564
      6 H         -11.0441  -15.9727   20.6108 H       1  UNL1        0.1509
      7 C          -6.9190  -15.4714   25.7732 C.ar    1  UNL1        0.0360
      8 C          -8.0310  -15.4038   24.7688 C.ar    1  UNL1        0.0176
      9 C          -7.7681  -15.7536   23.3340 C.ar    1  UNL1        0.0517
     10 C          -6.3931  -16.1711   22.9037 C.ar    1  UNL1        0.0176
     11 C          -5.2812  -16.2387   23.9081 C.ar    1  UNL1        0.0360
     12 C          -5.5441  -15.8889   25.3428 C.ar    1  UNL1        0.0058
     13 C          -8.3375  -15.7458   27.9324 C.3     1  UNL1        0.0773
     14 C          -7.1819  -15.1216   27.2079 C.2     1  UNL1        0.1735
     15 O          -6.2893  -14.1476   27.9181 O.2     1  UNL1       -0.2913
     16 C          -3.9061  -16.6562   23.4777 C.2     1  UNL1        0.1735
     17 C          -3.1966  -17.7612   24.2025 C.3     1  UNL1        0.0773
     18 O          -3.2407  -15.9686   22.3226 O.2     1  UNL1       -0.2913
     19 C         -11.8661  -17.9389   21.0036 C.3     1  UNL1        0.0745
     20 C         -13.2403  -17.8818   21.6022 C.3     1  UNL1        0.0214
     21 C         -11.4289  -19.1563   20.2442 C.3     1  UNL1        0.0369
     22 C         -10.3811  -19.0385   19.1772 C.3     1  UNL1        0.0738
     23 N          -9.1154  -19.8372   19.2776 N.3     1  UNL1       -0.2726
     24 C          -8.9149  -21.0381   18.4014 C.3     1  UNL1        0.0721
     25 C          -7.6492  -21.8368   18.5018 C.3     1  UNL1        0.0174
     26 C          -6.5840  -21.4346   19.4784 C.3     1  UNL1        0.0031
     27 C          -6.7845  -20.2337   20.3545 C.3     1  UNL1        0.0204
     28 C          -8.0502  -19.4351   20.2541 C.3     1  UNL1        0.0724
     29 C          -5.7194  -19.8316   21.3311 C.3     1  UNL1        0.0277
     30 C          -4.3731  -19.3946   20.8347 C.ar    1  UNL1       -0.0220
     31 C          -4.2677  -18.5394   19.6068 C.ar    1  UNL1       -0.0020
     32 C          -2.9214  -18.1025   19.1104 C.ar    1  UNL1        0.0293
     33 C          -1.6804  -18.5206   19.8418 C.ar    1  UNL1        0.1401
     34 F          -0.3340  -18.0836   19.3453 F       1  UNL1       -0.2042
     35 C          -1.7857  -19.3757   21.0696 C.ar    1  UNL1        0.0293
     36 C          -3.1320  -19.8127   21.5661 C.ar    1  UNL1       -0.0020
@<TRIPOS>BOND
     1    13    14    1
     2    14    15    2
     3    14     7    1
     4     7     8   ar
     5     8     9   ar
     6     9     1    1
     7     1     2   am
     8     2     3    2
     9     2     4   am
    10     4    19    1
    11    19    20    1
    12    19    21    1
    13    21    22    1
    14    22    23    1
    15    23    24    1
    16    24    25    1
    17    25    26    1
    18    26    27    1
    19    27    29    1
    20    29    30    1
    21    30    31   ar
    22    31    32   ar
    23    32    33   ar
    24    33    34    1
    25    33    35   ar
    26    35    36   ar
    27    27    28    1
    28     9    10   ar
    29    10    11   ar
    30    11    16    1
    31    16    17    1
    32    16    18    2
    33    11    12   ar
    34    12     7   ar
    35    28    23    1
    36    36    30   ar
    37     1     5    1
    38     4     6    1
@<TRIPOS>MOLECULE
*****
 36 38 0 0 0
SMALL
GASTEIGER

@<TRIPOS>ATOM
      1 N           3.9286   -2.3054   22.8871 N.am    1  UNL1       -0.2683
      2 C           4.2210   -1.4436   24.0795 C.2     1  UNL1        0.3044
      3 O           4.2934    0.0470   23.9279 O.2     1  UNL1       -0.2525
      4 N           4.4411   -2.0723   25.4235 N.am    1  UNL1       -0.2903
      5 H           3.8811   -3.2837   22.9866 H       1  UNL1        0.1564
      6 H           4.3936   -3.0506   25.5230 H       1  UNL1        0.1509
      7 C           4.5355   -1.1731   19.1322 C.ar    1  UNL1        0.0360
      8 C           4.7554   -1.8018   20.4761 C.ar    1  UNL1        0.0176
      9 C           3.7086   -1.6766   21.5431 C.ar    1  UNL1        0.0517
     10 C           2.4418   -0.9227   21.2662 C.ar    1  UNL1        0.0176
     11 C           2.2218   -0.2940   19.9222 C.ar    1  UNL1        0.0360
     12 C           3.2687   -0.4192   18.8552 C.ar    1  UNL1        0.0058
     13 C           6.1105   -0.0702   17.3850 C.3     1  UNL1        0.0773
     14 C           5.5823   -1.2983   18.0652 C.2     1  UNL1        0.1735
     15 O           6.1009   -2.6515   17.6784 O.2     1  UNL1       -0.2913
     16 C           0.9550    0.4600   19.6452 C.2     1  UNL1        0.1735
     17 C           0.8703    1.3740   18.4589 C.3     1  UNL1        0.0773
     18 O          -0.2272    0.2999   20.5545 O.2     1  UNL1       -0.2913
     19 C           4.7335   -1.2105   26.6159 C.3     1  UNL1        0.0745
     20 C           6.1315   -0.7289   26.8684 C.3     1  UNL1        0.0214
     21 C           3.6280   -0.8303   27.5556 C.3     1  UNL1        0.0369
     22 C           3.0861    0.5684   27.5495 C.3     1  UNL1        0.0738
     23 N           1.6181    0.8049   27.7473 N.3     1  UNL1       -0.2726
     24 C           0.7681   -0.2511   28.3894 C.3     1  UNL1        0.0721
     25 C          -0.6998   -0.0146   28.5871 C.3     1  UNL1        0.0174
     26 C          -1.3178    1.2779   28.1428 C.3     1  UNL1        0.0031
     27 C          -0.4678    2.3339   27.5007 C.3     1  UNL1        0.0204
     28 C           1.0001    2.0974   27.3029 C.3     1  UNL1        0.0724
     29 C          -1.0858    3.6265   27.0564 C.3     1  UNL1        0.0277
     30 C          -2.2656    3.6144   26.1301 C.ar    1  UNL1       -0.0220
     31 C          -3.6399    3.8938   26.6624 C.ar    1  UNL1       -0.0020
     32 C          -4.8197    3.8817   25.7362 C.ar    1  UNL1        0.0293
     33 C          -4.6252    3.5902   24.2776 C.ar    1  UNL1        0.1401
     34 F          -5.8051    3.5781   23.3514 F       1  UNL1       -0.2042
     35 C          -3.2510    3.3109   23.7454 C.ar    1  UNL1        0.0293
     36 C          -2.0711    3.3229   24.6716 C.ar    1  UNL1       -0.0020
@<TRIPOS>BOND
     1    13    14    1
     2    14    15    2
     3    14     7    1
     4     7     8   ar
     5     8     9   ar
     6     9     1    1
     7     1     2   am
     8     2     3    2
     9     2     4   am
    10     4    19    1
    11    19    20    1
    12    19    21    1
    13    21    22    1
    14    22    23    1
    15    23    24    1
    16    24    25    1
    17    25    26    1
    18    26    27    1
    19    27    29    1
    20    29    30    1
    21    30    31   ar
    22    31    32   ar
    23    32    33   ar
    24    33    34    1
    25    33    35   ar
    26    35    36   ar
    27    27    28    1
    28     9    10   ar
    29    10    11   ar
    30    11    16    1
    31    16    17    1
    32    16    18    2
    33    11    12   ar
    34    12     7   ar
    35    28    23    1
    36    36    30   ar
    37     1     5    1
    38     4     6    1
@<TRIPOS>MOLECULE
*****
 36 38 0 0 0
SMALL
GASTEIGER

@<TRIPOS>ATOM
      1 N           4.2858   -2.4984   22.5605 N.am    1  UNL1       -0.2683
      2 C           4.4325   -1.6843   23.8118 C.2     1  UNL1        0.3044
      3 O           4.3559   -0.1876   23.7460 O.2     1  UNL1       -0.2525
      4 N           4.6557   -2.3667   25.1287 N.am    1  UNL1       -0.2903
      5 H           4.3360   -3.4807   22.6036 H       1  UNL1        0.1564
      6 H           4.7059   -3.3490   25.1719 H       1  UNL1        0.1509
      7 C           2.5233   -0.4743   19.6371 C.ar    1  UNL1        0.0360
      8 C           2.7466   -1.1567   20.9540 C.ar    1  UNL1        0.0176
      9 C           4.0625   -1.8159   21.2435 C.ar    1  UNL1        0.0517
     10 C           5.1551   -1.7927   20.2161 C.ar    1  UNL1        0.0176
     11 C           4.9318   -1.1102   18.8992 C.ar    1  UNL1        0.0360
     12 C           3.6159   -0.4510   18.6097 C.ar    1  UNL1        0.0058
     13 C           0.2160    0.3980   20.4528 C.3     1  UNL1        0.0773
     14 C           1.2074    0.1849   19.3475 C.2     1  UNL1        0.1735
     15 O           0.8829    0.6311   17.9527 O.2     1  UNL1       -0.2913
     16 C           6.0245   -1.0869   17.8717 C.2     1  UNL1        0.1735
     17 C           6.4282    0.2101   17.2355 C.3     1  UNL1        0.0773
     18 O           6.7134   -2.3606   17.4806 O.2     1  UNL1       -0.2913
     19 C           4.8024   -1.5526   26.3800 C.3     1  UNL1        0.0745
     20 C           6.1442   -1.0028   26.7640 C.3     1  UNL1        0.0214
     21 C           3.6074   -1.2882   27.2472 C.3     1  UNL1        0.0369
     22 C           3.2628    0.1175   27.6411 C.3     1  UNL1        0.0738
     23 N           1.8274    0.5490   27.7018 N.3     1  UNL1       -0.2726
     24 C           0.8485   -0.2184   28.5400 C.3     1  UNL1        0.0721
     25 C          -0.5868    0.2131   28.6007 C.3     1  UNL1        0.0174
     26 C          -1.0431    1.4119   27.8231 C.3     1  UNL1        0.0031
     27 C          -0.0642    2.1793   26.9849 C.3     1  UNL1        0.0204
     28 C           1.3711    1.7478   26.9242 C.3     1  UNL1        0.0724
     29 C          -0.5205    3.3781   26.2073 C.3     1  UNL1        0.0277
     30 C          -1.9776    3.5656   25.9047 C.ar    1  UNL1       -0.0220
     31 C          -2.8978    4.1112   26.9562 C.ar    1  UNL1       -0.0020
     32 C          -4.3549    4.2988   26.6536 C.ar    1  UNL1        0.0293
     33 C          -4.8919    3.9407   25.2995 C.ar    1  UNL1        0.1401
     34 F          -6.3491    4.1283   24.9970 F       1  UNL1       -0.2042
     35 C          -3.9717    3.3951   24.2481 C.ar    1  UNL1        0.0293
     36 C          -2.5145    3.2076   24.5507 C.ar    1  UNL1       -0.0020
@<TRIPOS>BOND
     1    13    14    1
     2    14    15    2
     3    14     7    1
     4     7     8   ar
     5     8     9   ar
     6     9     1    1
     7     1     2   am
     8     2     3    2
     9     2     4   am
    10     4    19    1
    11    19    20    1
    12    19    21    1
    13    21    22    1
    14    22    23    1
    15    23    24    1
    16    24    25    1
    17    25    26    1
    18    26    27    1
    19    27    29    1
    20    29    30    1
    21    30    31   ar
    22    31    32   ar
    23    32    33   ar
    24    33    34    1
    25    33    35   ar
    26    35    36   ar
    27    27    28    1
    28     9    10   ar
    29    10    11   ar
    30    11    16    1
    31    16    17    1
    32    16    18    2
    33    11    12   ar
    34    12     7   ar
    35    28    23    1
    36    36    30   ar
    37     1     5    1
    38     4     6    1
@<TRIPOS>MOLECULE
*****
 36 38 0 0 0
SMALL
GASTEIGER

@<TRIPOS>ATOM
      1 N           4.9792   -0.1997   23.2986 N.am    1  UNL1       -0.2683
      2 C           5.2287   -1.0217   24.5282 C.2     1  UNL1        0.3044
      3 O           4.7194   -2.4305   24.6046 O.2     1  UNL1       -0.2525
      4 N           5.9874   -0.4349   25.6815 N.am    1  UNL1       -0.2903
      5 H           5.3134    0.7250   23.2484 H       1  UNL1        0.1564
      6 H           6.3216    0.4898   25.6313 H       1  UNL1        0.1509
      7 C           2.3008   -0.6292   20.4017 C.ar    1  UNL1        0.0360
      8 C           3.0595   -0.0424   21.5549 C.ar    1  UNL1        0.0176
      9 C           4.2204   -0.7865   22.1453 C.ar    1  UNL1        0.0517
     10 C           4.6226   -2.1175   21.5825 C.ar    1  UNL1        0.0176
     11 C           3.8638   -2.7043   20.4293 C.ar    1  UNL1        0.0360
     12 C           2.7029   -1.9602   19.8389 C.ar    1  UNL1        0.0058
     13 C           1.2412    0.6878   18.4288 C.3     1  UNL1        0.0773
     14 C           1.1399    0.1149   19.8113 C.2     1  UNL1        0.1735
     15 O          -0.1223    0.2862   20.6035 O.2     1  UNL1       -0.2913
     16 C           4.2659   -4.0353   19.8665 C.2     1  UNL1        0.1735
     17 C           3.3088   -4.8060   19.0063 C.3     1  UNL1        0.0773
     18 O           5.6252   -4.5956   20.1638 O.2     1  UNL1       -0.2913
     19 C           6.2369   -1.2569   26.9111 C.3     1  UNL1        0.0745
     20 C           5.1576   -1.4119   27.9413 C.3     1  UNL1        0.0214
     21 C           7.5655   -1.9238   27.1106 C.3     1  UNL1        0.0369
     22 C           8.6418   -1.7758   26.0763 C.3     1  UNL1        0.0738
     23 N           8.4715   -2.3983   24.7222 N.3     1  UNL1       -0.2726
     24 C           7.9988   -3.8168   24.6030 C.3     1  UNL1        0.0721
     25 C           7.8285   -4.4392   23.2489 C.3     1  UNL1        0.0174
     26 C           8.1309   -3.6431   22.0141 C.3     1  UNL1        0.0031
     27 C           8.6036   -2.2246   22.1334 C.3     1  UNL1        0.0204
     28 C           8.7739   -1.6022   23.4874 C.3     1  UNL1        0.0724
     29 C           8.9061   -1.4285   20.8985 C.3     1  UNL1        0.0277
     30 C           7.8039   -1.0781   19.9434 C.ar    1  UNL1       -0.0220
     31 C           7.0401    0.2013   20.1164 C.ar    1  UNL1       -0.0020
     32 C           5.9378    0.5517   19.1613 C.ar    1  UNL1        0.0293
     33 C           5.5994   -0.3772   18.0332 C.ar    1  UNL1        0.1401
     34 F           4.4971   -0.0267   17.0781 F       1  UNL1       -0.2042
     35 C           6.3631   -1.6565   17.8602 C.ar    1  UNL1        0.0293
     36 C           7.4654   -2.0070   18.8154 C.ar    1  UNL1       -0.0020
@<TRIPOS>BOND
     1    13    14    1
     2    14    15    2
     3    14     7    1
     4     7     8   ar
     5     8     9   ar
     6     9     1    1
     7     1     2   am
     8     2     3    2
     9     2     4   am
    10     4    19    1
    11    19    20    1
    12    19    21    1
    13    21    22    1
    14    22    23    1
    15    23    24    1
    16    24    25    1
    17    25    26    1
    18    26    27    1
    19    27    29    1
    20    29    30    1
    21    30    31   ar
    22    31    32   ar
    23    32    33   ar
    24    33    34    1
    25    33    35   ar
    26    35    36   ar
    27    27    28    1
    28     9    10   ar
    29    10    11   ar
    30    11    16    1
    31    16    17    1
    32    16    18    2
    33    11    12   ar
    34    12     7   ar
    35    28    23    1
    36    36    30   ar
    37     1     5    1
    38     4     6    1
@<TRIPOS>MOLECULE
*****
 36 38 0 0 0
SMALL
GASTEIGER

@<TRIPOS>ATOM
      1 N           1.2626    0.5273   18.1620 N.am    1  UNL1       -0.2683
      2 C           0.9449    1.9746   18.3951 C.2     1  UNL1        0.3044
      3 O           1.8643    2.8200   19.2259 O.2     1  UNL1       -0.2525
      4 N          -0.2922    2.5766   17.7976 N.am    1  UNL1       -0.2903
      5 H           0.6591   -0.0275   17.6168 H       1  UNL1        0.1564
      6 H          -0.8957    2.0218   17.2523 H       1  UNL1        0.1509
      7 C           4.9910   -0.7788   18.5406 C.ar    1  UNL1        0.0360
      8 C           3.7538   -0.1769   17.9431 C.ar    1  UNL1        0.0176
      9 C           2.4998   -0.0747   18.7597 C.ar    1  UNL1        0.0517
     10 C           2.4828   -0.5744   20.1738 C.ar    1  UNL1        0.0176
     11 C           3.7199   -1.1764   20.7714 C.ar    1  UNL1        0.0360
     12 C           4.9740   -1.2786   19.9548 C.ar    1  UNL1        0.0058
     13 C           6.8979    0.3609   17.1936 C.3     1  UNL1        0.0773
     14 C           6.2450   -0.8810   17.7240 C.2     1  UNL1        0.1735
     15 O           6.8463   -2.2251   17.4379 O.2     1  UNL1       -0.2913
     16 C           3.7030   -1.6762   22.1856 C.2     1  UNL1        0.1735
     17 C           4.4169   -2.9467   22.5406 C.3     1  UNL1        0.0773
     18 O           2.9721   -0.9055   23.2447 O.2     1  UNL1       -0.2913
     19 C          -0.6099    4.0240   18.0307 C.3     1  UNL1        0.0745
     20 C          -0.1680    5.0582   17.0381 C.3     1  UNL1        0.0214
     21 C          -1.3695    4.4371   19.2564 C.3     1  UNL1        0.0369
     22 C          -2.7320    3.8685   19.5215 C.3     1  UNL1        0.0738
     23 N          -3.2124    3.6991   20.9324 N.3     1  UNL1       -0.2726
     24 C          -4.5844    3.1537   21.1971 C.3     1  UNL1        0.0721
     25 C          -5.0648    2.9842   22.6079 C.3     1  UNL1        0.0174
     26 C          -4.1731    3.3603   23.7541 C.3     1  UNL1        0.0031
     27 C          -2.8012    3.9057   23.4894 C.3     1  UNL1        0.0204
     28 C          -2.3208    4.0751   22.0785 C.3     1  UNL1        0.0724
     29 C          -1.9095    4.2817   24.6355 C.3     1  UNL1        0.0277
     30 C          -1.2540    3.2123   25.4580 C.ar    1  UNL1       -0.0220
     31 C          -0.1265    2.4081   24.8816 C.ar    1  UNL1       -0.0020
     32 C           0.5290    1.3386   25.7041 C.ar    1  UNL1        0.0293
     33 C           0.0570    1.0733   27.1030 C.ar    1  UNL1        0.1401
     34 F           0.7126    0.0037   27.9255 F       1  UNL1       -0.2042
     35 C          -1.0704    1.8774   27.6794 C.ar    1  UNL1        0.0293
     36 C          -1.7259    2.9469   26.8569 C.ar    1  UNL1       -0.0020
@<TRIPOS>BOND
     1    13    14    1
     2    14    15    2
     3    14     7    1
     4     7     8   ar
     5     8     9   ar
     6     9     1    1
     7     1     2   am
     8     2     3    2
     9     2     4   am
    10     4    19    1
    11    19    20    1
    12    19    21    1
    13    21    22    1
    14    22    23    1
    15    23    24    1
    16    24    25    1
    17    25    26    1
    18    26    27    1
    19    27    29    1
    20    29    30    1
    21    30    31   ar
    22    31    32   ar
    23    32    33   ar
    24    33    34    1
    25    33    35   ar
    26    35    36   ar
    27    27    28    1
    28     9    10   ar
    29    10    11   ar
    30    11    16    1
    31    16    17    1
    32    16    18    2
    33    11    12   ar
    34    12     7   ar
    35    28    23    1
    36    36    30   ar
    37     1     5    1
    38     4     6    1
@<TRIPOS>MOLECULE
*****
 36 38 0 0 0
SMALL
GASTEIGER

@<TRIPOS>ATOM
      1 N           4.9225   -0.6433   23.2083 N.am    1  UNL1       -0.2683
      2 C           5.3583   -1.7328   24.1426 C.2     1  UNL1        0.3044
      3 O           5.0873   -3.1678   23.7998 O.2     1  UNL1       -0.2525
      4 N           6.0650   -1.3874   25.4198 N.am    1  UNL1       -0.2903
      5 H           5.1004    0.2985   23.4333 H       1  UNL1        0.1564
      6 H           6.2429   -0.4456   25.6448 H       1  UNL1        0.1509
      7 C           4.0379   -2.4301   19.7768 C.ar    1  UNL1        0.0360
      8 C           4.7446   -2.0846   21.0540 C.ar    1  UNL1        0.0176
      9 C           4.2157   -0.9887   21.9311 C.ar    1  UNL1        0.0517
     10 C           2.9801   -0.2382   21.5310 C.ar    1  UNL1        0.0176
     11 C           2.2734   -0.5837   20.2539 C.ar    1  UNL1        0.0360
     12 C           2.8023   -1.6796   19.3768 C.ar    1  UNL1        0.0058
     13 C           4.0943   -4.9363   19.0943 C.3     1  UNL1        0.0773
     14 C           4.5667   -3.5260   18.8998 C.2     1  UNL1        0.1735
     15 O           5.5680   -3.2117   17.8281 O.2     1  UNL1       -0.2913
     16 C           1.0378    0.1668   19.8537 C.2     1  UNL1        0.1735
     17 C           1.0022    0.9142   18.5537 C.3     1  UNL1        0.0773
     18 O          -0.1623    0.1698   20.7537 O.2     1  UNL1       -0.2913
     19 C           6.5008   -2.4770   26.3541 C.3     1  UNL1        0.0745
     20 C           5.6993   -2.7726   27.5872 C.3     1  UNL1        0.0214
     21 C           7.7380   -3.2708   26.0555 C.3     1  UNL1        0.0369
     22 C           8.7614   -2.7334   25.0996 C.3     1  UNL1        0.0738
     23 N           8.5701   -2.9044   23.6217 N.3     1  UNL1       -0.2726
     24 C           8.2105   -4.2490   23.0626 C.3     1  UNL1        0.0721
     25 C           8.0192   -4.4200   21.5847 C.3     1  UNL1        0.0174
     26 C           8.1874   -3.2463   20.6660 C.3     1  UNL1        0.0031
     27 C           8.5470   -1.9017   21.2250 C.3     1  UNL1        0.0204
     28 C           8.7383   -1.7307   22.7029 C.3     1  UNL1        0.0724
     29 C           8.7152   -0.7280   20.3063 C.3     1  UNL1        0.0277
     30 C           7.5124    0.0356   19.8371 C.ar    1  UNL1       -0.0220
     31 C           6.8864   -0.2903   18.5134 C.ar    1  UNL1       -0.0020
     32 C           5.6836    0.4733   18.0442 C.ar    1  UNL1        0.0293
     33 C           5.1068    1.5629   18.8986 C.ar    1  UNL1        0.1401
     34 F           3.9039    2.3265   18.4294 F       1  UNL1       -0.2042
     35 C           5.7327    1.8889   20.2222 C.ar    1  UNL1        0.0293
     36 C           6.9355    1.1252   20.6915 C.ar    1  UNL1       -0.0020
@<TRIPOS>BOND
     1    13    14    1
     2    14    15    2
     3    14     7    1
     4     7     8   ar
     5     8     9   ar
     6     9     1    1
     7     1     2   am
     8     2     3    2
     9     2     4   am
    10     4    19    1
    11    19    20    1
    12    19    21    1
    13    21    22    1
    14    22    23    1
    15    23    24    1
    16    24    25    1
    17    25    26    1
    18    26    27    1
    19    27    29    1
    20    29    30    1
    21    30    31   ar
    22    31    32   ar
    23    32    33   ar
    24    33    34    1
    25    33    35   ar
    26    35    36   ar
    27    27    28    1
    28     9    10   ar
    29    10    11   ar
    30    11    16    1
    31    16    17    1
    32    16    18    2
    33    11    12   ar
    34    12     7   ar
    35    28    23    1
    36    36    30   ar
    37     1     5    1
    38     4     6    1
@<TRIPOS>MOLECULE
*****
 36 38 0 0 0
SMALL
GASTEIGER

@<TRIPOS>ATOM
      1 N           0.0678    1.0435   19.9900 N.am    1  UNL1       -0.2683
      2 C           0.0274    2.4514   20.5059 C.2     1  UNL1        0.3044
      3 O           1.2935    3.1264   20.9434 O.2     1  UNL1       -0.2525
      4 N          -1.2790    3.1842   20.5844 N.am    1  UNL1       -0.2903
      5 H          -0.7632    0.6004   19.7029 H       1  UNL1        0.1564
      6 H          -2.1100    2.7411   20.2973 H       1  UNL1        0.1509
      7 C           3.4567   -0.4363   18.5494 C.ar    1  UNL1        0.0360
      8 C           2.1503    0.2965   18.6279 C.ar    1  UNL1        0.0176
      9 C           1.3743    0.3106   19.9115 C.ar    1  UNL1        0.0517
     10 C           1.9047   -0.4080   21.1166 C.ar    1  UNL1        0.0176
     11 C           3.2111   -1.1408   21.0380 C.ar    1  UNL1        0.0360
     12 C           3.9871   -1.1549   19.7544 C.ar    1  UNL1        0.0058
     13 C           5.5167    0.3174   17.1572 C.3     1  UNL1        0.0773
     14 C           4.2328   -0.4504   17.2658 C.2     1  UNL1        0.1735
     15 O           3.7249   -1.2323   16.0909 O.2     1  UNL1       -0.2913
     16 C           3.7416   -1.8595   22.2431 C.2     1  UNL1        0.1735
     17 C           3.6796   -1.2077   23.5926 C.3     1  UNL1        0.0773
     18 O           4.3340   -3.2299   22.0985 O.2     1  UNL1       -0.2913
     19 C          -1.3194    4.5921   21.1004 C.3     1  UNL1        0.0745
     20 C          -1.5173    4.8488   22.5650 C.3     1  UNL1        0.0214
     21 C          -1.1619    5.7433   20.1518 C.3     1  UNL1        0.0369
     22 C          -2.2835    6.1113   19.2263 C.3     1  UNL1        0.0738
     23 N          -3.5194    5.2629   19.1710 N.3     1  UNL1       -0.2726
     24 C          -3.8025    4.4285   17.9571 C.3     1  UNL1        0.0721
     25 C          -5.0383    3.5801   17.9019 C.3     1  UNL1        0.0174
     26 C          -5.9909    3.5661   19.0605 C.3     1  UNL1        0.0031
     27 C          -5.7077    4.4006   20.2743 C.3     1  UNL1        0.0204
     28 C          -4.4719    5.2489   20.3296 C.3     1  UNL1        0.0724
     29 C          -6.6603    4.3866   21.4330 C.3     1  UNL1        0.0277
     30 C          -6.1351    4.2882   22.8345 C.ar    1  UNL1       -0.0220
     31 C          -6.6624    5.2040   23.8991 C.ar    1  UNL1       -0.0020
     32 C          -6.1372    5.1056   25.3007 C.ar    1  UNL1        0.0293
     33 C          -5.0848    4.0913   25.6378 C.ar    1  UNL1        0.1401
     34 F          -4.5596    3.9929   27.0395 F       1  UNL1       -0.2042
     35 C          -4.5575    3.1755   24.5733 C.ar    1  UNL1        0.0293
     36 C          -5.0827    3.2739   23.1716 C.ar    1  UNL1       -0.0020
@<TRIPOS>BOND
     1    13    14    1
     2    14    15    2
     3    14     7    1
     4     7     8   ar
     5     8     9   ar
     6     9     1    1
     7     1     2   am
     8     2     3    2
     9     2     4   am
    10     4    19    1
    11    19    20    1
    12    19    21    1
    13    21    22    1
    14    22    23    1
    15    23    24    1
    16    24    25    1
    17    25    26    1
    18    26    27    1
    19    27    29    1
    20    29    30    1
    21    30    31   ar
    22    31    32   ar
    23    32    33   ar
    24    33    34    1
    25    33    35   ar
    26    35    36   ar
    27    27    28    1
    28     9    10   ar
    29    10    11   ar
    30    11    16    1
    31    16    17    1
    32    16    18    2
    33    11    12   ar
    34    12     7   ar
    35    28    23    1
    36    36    30   ar
    37     1     5    1
    38     4     6    1
@<TRIPOS>MOLECULE
*****
 36 38 0 0 0
SMALL
GASTEIGER

@<TRIPOS>ATOM
      1 N           4.7936    0.2315   23.4916 N.am    1  UNL1       -0.2683
      2 C           4.7508   -0.4088   24.8474 C.2     1  UNL1        0.3044
      3 O           3.9616   -1.6670   25.0581 O.2     1  UNL1       -0.2525
      4 N           5.4971    0.2090   25.9925 N.am    1  UNL1       -0.2903
      5 H           5.3115    1.0573   23.3534 H       1  UNL1        0.1564
      6 H           6.0150    1.0348   25.8543 H       1  UNL1        0.1509
      7 C           3.6757   -2.3720   20.7128 C.ar    1  UNL1        0.0360
      8 C           4.4220   -1.7541   21.8579 C.ar    1  UNL1        0.0176
      9 C           4.0473   -0.3864   22.3465 C.ar    1  UNL1        0.0517
     10 C           2.9263    0.3635   21.6900 C.ar    1  UNL1        0.0176
     11 C           2.1800   -0.2543   20.5449 C.ar    1  UNL1        0.0360
     12 C           2.5547   -1.6221   20.0563 C.ar    1  UNL1        0.0058
     13 C           3.5470   -4.2263   18.8976 C.3     1  UNL1        0.0773
     14 C           4.0504   -3.7398   20.2242 C.2     1  UNL1        0.1735
     15 O           4.9285   -4.6211   21.0621 O.2     1  UNL1       -0.2913
     16 C           1.0589    0.4956   19.8884 C.2     1  UNL1        0.1735
     17 C           1.3009    1.2344   18.6056 C.3     1  UNL1        0.0773
     18 O          -0.3040    0.5066   20.5148 O.2     1  UNL1       -0.2913
     19 C           5.4542   -0.4313   27.3483 C.3     1  UNL1        0.0745
     20 C           4.2813   -0.1944   28.2529 C.3     1  UNL1        0.0214
     21 C           6.5843   -1.3085   27.7995 C.3     1  UNL1        0.0369
     22 C           7.7899   -1.4876   26.9252 C.3     1  UNL1        0.0738
     23 N           7.6675   -2.2139   25.6185 N.3     1  UNL1       -0.2726
     24 C           6.9509   -3.5301   25.5562 C.3     1  UNL1        0.0721
     25 C           6.8285   -4.2564   24.2495 C.3     1  UNL1        0.0174
     26 C           7.4227   -3.6664   23.0050 C.3     1  UNL1        0.0031
     27 C           8.1393   -2.3501   23.0672 C.3     1  UNL1        0.0204
     28 C           8.2617   -1.6239   24.3740 C.3     1  UNL1        0.0724
     29 C           8.7335   -1.7601   21.8227 C.3     1  UNL1        0.0277
     30 C           7.8579   -1.4625   20.6418 C.ar    1  UNL1       -0.0220
     31 C           7.2147   -0.1142   20.5057 C.ar    1  UNL1       -0.0020
     32 C           6.3391    0.1833   19.3248 C.ar    1  UNL1        0.0293
     33 C           6.1067   -0.8674   18.2797 C.ar    1  UNL1        0.1401
     34 F           5.2311   -0.5698   17.0987 F       1  UNL1       -0.2042
     35 C           6.7499   -2.2156   18.4157 C.ar    1  UNL1        0.0293
     36 C           7.6255   -2.5132   19.5968 C.ar    1  UNL1       -0.0020
@<TRIPOS>BOND
     1    13    14    1
     2    14    15    2
     3    14     7    1
     4     7     8   ar
     5     8     9   ar
     6     9     1    1
     7     1     2   am
     8     2     3    2
     9     2     4   am
    10     4    19    1
    11    19    20    1
    12    19    21    1
    13    21    22    1
    14    22    23    1
    15    23    24    1
    16    24    25    1
    17    25    26    1
    18    26    27    1
    19    27    29    1
    20    29    30    1
    21    30    31   ar
    22    31    32   ar
    23    32    33   ar
    24    33    34    1
    25    33    35   ar
    26    35    36   ar
    27    27    28    1
    28     9    10   ar
    29    10    11   ar
    30    11    16    1
    31    16    17    1
    32    16    18    2
    33    11    12   ar
    34    12     7   ar
    35    28    23    1
    36    36    30   ar
    37     1     5    1
    38     4     6    1
