@<TRIPOS>MOLECULE
*****
 37 40 0 0 0
SMALL
GASTEIGER

@<TRIPOS>ATOM
      1 C          -6.5294  -18.9150   19.9367 C.3     1  UNL1        0.0725
      2 C          -7.2123  -18.3920   21.1657 C.3     1  UNL1        0.0239
      3 C          -8.6806  -18.6254   21.3646 C.3     1  UNL1        0.0237
      4 C          -9.4661  -19.3816   20.3344 C.2     1  UNL1       -0.0441
      5 C         -10.9345  -19.6149   20.5333 C.2     1  UNL1       -0.0084
      6 C          -8.7833  -19.9045   19.1055 C.3     1  UNL1        0.0237
      7 C          -7.3149  -19.6711   18.9066 C.3     1  UNL1        0.0239
      8 C         -11.6173  -19.0920   21.7623 C.ar    1  UNL1        0.0024
      9 C         -13.0339  -18.6054   21.6835 C.ar    1  UNL1        0.0002
     10 C         -13.7168  -18.0825   22.9126 C.ar    1  UNL1        0.0031
     11 C         -12.9828  -18.0462   24.2202 C.ar    1  UNL1        0.0376
     12 C         -11.5661  -18.5328   24.2989 C.ar    1  UNL1        0.1472
     13 C         -10.8834  -19.0557   23.0699 C.ar    1  UNL1        0.0375
     14 O         -10.8322  -18.4965   25.6066 O.3     1  UNL1       -0.4361
     15 C          -9.6208  -17.6257   25.7629 C.ar    1  UNL1        0.2297
     16 C          -9.0442  -16.9219   24.5704 C.ar    1  UNL1        0.0581
     17 C          -7.8329  -16.0512   24.7267 C.ar    1  UNL1        0.0102
     18 C          -7.1983  -15.8841   26.0755 C.ar    1  UNL1        0.0907
     19 C          -7.7749  -16.5879   27.2680 C.ar    1  UNL1        0.1059
     20 N          -8.9862  -17.4586   27.1117 N.ar    1  UNL1       -0.2099
     21 C          -5.9869  -15.0133   26.2318 C.3     1  UNL1        0.4200
     22 F          -4.7756  -14.1425   26.3880 F       1  UNL1       -0.1658
     23 F          -6.3409  -14.7789   27.6704 F       1  UNL1       -0.1658
     24 F          -5.6329  -15.2476   24.7932 F       1  UNL1       -0.1658
     25 C          -4.2004  -18.2856   20.9007 C.2     1  UNL1        0.2488
     26 O          -4.8080  -18.1229   22.2624 O.2     1  UNL1       -0.2700
     27 N          -5.0611  -18.6817   19.7379 N.am    1  UNL1       -0.3024
     28 H          -4.6623  -18.7885   18.8441 H       1  UNL1        0.1497
     29 N           1.6730  -17.3524   20.1053 N.pl3   1  UNL1       -0.3274
     30 C           0.2047  -17.5857   20.3042 C.ar    1  UNL1        0.2137
     31 N          -0.3923  -18.9240   19.9838 N.ar    1  UNL1       -0.2123
     32 C          -1.8606  -19.1573   20.1827 C.ar    1  UNL1        0.1079
     33 C          -2.7320  -18.0523   20.7019 C.ar    1  UNL1        0.0917
     34 C          -2.1351  -16.7140   21.0222 C.ar    1  UNL1        0.1079
     35 N          -0.6668  -16.4807   20.8234 N.ar    1  UNL1       -0.2123
     36 H           2.2449  -18.0776   19.7645 H       1  UNL1        0.1452
     37 H           2.0648  -16.4740   20.3156 H       1  UNL1        0.1452
@<TRIPOS>BOND
     1    29    30    1
     2    30    31   ar
     3    31    32   ar
     4    32    33   ar
     5    33    25    1
     6    25    26    2
     7    25    27   am
     8    27     1    1
     9     1     2    1
    10     2     3    1
    11     3     4    1
    12     4     5    2
    13     5     8    1
    14     8     9   ar
    15     9    10   ar
    16    10    11   ar
    17    11    12   ar
    18    12    14    1
    19    14    15    1
    20    15    16   ar
    21    16    17   ar
    22    17    18   ar
    23    18    21    1
    24    21    22    1
    25    21    23    1
    26    21    24    1
    27    18    19   ar
    28    19    20   ar
    29    12    13   ar
    30     4     6    1
    31     6     7    1
    32    33    34   ar
    33    34    35   ar
    34    35    30   ar
    35     7     1    1
    36    13     8   ar
    37    20    15   ar
    38    29    36    1
    39    29    37    1
    40    27    28    1
@<TRIPOS>MOLECULE
*****
 37 40 0 0 0
SMALL
GASTEIGER

@<TRIPOS>ATOM
      1 C           0.3574    1.0582   19.9998 C.3     1  UNL1        0.0725
      2 C           0.8655   -0.2347   20.5657 C.3     1  UNL1        0.0239
      3 C           2.0991   -0.8696   19.9955 C.3     1  UNL1        0.0237
      4 C           2.8246   -0.2116   18.8593 C.2     1  UNL1       -0.0441
      5 C           4.0582   -0.8465   18.2891 C.2     1  UNL1       -0.0084
      6 C           2.3165    1.0813   18.2935 C.3     1  UNL1        0.0237
      7 C           1.0829    1.7162   18.8637 C.3     1  UNL1        0.0239
      8 C           4.5663   -2.1394   18.8551 C.ar    1  UNL1        0.0024
      9 C           3.8077   -3.4115   18.6179 C.ar    1  UNL1        0.0002
     10 C           4.3157   -4.7045   19.1838 C.ar    1  UNL1        0.0031
     11 C           5.5825   -4.7253   19.9869 C.ar    1  UNL1        0.0376
     12 C           6.3412   -3.4531   20.2240 C.ar    1  UNL1        0.1472
     13 C           5.8331   -2.1603   19.6581 C.ar    1  UNL1        0.0375
     14 O           7.6080   -3.4740   21.0270 O.3     1  UNL1       -0.4361
     15 C           7.8116   -4.5232   22.0796 C.ar    1  UNL1        0.2297
     16 C           7.2698   -4.3133   23.4625 C.ar    1  UNL1        0.0581
     17 C           7.4735   -5.3625   24.5149 C.ar    1  UNL1        0.0102
     18 C           8.2188   -6.6215   24.1845 C.ar    1  UNL1        0.0907
     19 C           8.7605   -6.8314   22.8016 C.ar    1  UNL1        0.1059
     20 N           8.5569   -5.7822   21.7491 N.ar    1  UNL1       -0.2099
     21 C           8.4224   -7.6708   25.2370 C.3     1  UNL1        0.4200
     22 F           8.6260   -8.7199   26.2895 F       1  UNL1       -0.1658
     23 F           7.3110   -7.0731   26.0479 F       1  UNL1       -0.1658
     24 F           9.5338   -8.2684   24.4262 F       1  UNL1       -0.1658
     25 C          -0.7566    2.8764   21.4840 C.2     1  UNL1        0.2488
     26 O           0.5965    3.4248   21.8278 O.2     1  UNL1       -0.2700
     27 N          -0.8762    1.6931   20.5700 N.am    1  UNL1       -0.3024
     28 H          -1.7643    1.3332   20.3443 H       1  UNL1        0.1497
     29 N          -5.6910    5.4160   23.7648 N.pl3   1  UNL1       -0.3274
     30 C          -4.4574    4.7811   23.1946 C.ar    1  UNL1        0.2137
     31 N          -3.2571    4.5586   24.0662 N.ar    1  UNL1       -0.2123
     32 C          -2.0235    3.9237   23.4960 C.ar    1  UNL1        0.1079
     33 C          -1.9902    3.5113   22.0542 C.ar    1  UNL1        0.0917
     34 C          -3.1905    3.7339   21.1826 C.ar    1  UNL1        0.1079
     35 N          -4.4241    4.3688   21.7528 N.ar    1  UNL1       -0.2123
     36 H          -5.7129    5.6867   24.7111 H       1  UNL1        0.1452
     37 H          -6.4788    5.5621   23.1927 H       1  UNL1        0.1452
@<TRIPOS>BOND
     1    29    30    1
     2    30    31   ar
     3    31    32   ar
     4    32    33   ar
     5    33    25    1
     6    25    26    2
     7    25    27   am
     8    27     1    1
     9     1     2    1
    10     2     3    1
    11     3     4    1
    12     4     5    2
    13     5     8    1
    14     8     9   ar
    15     9    10   ar
    16    10    11   ar
    17    11    12   ar
    18    12    14    1
    19    14    15    1
    20    15    16   ar
    21    16    17   ar
    22    17    18   ar
    23    18    21    1
    24    21    22    1
    25    21    23    1
    26    21    24    1
    27    18    19   ar
    28    19    20   ar
    29    12    13   ar
    30     4     6    1
    31     6     7    1
    32    33    34   ar
    33    34    35   ar
    34    35    30   ar
    35     7     1    1
    36    13     8   ar
    37    20    15   ar
    38    29    36    1
    39    29    37    1
    40    27    28    1
@<TRIPOS>MOLECULE
*****
 37 40 0 0 0
SMALL
GASTEIGER

@<TRIPOS>ATOM
      1 C           6.4431   -3.8359   26.0761 C.3     1  UNL1        0.0725
      2 C           6.2369   -2.8463   24.9678 C.3     1  UNL1        0.0239
      3 C           6.7680   -3.1361   23.5952 C.3     1  UNL1        0.0237
      4 C           7.5052   -4.4154   23.3309 C.2     1  UNL1       -0.0441
      5 C           8.0363   -4.7052   21.9583 C.2     1  UNL1       -0.0084
      6 C           7.7114   -5.4049   24.4392 C.3     1  UNL1        0.0237
      7 C           7.1803   -5.1152   25.8118 C.3     1  UNL1        0.0239
      8 C           7.8301   -3.7157   20.8500 C.ar    1  UNL1        0.0024
      9 C           8.9033   -2.7196   20.5246 C.ar    1  UNL1        0.0002
     10 C           8.6971   -1.7300   19.4162 C.ar    1  UNL1        0.0031
     11 C           7.4176   -1.7366   18.6334 C.ar    1  UNL1        0.0376
     12 C           6.3443   -2.7327   18.9589 C.ar    1  UNL1        0.1472
     13 C           6.5506   -3.7222   20.0672 C.ar    1  UNL1        0.0375
     14 O           5.0648   -2.7392   18.1761 O.3     1  UNL1       -0.4361
     15 C           3.9357   -1.8366   18.5769 C.ar    1  UNL1        0.2297
     16 C           3.1401   -2.1345   19.8131 C.ar    1  UNL1        0.0581
     17 C           2.0111   -1.2319   20.2139 C.ar    1  UNL1        0.0102
     18 C           1.6777   -0.0315   19.3785 C.ar    1  UNL1        0.0907
     19 C           2.4733    0.2663   18.1423 C.ar    1  UNL1        0.1059
     20 N           3.6024   -0.6362   17.7415 N.ar    1  UNL1       -0.2099
     21 C           0.5486    0.8711   19.7793 C.3     1  UNL1        0.4200
     22 F          -0.5804    1.7736   20.1801 F       1  UNL1       -0.1658
     23 F           0.5425    1.4735   18.4056 F       1  UNL1       -0.1658
     24 F           0.5547    0.2686   21.1529 F       1  UNL1       -0.1658
     25 C           6.8049   -2.9276   28.4832 C.2     1  UNL1        0.2488
     26 O           8.2289   -2.5989   28.1451 O.2     1  UNL1       -0.2700
     27 N           5.9121   -3.5461   27.4487 N.am    1  UNL1       -0.3024
     28 H           4.9775   -3.7618   27.6706 H       1  UNL1        0.1497
     29 N           4.6808   -1.7685   33.9736 N.pl3   1  UNL1       -0.3274
     30 C           5.2118   -2.0582   32.6010 C.ar    1  UNL1        0.2137
     31 N           4.9151   -1.1204   31.4685 N.ar    1  UNL1       -0.2123
     32 C           5.4461   -1.4102   30.0960 C.ar    1  UNL1        0.1079
     33 C           6.2739   -2.6378   29.8558 C.ar    1  UNL1        0.0917
     34 C           6.5706   -3.5756   30.9882 C.ar    1  UNL1        0.1079
     35 N           6.0396   -3.2858   32.3608 N.ar    1  UNL1       -0.2123
     36 H           4.1374   -0.9627   34.1312 H       1  UNL1        0.1452
     37 H           4.8755   -2.3840   34.7168 H       1  UNL1        0.1452
@<TRIPOS>BOND
     1    29    30    1
     2    30    31   ar
     3    31    32   ar
     4    32    33   ar
     5    33    25    1
     6    25    26    2
     7    25    27   am
     8    27     1    1
     9     1     2    1
    10     2     3    1
    11     3     4    1
    12     4     5    2
    13     5     8    1
    14     8     9   ar
    15     9    10   ar
    16    10    11   ar
    17    11    12   ar
    18    12    14    1
    19    14    15    1
    20    15    16   ar
    21    16    17   ar
    22    17    18   ar
    23    18    21    1
    24    21    22    1
    25    21    23    1
    26    21    24    1
    27    18    19   ar
    28    19    20   ar
    29    12    13   ar
    30     4     6    1
    31     6     7    1
    32    33    34   ar
    33    34    35   ar
    34    35    30   ar
    35     7     1    1
    36    13     8   ar
    37    20    15   ar
    38    29    36    1
    39    29    37    1
    40    27    28    1
@<TRIPOS>MOLECULE
*****
 37 40 0 0 0
SMALL
GASTEIGER

@<TRIPOS>ATOM
      1 C         -14.5186   -4.1193   19.1925 C.3     1  UNL1        0.0725
      2 C         -15.4628   -3.0364   18.7613 C.3     1  UNL1        0.0239
      3 C         -14.9553   -1.6417   18.5434 C.3     1  UNL1        0.0237
      4 C         -13.5035   -1.3301   18.7567 C.2     1  UNL1       -0.0441
      5 C         -12.9960    0.0645   18.5388 C.2     1  UNL1       -0.0084
      6 C         -12.5594   -2.4130   19.1878 C.3     1  UNL1        0.0237
      7 C         -13.0670   -3.8076   19.4057 C.3     1  UNL1        0.0239
      8 C         -13.9402    1.1475   18.1077 C.ar    1  UNL1        0.0024
      9 C         -14.0051    1.5557   16.6658 C.ar    1  UNL1        0.0002
     10 C         -14.9493    2.6386   16.2346 C.ar    1  UNL1        0.0031
     11 C         -15.8285    3.3133   17.2454 C.ar    1  UNL1        0.0376
     12 C         -15.7636    2.9050   18.6874 C.ar    1  UNL1        0.1472
     13 C         -14.8194    1.8222   19.1185 C.ar    1  UNL1        0.0375
     14 O         -16.6428    3.5797   19.6982 O.3     1  UNL1       -0.4361
     15 C         -16.0915    3.9509   21.0430 C.ar    1  UNL1        0.2297
     16 C         -16.8275    3.5584   22.2896 C.ar    1  UNL1        0.0581
     17 C         -16.2762    3.9295   23.6343 C.ar    1  UNL1        0.0102
     18 C         -14.9889    4.6932   23.7324 C.ar    1  UNL1        0.0907
     19 C         -14.2529    5.0857   22.4857 C.ar    1  UNL1        0.1059
     20 N         -14.8042    4.7145   21.1410 N.ar    1  UNL1       -0.2099
     21 C         -14.4376    5.0643   25.0771 C.3     1  UNL1        0.4200
     22 F         -13.8862    5.4355   26.4218 F       1  UNL1       -0.1658
     23 F         -15.7250    5.7564   25.4140 F       1  UNL1       -0.1658
     24 F         -13.1501    4.3723   24.7403 F       1  UNL1       -0.1658
     25 C         -15.1428   -6.4592   18.2516 C.2     1  UNL1        0.2488
     26 O         -14.7520   -6.0098   16.8749 O.2     1  UNL1       -0.2700
     27 N         -15.0262   -5.5139   19.4104 N.am    1  UNL1       -0.3024
     28 H         -15.2827   -5.8088   20.3139 H       1  UNL1        0.1497
     29 N         -17.1730  -12.0376   19.1231 N.pl3   1  UNL1       -0.3274
     30 C         -16.6655  -10.6430   18.9052 C.ar    1  UNL1        0.2137
     31 N         -17.4671   -9.4696   19.3853 N.ar    1  UNL1       -0.2123
     32 C         -16.9595   -8.0750   19.1674 C.ar    1  UNL1        0.1079
     33 C         -15.6504   -7.8538   18.4695 C.ar    1  UNL1        0.0917
     34 C         -14.8488   -9.0272   17.9894 C.ar    1  UNL1        0.1079
     35 N         -15.3563  -10.4218   18.2073 N.ar    1  UNL1       -0.2123
     36 H         -18.0323  -12.1828   19.5812 H       1  UNL1        0.1452
     37 H         -16.6469  -12.8077   18.8080 H       1  UNL1        0.1452
@<TRIPOS>BOND
     1    29    30    1
     2    30    31   ar
     3    31    32   ar
     4    32    33   ar
     5    33    25    1
     6    25    26    2
     7    25    27   am
     8    27     1    1
     9     1     2    1
    10     2     3    1
    11     3     4    1
    12     4     5    2
    13     5     8    1
    14     8     9   ar
    15     9    10   ar
    16    10    11   ar
    17    11    12   ar
    18    12    14    1
    19    14    15    1
    20    15    16   ar
    21    16    17   ar
    22    17    18   ar
    23    18    21    1
    24    21    22    1
    25    21    23    1
    26    21    24    1
    27    18    19   ar
    28    19    20   ar
    29    12    13   ar
    30     4     6    1
    31     6     7    1
    32    33    34   ar
    33    34    35   ar
    34    35    30   ar
    35     7     1    1
    36    13     8   ar
    37    20    15   ar
    38    29    36    1
    39    29    37    1
    40    27    28    1
@<TRIPOS>MOLECULE
*****
 37 40 0 0 0
SMALL
GASTEIGER

@<TRIPOS>ATOM
      1 C           5.8910   -2.7392   21.9119 C.3     1  UNL1        0.0725
      2 C           5.6950   -3.2175   23.3201 C.3     1  UNL1        0.0239
      3 C           6.6155   -4.2528   23.8954 C.3     1  UNL1        0.0237
      4 C           7.7319   -4.8097   23.0626 C.2     1  UNL1       -0.0441
      5 C           8.6524   -5.8449   23.6379 C.2     1  UNL1       -0.0084
      6 C           7.9278   -4.3313   21.6545 C.3     1  UNL1        0.0237
      7 C           7.0074   -3.2961   21.0792 C.3     1  UNL1        0.0239
      8 C           8.4564   -6.3233   25.0461 C.ar    1  UNL1        0.0024
      9 C           7.8063   -7.6503   25.3038 C.ar    1  UNL1        0.0002
     10 C           7.6104   -8.1286   26.7119 C.ar    1  UNL1        0.0031
     11 C           8.0645   -7.2799   27.8623 C.ar    1  UNL1        0.0376
     12 C           8.7146   -5.9529   27.6046 C.ar    1  UNL1        0.1472
     13 C           8.9106   -5.4746   26.1965 C.ar    1  UNL1        0.0375
     14 O           9.1688   -5.1042   28.7550 O.3     1  UNL1       -0.4361
     15 C           8.1588   -4.4019   29.6135 C.ar    1  UNL1        0.2297
     16 C           7.8574   -4.9160   30.9900 C.ar    1  UNL1        0.0581
     17 C           6.8476   -4.2137   31.8484 C.ar    1  UNL1        0.0102
     18 C           6.1391   -2.9973   31.3303 C.ar    1  UNL1        0.0907
     19 C           6.4405   -2.4832   29.9538 C.ar    1  UNL1        0.1059
     20 N           7.4503   -3.1855   29.0954 N.ar    1  UNL1       -0.2099
     21 C           5.1292   -2.2950   32.1888 C.3     1  UNL1        0.4200
     22 F           4.1193   -1.5927   33.0472 F       1  UNL1       -0.1658
     23 F           5.2165   -3.4019   33.1972 F       1  UNL1       -0.1658
     24 F           5.0418   -1.1881   31.1803 F       1  UNL1       -0.1658
     25 C           3.9060   -2.1067   20.3597 C.2     1  UNL1        0.2488
     26 O           3.7618   -3.5447   19.9581 O.2     1  UNL1       -0.2700
     27 N           4.9705   -1.7039   21.3366 N.am    1  UNL1       -0.3024
     28 H           5.0651   -0.7601   21.6002 H       1  UNL1        0.1497
     29 N           0.2241    2.0343   18.0583 N.pl3   1  UNL1       -0.3274
     30 C           1.1446    0.9991   18.6337 C.ar    1  UNL1        0.2137
     31 N           0.6947    0.1541   19.7884 N.ar    1  UNL1       -0.2123
     32 C           1.6151   -0.8812   20.3638 C.ar    1  UNL1        0.1079
     33 C           2.9855   -1.0714   19.7843 C.ar    1  UNL1        0.0917
     34 C           3.4354   -0.2265   18.6296 C.ar    1  UNL1        0.1079
     35 N           2.5150    0.8088   18.0542 N.ar    1  UNL1       -0.2123
     36 H          -0.6753    2.1592   18.4387 H       1  UNL1        0.1452
     37 H           0.5194    2.5889   17.3004 H       1  UNL1        0.1452
@<TRIPOS>BOND
     1    29    30    1
     2    30    31   ar
     3    31    32   ar
     4    32    33   ar
     5    33    25    1
     6    25    26    2
     7    25    27   am
     8    27     1    1
     9     1     2    1
    10     2     3    1
    11     3     4    1
    12     4     5    2
    13     5     8    1
    14     8     9   ar
    15     9    10   ar
    16    10    11   ar
    17    11    12   ar
    18    12    14    1
    19    14    15    1
    20    15    16   ar
    21    16    17   ar
    22    17    18   ar
    23    18    21    1
    24    21    22    1
    25    21    23    1
    26    21    24    1
    27    18    19   ar
    28    19    20   ar
    29    12    13   ar
    30     4     6    1
    31     6     7    1
    32    33    34   ar
    33    34    35   ar
    34    35    30   ar
    35     7     1    1
    36    13     8   ar
    37    20    15   ar
    38    29    36    1
    39    29    37    1
    40    27    28    1
@<TRIPOS>MOLECULE
*****
 37 40 0 0 0
SMALL
GASTEIGER

@<TRIPOS>ATOM
      1 C           6.2353   -2.6416   26.5045 C.3     1  UNL1        0.0725
      2 C           6.2227   -1.8522   25.2291 C.3     1  UNL1        0.0239
      3 C           6.6673   -2.4914   23.9470 C.3     1  UNL1        0.0237
      4 C           7.1245   -3.9201   23.9404 C.2     1  UNL1       -0.0441
      5 C           7.5691   -4.5593   22.6583 C.2     1  UNL1       -0.0084
      6 C           7.1370   -4.7094   25.2158 C.3     1  UNL1        0.0237
      7 C           6.6924   -4.0702   26.4979 C.3     1  UNL1        0.0239
      8 C           7.5565   -3.7699   21.3829 C.ar    1  UNL1        0.0024
      9 C           8.7720   -2.9948   20.9686 C.ar    1  UNL1        0.0002
     10 C           8.7595   -2.2054   19.6931 C.ar    1  UNL1        0.0031
     11 C           7.5313   -2.1911   18.8320 C.ar    1  UNL1        0.0376
     12 C           6.3158   -2.9663   19.2464 C.ar    1  UNL1        0.1472
     13 C           6.3284   -3.7557   20.5218 C.ar    1  UNL1        0.0375
     14 O           5.0877   -2.9520   18.3853 O.3     1  UNL1       -0.4361
     15 C           4.0005   -1.9518   18.6458 C.ar    1  UNL1        0.2297
     16 C           3.1083   -2.1083   19.8414 C.ar    1  UNL1        0.0581
     17 C           2.0213   -1.1081   20.1019 C.ar    1  UNL1        0.0102
     18 C           1.8265    0.0485   19.1669 C.ar    1  UNL1        0.0907
     19 C           2.7187    0.2050   17.9713 C.ar    1  UNL1        0.1059
     20 N           3.8057   -0.7952   17.7108 N.ar    1  UNL1       -0.2099
     21 C           0.7393    1.0488   19.4274 C.3     1  UNL1        0.4200
     22 F          -0.3477    2.0489   19.6880 F       1  UNL1       -0.1658
     23 F           1.4336    2.0356   18.5363 F       1  UNL1       -0.1658
     24 F           0.0451    0.0620   20.3186 F       1  UNL1       -0.1658
     25 C           4.4019   -1.4482   27.9062 C.2     1  UNL1        0.2488
     26 O           3.4578   -1.5334   26.7437 O.2     1  UNL1       -0.2700
     27 N           5.7907   -2.0023   27.7866 N.am    1  UNL1       -0.3024
     28 H           6.4103   -1.9465   28.5496 H       1  UNL1        0.1497
     29 N           2.6235    1.1088   33.0344 N.pl3   1  UNL1       -0.3274
     30 C           3.0681    0.4695   31.7524 C.ar    1  UNL1        0.2137
     31 N           4.5269    0.2264   31.5020 N.ar    1  UNL1       -0.2123
     32 C           4.9715   -0.4129   30.2200 C.ar    1  UNL1        0.1079
     33 C           3.9573   -0.8090   29.1883 C.ar    1  UNL1        0.0917
     34 C           2.4985   -0.5658   29.4386 C.ar    1  UNL1        0.1079
     35 N           2.0539    0.0735   30.7207 N.ar    1  UNL1       -0.2123
     36 H           3.2892    1.3687   33.7116 H       1  UNL1        0.1452
     37 H           1.6660    1.2684   33.1987 H       1  UNL1        0.1452
@<TRIPOS>BOND
     1    29    30    1
     2    30    31   ar
     3    31    32   ar
     4    32    33   ar
     5    33    25    1
     6    25    26    2
     7    25    27   am
     8    27     1    1
     9     1     2    1
    10     2     3    1
    11     3     4    1
    12     4     5    2
    13     5     8    1
    14     8     9   ar
    15     9    10   ar
    16    10    11   ar
    17    11    12   ar
    18    12    14    1
    19    14    15    1
    20    15    16   ar
    21    16    17   ar
    22    17    18   ar
    23    18    21    1
    24    21    22    1
    25    21    23    1
    26    21    24    1
    27    18    19   ar
    28    19    20   ar
    29    12    13   ar
    30     4     6    1
    31     6     7    1
    32    33    34   ar
    33    34    35   ar
    34    35    30   ar
    35     7     1    1
    36    13     8   ar
    37    20    15   ar
    38    29    36    1
    39    29    37    1
    40    27    28    1
@<TRIPOS>MOLECULE
*****
 37 40 0 0 0
SMALL
GASTEIGER

@<TRIPOS>ATOM
      1 C           0.8590    1.1891   27.3721 C.3     1  UNL1        0.0725
      2 C           1.6468    1.4014   26.1134 C.3     1  UNL1        0.0239
      3 C           1.0062    2.0652   24.9306 C.3     1  UNL1        0.0237
      4 C          -0.4223    2.5166   25.0065 C.2     1  UNL1       -0.0441
      5 C          -1.0630    3.1803   23.8237 C.2     1  UNL1       -0.0084
      6 C          -1.2101    2.3042   26.2651 C.3     1  UNL1        0.0237
      7 C          -0.5695    1.6404   27.4479 C.3     1  UNL1        0.0239
      8 C          -0.2751    3.3927   22.5650 C.ar    1  UNL1        0.0024
      9 C           0.5604    4.6278   22.4026 C.ar    1  UNL1        0.0002
     10 C           1.3483    4.8402   21.1439 C.ar    1  UNL1        0.0031
     11 C           1.3006    3.8174   20.0477 C.ar    1  UNL1        0.0376
     12 C           0.4650    2.5823   20.2101 C.ar    1  UNL1        0.1472
     13 C          -0.3228    2.3700   21.4688 C.ar    1  UNL1        0.0375
     14 O           0.4173    1.5595   19.1139 O.3     1  UNL1       -0.4361
     15 C           1.4602    0.4835   19.0462 C.ar    1  UNL1        0.2297
     16 C           1.4823   -0.6055   20.0774 C.ar    1  UNL1        0.0581
     17 C           2.5252   -1.6815   20.0097 C.ar    1  UNL1        0.0102
     18 C           3.5460   -1.6684   18.9107 C.ar    1  UNL1        0.0907
     19 C           3.5240   -0.5794   17.8795 C.ar    1  UNL1        0.1059
     20 N           2.4811    0.4966   17.9472 N.ar    1  UNL1       -0.2099
     21 C           4.5890   -2.7445   18.8430 C.3     1  UNL1        0.4200
     22 F           5.6318   -3.8205   18.7753 F       1  UNL1       -0.1658
     23 F           5.6380   -1.7100   18.5612 F       1  UNL1       -0.1658
     24 F           3.5400   -3.7789   19.1249 F       1  UNL1       -0.1658
     25 C           1.9206    1.3453   29.7382 C.2     1  UNL1        0.2488
     26 O           1.7009    2.8291   29.7387 O.2     1  UNL1       -0.2700
     27 N           1.4996    0.5253   28.5548 N.am    1  UNL1       -0.3024
     28 H           1.6438   -0.4486   28.5545 H       1  UNL1        0.1497
     29 N           4.4832   -1.3097   34.4693 N.pl3   1  UNL1       -0.3274
     30 C           3.8425   -0.6460   33.2865 C.ar    1  UNL1        0.2137
     31 N           3.5560   -1.4386   32.0458 N.ar    1  UNL1       -0.2123
     32 C           2.9153   -0.7749   30.8630 C.ar    1  UNL1        0.1079
     33 C           2.5612    0.6816   30.9210 C.ar    1  UNL1        0.0917
     34 C           2.8478    1.4742   32.1617 C.ar    1  UNL1        0.1079
     35 N           3.4884    0.8104   33.3445 N.ar    1  UNL1       -0.2123
     36 H           4.7156   -2.2656   34.4313 H       1  UNL1        0.1452
     37 H           4.6712   -0.7895   35.2837 H       1  UNL1        0.1452
@<TRIPOS>BOND
     1    29    30    1
     2    30    31   ar
     3    31    32   ar
     4    32    33   ar
     5    33    25    1
     6    25    26    2
     7    25    27   am
     8    27     1    1
     9     1     2    1
    10     2     3    1
    11     3     4    1
    12     4     5    2
    13     5     8    1
    14     8     9   ar
    15     9    10   ar
    16    10    11   ar
    17    11    12   ar
    18    12    14    1
    19    14    15    1
    20    15    16   ar
    21    16    17   ar
    22    17    18   ar
    23    18    21    1
    24    21    22    1
    25    21    23    1
    26    21    24    1
    27    18    19   ar
    28    19    20   ar
    29    12    13   ar
    30     4     6    1
    31     6     7    1
    32    33    34   ar
    33    34    35   ar
    34    35    30   ar
    35     7     1    1
    36    13     8   ar
    37    20    15   ar
    38    29    36    1
    39    29    37    1
    40    27    28    1
@<TRIPOS>MOLECULE
*****
 37 40 0 0 0
SMALL
GASTEIGER

@<TRIPOS>ATOM
      1 C         -14.7513   -1.6393   18.8978 C.3     1  UNL1        0.0725
      2 C         -15.5695   -1.2516   20.0938 C.3     1  UNL1        0.0239
      3 C         -16.2995    0.0587   20.1103 C.3     1  UNL1        0.0237
      4 C         -16.2112    0.9813   18.9308 C.2     1  UNL1       -0.0441
      5 C         -16.9412    2.2916   18.9473 C.2     1  UNL1       -0.0084
      6 C         -15.3931    0.5936   17.7349 C.3     1  UNL1        0.0237
      7 C         -14.6631   -0.7167   17.7184 C.3     1  UNL1        0.0239
      8 C         -17.7594    2.6793   20.1433 C.ar    1  UNL1        0.0024
      9 C         -19.0898    2.0298   20.3843 C.ar    1  UNL1        0.0002
     10 C         -19.9080    2.4175   21.5803 C.ar    1  UNL1        0.0031
     11 C         -19.3957    3.4547   22.5352 C.ar    1  UNL1        0.0376
     12 C         -18.0652    4.1041   22.2942 C.ar    1  UNL1        0.1472
     13 C         -17.2471    3.7164   21.0982 C.ar    1  UNL1        0.0375
     14 O         -17.5529    5.1413   23.2491 O.3     1  UNL1       -0.4361
     15 C         -16.1007    5.1633   23.6242 C.ar    1  UNL1        0.2297
     16 C         -15.6339    4.4499   24.8583 C.ar    1  UNL1        0.0581
     17 C         -14.1818    4.4719   25.2333 C.ar    1  UNL1        0.0102
     18 C         -13.1964    5.2074   24.3742 C.ar    1  UNL1        0.0907
     19 C         -13.6631    5.9209   23.1401 C.ar    1  UNL1        0.1059
     20 N         -15.1153    5.8988   22.7651 N.ar    1  UNL1       -0.2099
     21 C         -11.7441    5.2295   24.7493 C.3     1  UNL1        0.4200
     22 F         -10.2920    5.2516   25.1243 F       1  UNL1       -0.1658
     23 F         -11.6966    3.7333   24.6533 F       1  UNL1       -0.1658
     24 F         -11.7917    6.7256   24.8452 F       1  UNL1       -0.1658
     25 C         -12.5298   -2.9792   19.0375 C.2     1  UNL1        0.2488
     26 O         -11.7683   -1.6986   19.2102 O.2     1  UNL1       -0.2700
     27 N         -14.0213   -2.9496   18.8812 N.am    1  UNL1       -0.3024
     28 H         -14.5212   -3.7902   18.7679 H       1  UNL1        0.1497
     29 N          -9.6100   -8.2204   18.9714 N.pl3   1  UNL1       -0.3274
     30 C         -10.3399   -6.9101   18.9879 C.ar    1  UNL1        0.2137
     31 N         -11.8396   -6.8872   19.0044 N.ar    1  UNL1       -0.2123
     32 C         -12.5696   -5.5769   19.0209 C.ar    1  UNL1        0.1079
     33 C         -11.7999   -4.2895   19.0210 C.ar    1  UNL1        0.0917
     34 C         -10.3002   -4.3124   19.0045 C.ar    1  UNL1        0.1079
     35 N          -9.5702   -5.6227   18.9880 N.ar    1  UNL1       -0.2123
     36 H         -10.1152   -9.0654   18.9714 H       1  UNL1        0.1452
     37 H          -8.6256   -8.2354   18.9606 H       1  UNL1        0.1452
@<TRIPOS>BOND
     1    29    30    1
     2    30    31   ar
     3    31    32   ar
     4    32    33   ar
     5    33    25    1
     6    25    26    2
     7    25    27   am
     8    27     1    1
     9     1     2    1
    10     2     3    1
    11     3     4    1
    12     4     5    2
    13     5     8    1
    14     8     9   ar
    15     9    10   ar
    16    10    11   ar
    17    11    12   ar
    18    12    14    1
    19    14    15    1
    20    15    16   ar
    21    16    17   ar
    22    17    18   ar
    23    18    21    1
    24    21    22    1
    25    21    23    1
    26    21    24    1
    27    18    19   ar
    28    19    20   ar
    29    12    13   ar
    30     4     6    1
    31     6     7    1
    32    33    34   ar
    33    34    35   ar
    34    35    30   ar
    35     7     1    1
    36    13     8   ar
    37    20    15   ar
    38    29    36    1
    39    29    37    1
    40    27    28    1
@<TRIPOS>MOLECULE
*****
 37 40 0 0 0
SMALL
GASTEIGER

@<TRIPOS>ATOM
      1 C          -2.6830    4.7721   21.8792 C.3     1  UNL1        0.0725
      2 C          -1.3028    4.1964   21.9962 C.3     1  UNL1        0.0239
      3 C          -0.5922    3.6973   20.7731 C.3     1  UNL1        0.0237
      4 C          -1.2619    3.7739   19.4330 C.2     1  UNL1       -0.0441
      5 C          -0.5513    3.2747   18.2099 C.2     1  UNL1       -0.0084
      6 C          -2.6420    4.3495   19.3161 C.3     1  UNL1        0.0237
      7 C          -3.3526    4.8486   20.5392 C.3     1  UNL1        0.0239
      8 C           0.8289    2.6991   18.3269 C.ar    1  UNL1        0.0024
      9 C           2.0191    3.6102   18.3852 C.ar    1  UNL1        0.0002
     10 C           3.3993    3.0345   18.5022 C.ar    1  UNL1        0.0031
     11 C           3.5893    1.5477   18.5609 C.ar    1  UNL1        0.0376
     12 C           2.3991    0.6366   18.5026 C.ar    1  UNL1        0.1472
     13 C           1.0190    1.2123   18.3856 C.ar    1  UNL1        0.0375
     14 O           2.5891   -0.8501   18.5613 O.3     1  UNL1       -0.4361
     15 C           3.2373   -1.4766   19.7602 C.ar    1  UNL1        0.2297
     16 C           2.9339   -0.9570   21.1342 C.ar    1  UNL1        0.0581
     17 C           3.5821   -1.5835   22.3330 C.ar    1  UNL1        0.0102
     18 C           4.5338   -2.7296   22.1579 C.ar    1  UNL1        0.0907
     19 C           4.8372   -3.2493   20.7839 C.ar    1  UNL1        0.1059
     20 N           4.1890   -2.6228   19.5851 N.ar    1  UNL1       -0.2099
     21 C           5.1820   -3.3562   23.3568 C.3     1  UNL1        0.4200
     22 F           5.8302   -3.9827   24.5556 F       1  UNL1       -0.1658
     23 F           4.3328   -2.5099   24.2582 F       1  UNL1       -0.1658
     24 F           6.0312   -4.2024   22.4554 F       1  UNL1       -0.1658
     25 C          -4.3269    4.3654   23.8495 C.2     1  UNL1        0.2488
     26 O          -4.5497    2.9604   23.3736 O.2     1  UNL1       -0.2700
     27 N          -3.3936    5.2712   23.1023 N.am    1  UNL1       -0.3024
     28 H          -3.2474    6.1933   23.4147 H       1  UNL1        0.1497
     29 N          -7.1692    6.3618   28.7419 N.pl3   1  UNL1       -0.3274
     30 C          -6.4587    5.8627   27.5188 C.ar    1  UNL1        0.2137
     31 N          -7.0611    6.0762   26.1619 N.ar    1  UNL1       -0.2123
     32 C          -6.3506    5.5771   24.9388 C.ar    1  UNL1        0.1079
     33 C          -5.0375    4.8645   25.0726 C.ar    1  UNL1        0.0917
     34 C          -4.4350    4.6509   26.4296 C.ar    1  UNL1        0.1079
     35 N          -5.1456    5.1500   27.6527 N.ar    1  UNL1       -0.2123
     36 H          -8.0311    6.8295   28.6541 H       1  UNL1        0.1452
     37 H          -6.7738    6.2216   29.6325 H       1  UNL1        0.1452
@<TRIPOS>BOND
     1    29    30    1
     2    30    31   ar
     3    31    32   ar
     4    32    33   ar
     5    33    25    1
     6    25    26    2
     7    25    27   am
     8    27     1    1
     9     1     2    1
    10     2     3    1
    11     3     4    1
    12     4     5    2
    13     5     8    1
    14     8     9   ar
    15     9    10   ar
    16    10    11   ar
    17    11    12   ar
    18    12    14    1
    19    14    15    1
    20    15    16   ar
    21    16    17   ar
    22    17    18   ar
    23    18    21    1
    24    21    22    1
    25    21    23    1
    26    21    24    1
    27    18    19   ar
    28    19    20   ar
    29    12    13   ar
    30     4     6    1
    31     6     7    1
    32    33    34   ar
    33    34    35   ar
    34    35    30   ar
    35     7     1    1
    36    13     8   ar
    37    20    15   ar
    38    29    36    1
    39    29    37    1
    40    27    28    1
