@<TRIPOS>MOLECULE
*****
 38 41 0 0 0
SMALL
GASTEIGER

@<TRIPOS>ATOM
      1 N           6.5238   -3.9091   26.7793 N.3     1  UNL1       -0.2711
      2 C           6.8583   -4.9773   25.7807 C.3     1  UNL1        0.0933
      3 C           6.5511   -4.0273   24.6614 C.3     1  UNL1        0.1035
      4 C           6.2167   -2.9591   25.6599 C.3     1  UNL1        0.0933
      5 N           6.6700   -4.5317   32.4742 N.3     1  UNL1       -0.3200
      6 C           6.4659   -3.6583   31.2718 C.3     1  UNL1        0.0582
      7 C           6.1805   -2.4372   30.4488 C.3     1  UNL1        0.0198
      8 C           6.1998   -2.5208   28.9513 C.3     1  UNL1        0.0176
      9 C           6.5045   -3.8255   28.2768 C.3     1  UNL1        0.0577
     10 C           6.7899   -5.0466   29.0998 C.3     1  UNL1        0.0176
     11 C           6.7705   -4.9630   30.5974 C.3     1  UNL1        0.0198
     12 H           6.5411   -3.9790   33.3217 H       1  UNL1        0.1191
     13 H           7.6149   -4.9155   32.4591 H       1  UNL1        0.1191
     14 C           6.2321   -2.6569   32.3639 C.ar    1  UNL1       -0.0098
     15 C           7.3364   -1.7320   32.7824 C.ar    1  UNL1       -0.0030
     16 C           7.1026   -0.7307   33.8744 C.ar    1  UNL1       -0.0003
     17 C           5.7645   -0.6542   34.5480 C.ar    1  UNL1       -0.0000
     18 C           4.6602   -1.5790   34.1296 C.ar    1  UNL1       -0.0003
     19 C           4.8940   -2.5804   33.0375 C.ar    1  UNL1       -0.0030
     20 N           6.5704   -4.1108   23.1639 N.am    1  UNL1       -0.3018
     21 C           7.8378   -3.8278   22.4132 C.2     1  UNL1        0.2426
     22 O           9.0859   -3.4611   23.1599 O.2     1  UNL1       -0.2733
     23 H           5.7513   -4.3515   22.6737 H       1  UNL1        0.1495
     24 C           7.8571   -3.9114   20.9155 C.3     1  UNL1        0.1759
     25 N           7.0349   -2.9577   20.1005 N.am    1  UNL1       -0.2931
     26 C           5.5437   -3.1110   20.0451 C.2     1  UNL1        0.2462
     27 O           4.8749   -4.2181   20.8048 O.2     1  UNL1       -0.2701
     28 H           7.4738   -2.2311   19.6019 H       1  UNL1        0.1502
     29 C           4.7215   -2.1573   19.2301 C.ar    1  UNL1        0.0533
     30 C           5.2017   -1.7188   17.8784 C.ar    1  UNL1        0.0045
     31 C           4.3794   -0.7651   17.0634 C.ar    1  UNL1        0.0001
     32 C           3.0769   -0.2498   17.6000 C.ar    1  UNL1        0.0039
     33 C           2.5967   -0.6883   18.9518 C.ar    1  UNL1        0.0716
     34 C           3.4190   -1.6420   19.7668 C.ar    1  UNL1        0.0084
     35 C           1.2942   -0.1730   19.4885 C.3     1  UNL1        0.4186
     36 F          -0.0083    0.3422   20.0251 F       1  UNL1       -0.1659
     37 F           1.0544    0.5605   18.2022 F       1  UNL1       -0.1659
     38 F           1.5340   -0.9066   20.7747 F       1  UNL1       -0.1659
@<TRIPOS>BOND
     1     6     5    1
     2     6    14    1
     3    14    15   ar
     4    15    16   ar
     5    16    17   ar
     6    17    18   ar
     7    18    19   ar
     8     6     7    1
     9     7     8    1
    10     8     9    1
    11     9     1    1
    12     1     2    1
    13     2     3    1
    14     3    20    1
    15    20    21   am
    16    21    22    2
    17    21    24    1
    18    24    25    1
    19    25    26   am
    20    26    27    2
    21    26    29    1
    22    29    30   ar
    23    30    31   ar
    24    31    32   ar
    25    32    33   ar
    26    33    35    1
    27    35    36    1
    28    35    37    1
    29    35    38    1
    30    33    34   ar
    31     3     4    1
    32     9    10    1
    33    10    11    1
    34    11     6    1
    35    19    14   ar
    36     4     1    1
    37    34    29   ar
    38     5    12    1
    39     5    13    1
    40    20    23    1
    41    25    28    1
@<TRIPOS>MOLECULE
*****
 38 41 0 0 0
SMALL
GASTEIGER

@<TRIPOS>ATOM
      1 N           1.3036    1.2216   29.0303 N.3     1  UNL1       -0.2711
      2 C           1.4480    0.1743   27.9662 C.3     1  UNL1        0.0933
      3 C           0.7263    1.0612   26.9954 C.3     1  UNL1        0.1035
      4 C           0.5819    2.1084   28.0596 C.3     1  UNL1        0.0933
      5 N           2.1188    2.2679   34.6055 N.3     1  UNL1       -0.3200
      6 C           2.5285    1.5618   33.3470 C.3     1  UNL1        0.0582
      7 C           3.2977    0.6710   32.4172 C.3     1  UNL1        0.0198
      8 C           2.8894    0.5576   30.9783 C.3     1  UNL1        0.0176
      9 C           1.7119    1.3350   30.4693 C.3     1  UNL1        0.0577
     10 C           0.9427    2.2259   31.3991 C.3     1  UNL1        0.0176
     11 C           1.3510    2.3393   32.8380 C.3     1  UNL1        0.0198
     12 H           2.7461    2.0016   35.3644 H       1  UNL1        0.1191
     13 H           1.1630    2.0057   34.8467 H       1  UNL1        0.1191
     14 C           3.5637    1.0296   34.2932 C.ar    1  UNL1       -0.0098
     15 C           4.2298   -0.2850   34.0139 C.ar    1  UNL1       -0.0030
     16 C           5.2649   -0.8172   34.9600 C.ar    1  UNL1       -0.0003
     17 C           5.6340   -0.0348   36.1854 C.ar    1  UNL1       -0.0000
     18 C           4.9679    1.2798   36.4647 C.ar    1  UNL1       -0.0003
     19 C           3.9328    1.8120   35.5185 C.ar    1  UNL1       -0.0030
     20 N           0.3180    0.9477   25.5565 N.am    1  UNL1       -0.3018
     21 C           1.2599    1.3825   24.4732 C.2     1  UNL1        0.2426
     22 O           2.6101    1.9308   24.8286 O.2     1  UNL1       -0.2733
     23 H          -0.5681    0.5879   25.3232 H       1  UNL1        0.1495
     24 C           0.8516    1.2691   23.0342 C.3     1  UNL1        0.1759
     25 N           1.8133    0.7192   22.0229 N.am    1  UNL1       -0.2931
     26 C           1.2987    0.1101   20.7523 C.2     1  UNL1        0.2462
     27 O          -0.1776    0.0510   20.4932 O.2     1  UNL1       -0.2701
     28 H           2.7822    0.7580   22.1930 H       1  UNL1        0.1502
     29 C           2.2603   -0.4398   19.7410 C.ar    1  UNL1        0.0533
     30 C           2.6905    0.4048   18.5784 C.ar    1  UNL1        0.0045
     31 C           3.6521   -0.1452   17.5671 C.ar    1  UNL1        0.0001
     32 C           4.1836   -1.5397   17.7183 C.ar    1  UNL1        0.0039
     33 C           3.7535   -2.3843   18.8810 C.ar    1  UNL1        0.0716
     34 C           2.7918   -1.8343   19.8923 C.ar    1  UNL1        0.0084
     35 C           4.2850   -3.7787   19.0322 C.3     1  UNL1        0.4186
     36 F           4.8165   -5.1732   19.1835 F       1  UNL1       -0.1659
     37 F           2.8874   -4.3190   18.9626 F       1  UNL1       -0.1659
     38 F           5.6826   -3.2385   19.1018 F       1  UNL1       -0.1659
@<TRIPOS>BOND
     1     6     5    1
     2     6    14    1
     3    14    15   ar
     4    15    16   ar
     5    16    17   ar
     6    17    18   ar
     7    18    19   ar
     8     6     7    1
     9     7     8    1
    10     8     9    1
    11     9     1    1
    12     1     2    1
    13     2     3    1
    14     3    20    1
    15    20    21   am
    16    21    22    2
    17    21    24    1
    18    24    25    1
    19    25    26   am
    20    26    27    2
    21    26    29    1
    22    29    30   ar
    23    30    31   ar
    24    31    32   ar
    25    32    33   ar
    26    33    35    1
    27    35    36    1
    28    35    37    1
    29    35    38    1
    30    33    34   ar
    31     3     4    1
    32     9    10    1
    33    10    11    1
    34    11     6    1
    35    19    14   ar
    36     4     1    1
    37    34    29   ar
    38     5    12    1
    39     5    13    1
    40    20    23    1
    41    25    28    1
@<TRIPOS>MOLECULE
*****
 38 41 0 0 0
SMALL
GASTEIGER

@<TRIPOS>ATOM
      1 N           0.6254    2.3397   26.9482 N.3     1  UNL1       -0.2711
      2 C           1.6326    2.4216   25.8396 C.3     1  UNL1        0.0933
      3 C           0.5462    2.1780   24.8345 C.3     1  UNL1        0.1035
      4 C          -0.4610    2.0960   25.9431 C.3     1  UNL1        0.0933
      5 N           0.9524    1.8157   32.6456 N.3     1  UNL1       -0.3200
      6 C           0.7936    2.6829   31.4319 C.3     1  UNL1        0.0582
      7 C           0.6095    3.9119   30.5921 C.3     1  UNL1        0.0198
      8 C           0.5534    3.7976   29.0975 C.3     1  UNL1        0.0176
      9 C           0.6815    2.4541   28.4428 C.3     1  UNL1        0.0577
     10 C           0.8656    1.2250   29.2826 C.3     1  UNL1        0.0176
     11 C           0.9216    1.3393   30.7772 C.3     1  UNL1        0.0198
     12 H           0.9229    2.3958   33.4841 H       1  UNL1        0.1191
     13 H           1.8473    1.3284   32.6005 H       1  UNL1        0.1191
     14 C           0.7207    3.7252   32.5082 C.ar    1  UNL1       -0.0098
     15 C           1.7460    3.7461   33.6027 C.ar    1  UNL1       -0.0030
     16 C           1.6731    4.7885   34.6789 C.ar    1  UNL1       -0.0003
     17 C           0.5747    5.8099   34.6605 C.ar    1  UNL1       -0.0000
     18 C          -0.4506    5.7890   33.5660 C.ar    1  UNL1       -0.0003
     19 C          -0.3777    4.7467   32.4898 C.ar    1  UNL1       -0.0030
     20 N           0.4901    2.0636   23.3400 N.am    1  UNL1       -0.3018
     21 C           0.2684    3.2877   22.5019 C.2     1  UNL1        0.2426
     22 O           0.1027    4.6262   23.1583 O.2     1  UNL1       -0.2733
     23 H           0.5988    1.1851   22.9091 H       1  UNL1        0.1495
     24 C           0.2124    3.1733   21.0072 C.3     1  UNL1        0.1759
     25 N           1.2121    2.3221   20.2822 N.am    1  UNL1       -0.2931
     26 C           1.0109    0.8382   20.1954 C.2     1  UNL1        0.2462
     27 O          -0.1902    0.2056   20.8336 O.2     1  UNL1       -0.2701
     28 H           2.0004    2.7373   19.8633 H       1  UNL1        0.1502
     29 C           2.0107   -0.0131   19.4703 C.ar    1  UNL1        0.0533
     30 C           2.6186    0.4718   18.1876 C.ar    1  UNL1        0.0045
     31 C           3.6184   -0.3795   17.4626 C.ar    1  UNL1        0.0001
     32 C           4.0103   -1.7158   18.0202 C.ar    1  UNL1        0.0039
     33 C           3.4023   -2.2007   19.3029 C.ar    1  UNL1        0.0716
     34 C           2.4025   -1.3493   20.0279 C.ar    1  UNL1        0.0084
     35 C           3.7942   -3.5369   19.8605 C.3     1  UNL1        0.4186
     36 F           4.1860   -4.8732   20.4181 F       1  UNL1       -0.1659
     37 F           3.3729   -4.1948   18.5800 F       1  UNL1       -0.1659
     38 F           4.2154   -2.8790   21.1410 F       1  UNL1       -0.1659
@<TRIPOS>BOND
     1     6     5    1
     2     6    14    1
     3    14    15   ar
     4    15    16   ar
     5    16    17   ar
     6    17    18   ar
     7    18    19   ar
     8     6     7    1
     9     7     8    1
    10     8     9    1
    11     9     1    1
    12     1     2    1
    13     2     3    1
    14     3    20    1
    15    20    21   am
    16    21    22    2
    17    21    24    1
    18    24    25    1
    19    25    26   am
    20    26    27    2
    21    26    29    1
    22    29    30   ar
    23    30    31   ar
    24    31    32   ar
    25    32    33   ar
    26    33    35    1
    27    35    36    1
    28    35    37    1
    29    35    38    1
    30    33    34   ar
    31     3     4    1
    32     9    10    1
    33    10    11    1
    34    11     6    1
    35    19    14   ar
    36     4     1    1
    37    34    29   ar
    38     5    12    1
    39     5    13    1
    40    20    23    1
    41    25    28    1
@<TRIPOS>MOLECULE
*****
 38 41 0 0 0
SMALL
GASTEIGER

@<TRIPOS>ATOM
      1 N           4.6530   -1.6366   25.9825 N.3     1  UNL1       -0.2711
      2 C           5.9280   -1.6268   26.7726 C.3     1  UNL1        0.0933
      3 C           5.1382   -1.5717   28.0466 C.3     1  UNL1        0.1035
      4 C           3.8632   -1.5814   27.2565 C.3     1  UNL1        0.0933
      5 N           3.8612   -2.6282   20.3940 N.3     1  UNL1       -0.3200
      6 C           3.6235   -1.7741   21.6041 C.3     1  UNL1        0.0582
      7 C           3.1206   -0.6479   22.4577 C.3     1  UNL1        0.0198
      8 C           3.4638   -0.6021   23.9172 C.3     1  UNL1        0.0176
      9 C           4.3098   -1.6824   24.5230 C.3     1  UNL1        0.0577
     10 C           4.8127   -2.8086   23.6694 C.3     1  UNL1        0.0176
     11 C           4.4695   -2.8545   22.2099 C.3     1  UNL1        0.0198
     12 H           3.3912   -2.2150   19.5886 H       1  UNL1        0.1191
     13 H           3.4913   -3.5641   20.5604 H       1  UNL1        0.1191
     14 C           2.8600   -0.9904   20.5779 C.ar    1  UNL1       -0.0098
     15 C           3.4944   -0.6648   19.2583 C.ar    1  UNL1       -0.0030
     16 C           2.7309    0.1190   18.2323 C.ar    1  UNL1       -0.0003
     17 C           1.3330    0.5771   18.5259 C.ar    1  UNL1       -0.0000
     18 C           0.6987    0.2514   19.8455 C.ar    1  UNL1       -0.0003
     19 C           1.4622   -0.5323   20.8715 C.ar    1  UNL1       -0.0030
     20 N           5.4814   -1.5258   29.5061 N.am    1  UNL1       -0.3018
     21 C           6.1660   -2.6933   30.1526 C.2     1  UNL1        0.2426
     22 O           6.5076   -3.9067   29.3398 O.2     1  UNL1       -0.2733
     23 H           5.2572   -0.7293   30.0397 H       1  UNL1        0.1495
     24 C           6.5092   -2.6474   31.6122 C.3     1  UNL1        0.1759
     25 N           6.0606   -1.4883   32.4520 N.am    1  UNL1       -0.2931
     26 C           4.8564   -1.6242   33.3359 C.2     1  UNL1        0.2462
     27 O           4.1007   -2.9192   33.3801 O.2     1  UNL1       -0.2701
     28 H           6.5566   -0.6384   32.4231 H       1  UNL1        0.1502
     29 C           4.4079   -0.4651   34.1757 C.ar    1  UNL1        0.0533
     30 C           4.8864   -0.3350   35.5914 C.ar    1  UNL1        0.0045
     31 C           4.4378    0.8242   36.4311 C.ar    1  UNL1        0.0001
     32 C           3.5107    1.8532   35.8553 C.ar    1  UNL1        0.0039
     33 C           3.0321    1.7231   34.4396 C.ar    1  UNL1        0.0716
     34 C           3.4807    0.5639   33.5999 C.ar    1  UNL1        0.0084
     35 C           2.1050    2.7521   33.8638 C.3     1  UNL1        0.4186
     36 F           1.1779    3.7811   33.2880 F       1  UNL1       -0.1659
     37 F           2.7111    3.7963   34.7539 F       1  UNL1       -0.1659
     38 F           1.4989    1.7079   32.9737 F       1  UNL1       -0.1659
@<TRIPOS>BOND
     1     6     5    1
     2     6    14    1
     3    14    15   ar
     4    15    16   ar
     5    16    17   ar
     6    17    18   ar
     7    18    19   ar
     8     6     7    1
     9     7     8    1
    10     8     9    1
    11     9     1    1
    12     1     2    1
    13     2     3    1
    14     3    20    1
    15    20    21   am
    16    21    22    2
    17    21    24    1
    18    24    25    1
    19    25    26   am
    20    26    27    2
    21    26    29    1
    22    29    30   ar
    23    30    31   ar
    24    31    32   ar
    25    32    33   ar
    26    33    35    1
    27    35    36    1
    28    35    37    1
    29    35    38    1
    30    33    34   ar
    31     3     4    1
    32     9    10    1
    33    10    11    1
    34    11     6    1
    35    19    14   ar
    36     4     1    1
    37    34    29   ar
    38     5    12    1
    39     5    13    1
    40    20    23    1
    41    25    28    1
@<TRIPOS>MOLECULE
*****
 38 41 0 0 0
SMALL
GASTEIGER

@<TRIPOS>ATOM
      1 N           1.9102   -0.3516   20.8368 N.3     1  UNL1       -0.2711
      2 C           1.7214    1.0189   21.4167 C.3     1  UNL1        0.0933
      3 C           0.3675    1.1032   20.7766 C.3     1  UNL1        0.1035
      4 C           0.5563   -0.2672   20.1968 C.3     1  UNL1        0.0933
      5 N           5.7480   -4.5484   20.1299 N.3     1  UNL1       -0.3200
      6 C           5.1828   -3.4376   20.9647 C.3     1  UNL1        0.0582
      7 C           5.0018   -2.4885   22.1120 C.3     1  UNL1        0.0198
      8 C           3.9109   -1.4598   22.0694 C.3     1  UNL1        0.0176
      9 C           3.0011   -1.3803   20.8794 C.3     1  UNL1        0.0577
     10 C           3.1822   -2.3294   19.7321 C.3     1  UNL1        0.0176
     11 C           4.2730   -3.3580   19.7747 C.3     1  UNL1        0.0198
     12 H           6.5323   -4.9775   20.6209 H       1  UNL1        0.1191
     13 H           6.0698   -4.1732   19.2376 H       1  UNL1        0.1191
     14 C           6.2890   -3.9030   21.8647 C.ar    1  UNL1       -0.0098
     15 C           6.0456   -4.0508   23.3374 C.ar    1  UNL1       -0.0030
     16 C           7.1517   -4.5161   24.2373 C.ar    1  UNL1       -0.0003
     17 C           8.5012   -4.8336   23.6646 C.ar    1  UNL1       -0.0000
     18 C           8.7446   -4.6858   22.1919 C.ar    1  UNL1       -0.0003
     19 C           7.6385   -4.2204   21.2920 C.ar    1  UNL1       -0.0030
     20 N          -0.7233    2.1319   20.7341 N.am    1  UNL1       -0.3018
     21 C          -0.8521    3.0399   19.5471 C.2     1  UNL1        0.2426
     22 O           0.1100    2.9193   18.4026 O.2     1  UNL1       -0.2733
     23 H          -1.3548    2.2111   21.4852 H       1  UNL1        0.1495
     24 C          -1.9430    4.0686   19.5045 C.3     1  UNL1        0.1759
     25 N          -2.8133    4.2890   20.7062 N.am    1  UNL1       -0.2931
     26 C          -4.2656    3.9167   20.6588 C.2     1  UNL1        0.2462
     27 O          -4.8475    3.3240   19.4098 O.2     1  UNL1       -0.2701
     28 H          -2.4313    4.6781   21.5259 H       1  UNL1        0.1502
     29 C          -5.1359    4.1371   21.8604 C.ar    1  UNL1        0.0533
     30 C          -6.5832    4.4894   21.6838 C.ar    1  UNL1        0.0045
     31 C          -7.4535    4.7097   22.8855 C.ar    1  UNL1        0.0001
     32 C          -6.8765    4.5779   24.2638 C.ar    1  UNL1        0.0039
     33 C          -5.4291    4.2257   24.4404 C.ar    1  UNL1        0.0716
     34 C          -4.5589    4.0053   23.2387 C.ar    1  UNL1        0.0084
     35 C          -4.8521    4.0938   25.8187 C.3     1  UNL1        0.4186
     36 F          -4.2752    3.9620   27.1970 F       1  UNL1       -0.1659
     37 F          -5.9523    4.9568   26.3618 F       1  UNL1       -0.1659
     38 F          -3.7520    3.2308   25.2756 F       1  UNL1       -0.1659
@<TRIPOS>BOND
     1     6     5    1
     2     6    14    1
     3    14    15   ar
     4    15    16   ar
     5    16    17   ar
     6    17    18   ar
     7    18    19   ar
     8     6     7    1
     9     7     8    1
    10     8     9    1
    11     9     1    1
    12     1     2    1
    13     2     3    1
    14     3    20    1
    15    20    21   am
    16    21    22    2
    17    21    24    1
    18    24    25    1
    19    25    26   am
    20    26    27    2
    21    26    29    1
    22    29    30   ar
    23    30    31   ar
    24    31    32   ar
    25    32    33   ar
    26    33    35    1
    27    35    36    1
    28    35    37    1
    29    35    38    1
    30    33    34   ar
    31     3     4    1
    32     9    10    1
    33    10    11    1
    34    11     6    1
    35    19    14   ar
    36     4     1    1
    37    34    29   ar
    38     5    12    1
    39     5    13    1
    40    20    23    1
    41    25    28    1
@<TRIPOS>MOLECULE
*****
 38 41 0 0 0
SMALL
GASTEIGER

@<TRIPOS>ATOM
      1 N           3.6181   -0.1313   26.6903 N.3     1  UNL1       -0.2711
      2 C           4.1268    0.0149   28.0938 C.3     1  UNL1        0.0933
      3 C           3.0327    0.9978   28.3881 C.3     1  UNL1        0.1035
      4 C           2.5240    0.8516   26.9845 C.3     1  UNL1        0.0933
      5 N           5.8957   -3.5307   22.6781 N.3     1  UNL1       -0.3200
      6 C           4.8599   -2.5264   23.0888 C.3     1  UNL1        0.0582
      7 C           3.6847   -1.5983   23.0034 C.3     1  UNL1        0.0198
      8 C           3.2708   -0.7999   24.2039 C.3     1  UNL1        0.0176
      9 C           4.0321   -0.9297   25.4898 C.3     1  UNL1        0.0577
     10 C           5.2073   -1.8578   25.5752 C.3     1  UNL1        0.0176
     11 C           5.6212   -2.6562   24.3747 C.3     1  UNL1        0.0198
     12 H           5.7520   -3.7873   21.7014 H       1  UNL1        0.1191
     13 H           5.8144   -4.3619   23.2636 H       1  UNL1        0.1191
     14 C           4.4584   -2.7455   21.6602 C.ar    1  UNL1       -0.0098
     15 C           4.2955   -4.1400   21.1322 C.ar    1  UNL1       -0.0030
     16 C           3.8940   -4.3589   19.7037 C.ar    1  UNL1       -0.0003
     17 C           3.6553   -3.1833   18.8031 C.ar    1  UNL1       -0.0000
     18 C           3.8181   -1.7888   19.3311 C.ar    1  UNL1       -0.0003
     19 C           4.2196   -1.5699   20.7596 C.ar    1  UNL1       -0.0030
     20 N           2.6187    1.7962   29.5885 N.am    1  UNL1       -0.3018
     21 C           1.4386    1.3630   30.4068 C.2     1  UNL1        0.2426
     22 O           0.6723    0.1314   30.0247 O.2     1  UNL1       -0.2733
     23 H           3.1216    2.6046   29.8394 H       1  UNL1        0.1495
     24 C           1.0246    2.1615   31.6074 C.3     1  UNL1        0.1759
     25 N           1.4973    1.7614   32.9735 N.am    1  UNL1       -0.2931
     26 C           2.9547    1.8470   33.3178 C.2     1  UNL1        0.2462
     27 O           3.9395    2.3326   32.2957 O.2     1  UNL1       -0.2701
     28 H           0.8510    1.4427   33.6443 H       1  UNL1        0.1502
     29 C           3.4274    1.4469   34.6839 C.ar    1  UNL1        0.0533
     30 C           4.3411    0.2684   34.8461 C.ar    1  UNL1        0.0045
     31 C           4.8138   -0.1316   36.2124 C.ar    1  UNL1        0.0001
     32 C           4.3729    0.6468   37.4163 C.ar    1  UNL1        0.0039
     33 C           3.4592    1.8254   37.2541 C.ar    1  UNL1        0.0716
     34 C           2.9865    2.2253   35.8879 C.ar    1  UNL1        0.0084
     35 C           3.0182    2.6038   38.4581 C.3     1  UNL1        0.4186
     36 F           2.5773    3.3822   39.6621 F       1  UNL1       -0.1659
     37 F           4.2364    2.1430   39.2022 F       1  UNL1       -0.1659
     38 F           1.8000    3.0646   37.7140 F       1  UNL1       -0.1659
@<TRIPOS>BOND
     1     6     5    1
     2     6    14    1
     3    14    15   ar
     4    15    16   ar
     5    16    17   ar
     6    17    18   ar
     7    18    19   ar
     8     6     7    1
     9     7     8    1
    10     8     9    1
    11     9     1    1
    12     1     2    1
    13     2     3    1
    14     3    20    1
    15    20    21   am
    16    21    22    2
    17    21    24    1
    18    24    25    1
    19    25    26   am
    20    26    27    2
    21    26    29    1
    22    29    30   ar
    23    30    31   ar
    24    31    32   ar
    25    32    33   ar
    26    33    35    1
    27    35    36    1
    28    35    37    1
    29    35    38    1
    30    33    34   ar
    31     3     4    1
    32     9    10    1
    33    10    11    1
    34    11     6    1
    35    19    14   ar
    36     4     1    1
    37    34    29   ar
    38     5    12    1
    39     5    13    1
    40    20    23    1
    41    25    28    1
@<TRIPOS>MOLECULE
*****
 38 41 0 0 0
SMALL
GASTEIGER

@<TRIPOS>ATOM
      1 N           4.5061   -1.4510   25.9156 N.3     1  UNL1       -0.2711
      2 C           3.7114   -1.5816   27.1811 C.3     1  UNL1        0.0933
      3 C           4.9525   -1.3335   27.9861 C.3     1  UNL1        0.1035
      4 C           5.7472   -1.2029   26.7206 C.3     1  UNL1        0.0933
      5 N           3.7929   -2.6009   20.3469 N.3     1  UNL1       -0.3200
      6 C           3.5591   -1.7003   21.5235 C.3     1  UNL1        0.0582
      7 C           3.0761   -0.5312   22.3297 C.3     1  UNL1        0.0198
      8 C           3.3918   -0.4481   23.7937 C.3     1  UNL1        0.0176
      9 C           4.1904   -1.5342   24.4516 C.3     1  UNL1        0.0577
     10 C           4.6734   -2.7032   23.6454 C.3     1  UNL1        0.0176
     11 C           4.3578   -2.7863   22.1814 C.3     1  UNL1        0.0198
     12 H           3.3524   -2.1998   19.5189 H       1  UNL1        0.1191
     13 H           3.3898   -3.5186   20.5357 H       1  UNL1        0.1191
     14 C           2.8416   -0.9271   20.4570 C.ar    1  UNL1       -0.0098
     15 C           1.4179   -0.5041   20.6666 C.ar    1  UNL1       -0.0030
     16 C           0.7005    0.2691   19.6001 C.ar    1  UNL1       -0.0003
     17 C           1.4069    0.6193   18.3240 C.ar    1  UNL1       -0.0000
     18 C           2.8306    0.1964   18.1144 C.ar    1  UNL1       -0.0003
     19 C           3.5480   -0.5768   19.1809 C.ar    1  UNL1       -0.0030
     20 N           5.2682   -1.2504   29.4502 N.am    1  UNL1       -0.3018
     21 C           6.1207   -2.3029   30.0945 C.2     1  UNL1        0.2426
     22 O           6.6577   -3.4386   29.2749 O.2     1  UNL1       -0.2733
     23 H           4.9158   -0.5050   29.9882 H       1  UNL1        0.1495
     24 C           6.4364   -2.2198   31.5587 C.3     1  UNL1        0.1759
     25 N           5.9101   -1.0772   32.3757 N.am    1  UNL1       -0.2931
     26 C           4.5783   -1.1927   33.0562 C.2     1  UNL1        0.2462
     27 O           3.7729   -2.4508   32.9198 O.2     1  UNL1       -0.2701
     28 H           6.4387   -0.2515   32.4652 H       1  UNL1        0.1502
     29 C           4.0520   -0.0502   33.8732 C.ar    1  UNL1        0.0533
     30 C           3.1707    0.9835   33.2369 C.ar    1  UNL1        0.0045
     31 C           2.6444    2.1260   34.0540 C.ar    1  UNL1        0.0001
     32 C           2.9994    2.2350   35.5073 C.ar    1  UNL1        0.0039
     33 C           3.8808    1.2013   36.1436 C.ar    1  UNL1        0.0716
     34 C           4.4070    0.0588   35.3265 C.ar    1  UNL1        0.0084
     35 C           4.2358    1.3103   37.5969 C.3     1  UNL1        0.4186
     36 F           4.5907    1.4193   39.0502 F       1  UNL1       -0.1659
     37 F           5.2273    0.1960   37.4382 F       1  UNL1       -0.1659
     38 F           3.2442    2.4246   37.7556 F       1  UNL1       -0.1659
@<TRIPOS>BOND
     1     6     5    1
     2     6    14    1
     3    14    15   ar
     4    15    16   ar
     5    16    17   ar
     6    17    18   ar
     7    18    19   ar
     8     6     7    1
     9     7     8    1
    10     8     9    1
    11     9     1    1
    12     1     2    1
    13     2     3    1
    14     3    20    1
    15    20    21   am
    16    21    22    2
    17    21    24    1
    18    24    25    1
    19    25    26   am
    20    26    27    2
    21    26    29    1
    22    29    30   ar
    23    30    31   ar
    24    31    32   ar
    25    32    33   ar
    26    33    35    1
    27    35    36    1
    28    35    37    1
    29    35    38    1
    30    33    34   ar
    31     3     4    1
    32     9    10    1
    33    10    11    1
    34    11     6    1
    35    19    14   ar
    36     4     1    1
    37    34    29   ar
    38     5    12    1
    39     5    13    1
    40    20    23    1
    41    25    28    1
@<TRIPOS>MOLECULE
*****
 38 41 0 0 0
SMALL
GASTEIGER

@<TRIPOS>ATOM
      1 N           3.3116   -1.3408   21.3282 N.3     1  UNL1       -0.2711
      2 C           2.3466   -0.4701   22.0769 C.3     1  UNL1        0.0933
      3 C           1.5062   -0.3389   20.8414 C.3     1  UNL1        0.1035
      4 C           2.4713   -1.2096   20.0927 C.3     1  UNL1        0.0933
      5 N           8.6227   -3.3187   22.1773 N.3     1  UNL1       -0.3200
      6 C           7.1413   -3.4661   22.3607 C.3     1  UNL1        0.0582
      7 C           5.8246   -4.0417   22.7909 C.3     1  UNL1        0.0198
      8 C           4.5481   -3.3333   22.4467 C.3     1  UNL1        0.0176
      9 C           4.5882   -2.0492   21.6723 C.3     1  UNL1        0.0577
     10 C           5.9048   -1.4736   21.2422 C.3     1  UNL1        0.0176
     11 C           7.1814   -2.1821   21.5863 C.3     1  UNL1        0.0198
     12 H           9.0999   -4.1045   22.6192 H       1  UNL1        0.1191
     13 H           8.9334   -2.4473   22.6068 H       1  UNL1        0.1191
     14 C           7.6157   -4.6990   23.0714 C.ar    1  UNL1       -0.0098
     15 C           8.4828   -5.6911   22.3546 C.ar    1  UNL1       -0.0030
     16 C           8.9572   -6.9239   23.0653 C.ar    1  UNL1       -0.0003
     17 C           8.5645   -7.1646   24.4928 C.ar    1  UNL1       -0.0000
     18 C           7.6973   -6.1726   25.2096 C.ar    1  UNL1       -0.0003
     19 C           7.2229   -4.9398   24.4989 C.ar    1  UNL1       -0.0030
     20 N           0.2296    0.3695   20.4973 N.am    1  UNL1       -0.3018
     21 C           0.2081    1.8653   20.3873 C.2     1  UNL1        0.2426
     22 O           1.4631    2.6527   20.6215 O.2     1  UNL1       -0.2733
     23 H          -0.5941   -0.1473   20.3435 H       1  UNL1        0.1495
     24 C          -1.0686    2.5737   20.0431 C.3     1  UNL1        0.1759
     25 N          -2.0714    2.8762   21.1167 N.am    1  UNL1       -0.2931
     26 C          -3.4390    3.3697   20.7481 C.2     1  UNL1        0.2462
     27 O          -3.8039    3.5607   19.3057 O.2     1  UNL1       -0.2701
     28 H          -1.8319    2.7509   22.0634 H       1  UNL1        0.1502
     29 C          -4.4419    3.6722   21.8217 C.ar    1  UNL1        0.0533
     30 C          -5.8638    3.9786   21.4551 C.ar    1  UNL1        0.0045
     31 C          -6.8666    4.2811   22.5289 C.ar    1  UNL1        0.0001
     32 C          -6.4475    4.2772   23.9692 C.ar    1  UNL1        0.0039
     33 C          -5.0256    3.9708   24.3357 C.ar    1  UNL1        0.0716
     34 C          -4.0228    3.6683   23.2620 C.ar    1  UNL1        0.0084
     35 C          -4.6066    3.9669   25.7760 C.3     1  UNL1        0.4186
     36 F          -4.1876    3.9631   27.2163 F       1  UNL1       -0.1659
     37 F          -3.3362    3.2612   25.4045 F       1  UNL1       -0.1659
     38 F          -5.8770    4.6727   26.1475 F       1  UNL1       -0.1659
@<TRIPOS>BOND
     1     6     5    1
     2     6    14    1
     3    14    15   ar
     4    15    16   ar
     5    16    17   ar
     6    17    18   ar
     7    18    19   ar
     8     6     7    1
     9     7     8    1
    10     8     9    1
    11     9     1    1
    12     1     2    1
    13     2     3    1
    14     3    20    1
    15    20    21   am
    16    21    22    2
    17    21    24    1
    18    24    25    1
    19    25    26   am
    20    26    27    2
    21    26    29    1
    22    29    30   ar
    23    30    31   ar
    24    31    32   ar
    25    32    33   ar
    26    33    35    1
    27    35    36    1
    28    35    37    1
    29    35    38    1
    30    33    34   ar
    31     3     4    1
    32     9    10    1
    33    10    11    1
    34    11     6    1
    35    19    14   ar
    36     4     1    1
    37    34    29   ar
    38     5    12    1
    39     5    13    1
    40    20    23    1
    41    25    28    1
@<TRIPOS>MOLECULE
*****
 38 41 0 0 0
SMALL
GASTEIGER

@<TRIPOS>ATOM
      1 N           2.0948    0.3625   19.7200 N.3     1  UNL1       -0.2711
      2 C           1.5173    0.9517   20.9727 C.3     1  UNL1        0.0933
      3 C           0.2917    1.3653   20.2134 C.3     1  UNL1        0.1035
      4 C           0.8691    0.7761   18.9606 C.3     1  UNL1        0.0933
      5 N           6.7820   -2.0587   17.4818 N.3     1  UNL1       -0.3200
      6 C           5.9195   -1.7649   18.6734 C.3     1  UNL1        0.0582
      7 C           5.4360   -1.7463   20.0931 C.3     1  UNL1        0.0198
      8 C           4.1610   -1.0372   20.4420 C.3     1  UNL1        0.0176
      9 C           3.3697   -0.3466   19.3711 C.3     1  UNL1        0.0577
     10 C           3.8532   -0.3652   17.9513 C.3     1  UNL1        0.0176
     11 C           5.1281   -1.0743   17.6024 C.3     1  UNL1        0.0198
     12 H           7.5901   -2.6081   17.7741 H       1  UNL1        0.1191
     13 H           7.0987   -1.1823   17.0669 H       1  UNL1        0.1191
     14 C           7.0104   -2.5575   19.3305 C.ar    1  UNL1       -0.0098
     15 C           6.6668   -3.6165   20.3357 C.ar    1  UNL1       -0.0030
     16 C           7.7577   -4.4090   20.9927 C.ar    1  UNL1       -0.0003
     17 C           9.1922   -4.1426   20.6445 C.ar    1  UNL1       -0.0000
     18 C           9.5358   -3.0837   19.6393 C.ar    1  UNL1       -0.0003
     19 C           8.4449   -2.2911   18.9823 C.ar    1  UNL1       -0.0030
     20 N          -0.9832    2.0744   20.5623 N.am    1  UNL1       -0.3018
     21 C          -1.2429    3.4539   20.0338 C.2     1  UNL1        0.2426
     22 O          -0.2278    4.1245   19.1564 O.2     1  UNL1       -0.2733
     23 H          -1.6495    1.6343   21.1382 H       1  UNL1        0.1495
     24 C          -2.5179    4.1631   20.3827 C.3     1  UNL1        0.1759
     25 N          -2.8319    4.4805   21.8147 N.am    1  UNL1       -0.2931
     26 C          -3.9261    3.7398   22.5246 C.2     1  UNL1        0.2462
     27 O          -4.7064    2.6816   21.8025 O.2     1  UNL1       -0.2701
     28 H          -2.3197    5.1750   22.2886 H       1  UNL1        0.1502
     29 C          -4.2400    4.0573   23.9566 C.ar    1  UNL1        0.0533
     30 C          -3.2913    3.6429   25.0421 C.ar    1  UNL1        0.0045
     31 C          -3.6053    3.9604   26.4741 C.ar    1  UNL1        0.0001
     32 C          -4.8680    4.6922   26.8207 C.ar    1  UNL1        0.0039
     33 C          -5.8167    5.1066   25.7352 C.ar    1  UNL1        0.0716
     34 C          -5.5027    4.7891   24.3032 C.ar    1  UNL1        0.0084
     35 C          -7.0793    5.8384   26.0817 C.3     1  UNL1        0.4186
     36 F          -8.3420    6.5703   26.4283 F       1  UNL1       -0.1659
     37 F          -7.7161    5.3376   24.8193 F       1  UNL1       -0.1659
     38 F          -6.4425    6.3393   27.3441 F       1  UNL1       -0.1659
@<TRIPOS>BOND
     1     6     5    1
     2     6    14    1
     3    14    15   ar
     4    15    16   ar
     5    16    17   ar
     6    17    18   ar
     7    18    19   ar
     8     6     7    1
     9     7     8    1
    10     8     9    1
    11     9     1    1
    12     1     2    1
    13     2     3    1
    14     3    20    1
    15    20    21   am
    16    21    22    2
    17    21    24    1
    18    24    25    1
    19    25    26   am
    20    26    27    2
    21    26    29    1
    22    29    30   ar
    23    30    31   ar
    24    31    32   ar
    25    32    33   ar
    26    33    35    1
    27    35    36    1
    28    35    37    1
    29    35    38    1
    30    33    34   ar
    31     3     4    1
    32     9    10    1
    33    10    11    1
    34    11     6    1
    35    19    14   ar
    36     4     1    1
    37    34    29   ar
    38     5    12    1
    39     5    13    1
    40    20    23    1
    41    25    28    1
