@<TRIPOS>MOLECULE
*****
 32 34 0 0 0
SMALL
GASTEIGER

@<TRIPOS>ATOM
      1 C          -9.3664  -19.0994   23.2983 C.2     1  UNL1        0.2303
      2 O          -9.6587  -20.5680   23.3864 O.2     1  UNL1       -0.2745
      3 N          -9.6528  -18.2062   24.4688 N.am    1  UNL1       -0.2740
      4 C         -10.2316  -18.7816   25.7274 C.3     1  UNL1        0.1152
      5 C          -8.7876  -18.5240   22.0397 C.3     1  UNL1        0.1116
      6 C          -4.8067  -19.9760   20.5250 C.ar    1  UNL1       -0.0025
      7 C          -6.0530  -20.2440   19.7346 C.ar    1  UNL1       -0.0029
      8 C          -7.3800  -19.7600   20.2395 C.ar    1  UNL1       -0.0041
      9 C          -7.4606  -19.0080   21.5348 C.ar    1  UNL1       -0.0131
     10 C          -6.2143  -18.7400   22.3253 C.ar    1  UNL1       -0.0041
     11 C          -4.8873  -19.2240   21.8204 C.ar    1  UNL1       -0.0029
     12 C          -3.4797  -20.4600   20.0201 C.3     1  UNL1        0.1177
     13 C           0.4884  -17.1054   19.9842 C.3     1  UNL1        0.1122
     14 N          -0.5915  -17.8481   19.2545 N.am    1  UNL1       -0.2872
     15 C          -1.4957  -18.7827   20.0022 C.2     1  UNL1        0.3010
     16 O          -1.3201  -18.9746   21.4794 O.2     1  UNL1       -0.2528
     17 N          -2.5755  -19.5254   19.2725 N.am    1  UNL1       -0.2849
     18 H          -0.7067  -17.7221   18.2849 H       1  UNL1        0.1510
     19 H          -2.6908  -19.3994   18.3029 H       1  UNL1        0.1513
     20 C          -9.3605  -16.7376   24.3807 C.3     1  UNL1        0.1138
     21 C          -8.0813  -16.1924   24.9432 C.ar    1  UNL1       -0.0029
     22 C          -6.9446  -15.8502   24.0262 C.ar    1  UNL1       -0.0026
     23 C          -5.6653  -15.3051   24.5886 C.ar    1  UNL1       -0.0003
     24 C          -5.5227  -15.1022   26.0680 C.ar    1  UNL1       -0.0000
     25 C          -6.6594  -15.4444   26.9849 C.ar    1  UNL1       -0.0003
     26 C          -7.9387  -15.9895   26.4225 C.ar    1  UNL1       -0.0026
     27 C         -10.3475  -15.8141   23.7303 C.3     1  UNL1        0.0967
     28 N         -11.1709  -16.2923   22.5712 N.3     1  UNL1       -0.2710
     29 C         -12.3686  -17.1918   22.6521 C.3     1  UNL1        0.0722
     30 C         -12.8791  -17.4103   21.2587 C.3     1  UNL1        0.0188
     31 C         -11.9969  -16.6459   20.3166 C.3     1  UNL1        0.0188
     32 C         -10.9412  -15.9550   21.1278 C.3     1  UNL1        0.0722
@<TRIPOS>BOND
     1    13    14    1
     2    14    15   am
     3    15    16    2
     4    15    17   am
     5    17    12    1
     6    12     6    1
     7     6     7   ar
     8     7     8   ar
     9     8     9   ar
    10     9     5    1
    11     5     1    1
    12     1     2    2
    13     1     3   am
    14     3     4    1
    15     3    20    1
    16    20    27    1
    17    27    28    1
    18    28    29    1
    19    29    30    1
    20    30    31    1
    21    31    32    1
    22    20    21    1
    23    21    22   ar
    24    22    23   ar
    25    23    24   ar
    26    24    25   ar
    27    25    26   ar
    28     9    10   ar
    29    10    11   ar
    30    11     6   ar
    31    32    28    1
    32    26    21   ar
    33    14    18    1
    34    17    19    1
@<TRIPOS>MOLECULE
*****
 32 34 0 0 0
SMALL
GASTEIGER

@<TRIPOS>ATOM
      1 C          -9.5400  -19.3553   24.0770 C.2     1  UNL1        0.2303
      2 O          -9.4712  -20.6321   24.8614 O.2     1  UNL1       -0.2745
      3 N          -9.6396  -18.0404   24.7918 N.am    1  UNL1       -0.2740
      4 C          -9.6705  -18.0022   26.2911 C.3     1  UNL1        0.1152
      5 C          -9.5091  -19.3935   22.5778 C.3     1  UNL1        0.1116
      6 C          -5.5826  -19.8028   20.4179 C.ar    1  UNL1       -0.0025
      7 C          -6.8043  -19.3514   19.6739 C.ar    1  UNL1       -0.0029
      8 C          -8.1132  -19.2150   20.3939 C.ar    1  UNL1       -0.0041
      9 C          -8.2002  -19.5300   21.8578 C.ar    1  UNL1       -0.0131
     10 C          -6.9785  -19.9813   22.6018 C.ar    1  UNL1       -0.0041
     11 C          -5.6697  -20.1178   21.8818 C.ar    1  UNL1       -0.0029
     12 C          -4.2738  -19.9392   19.6979 C.3     1  UNL1        0.1177
     13 C           0.1003  -17.1538   20.0285 C.3     1  UNL1        0.1122
     14 N          -1.2958  -17.3229   19.5066 N.am    1  UNL1       -0.2872
     15 C          -2.0867  -18.5466   19.8632 C.2     1  UNL1        0.3010
     16 O          -1.4816  -19.6011   20.7417 O.2     1  UNL1       -0.2528
     17 N          -3.4828  -18.7156   19.3414 N.am    1  UNL1       -0.2849
     18 H          -1.6930  -16.6307   18.9301 H       1  UNL1        0.1510
     19 H          -3.8800  -18.0235   18.7648 H       1  UNL1        0.1513
     20 C          -9.7084  -16.7637   24.0075 C.3     1  UNL1        0.1138
     21 C         -10.5973  -16.6704   22.8028 C.ar    1  UNL1       -0.0029
     22 C         -10.0661  -16.1005   21.5211 C.ar    1  UNL1       -0.0026
     23 C         -10.9550  -16.0073   20.3164 C.ar    1  UNL1       -0.0003
     24 C         -12.3751  -16.4839   20.3936 C.ar    1  UNL1       -0.0000
     25 C         -12.9063  -17.0538   21.6753 C.ar    1  UNL1       -0.0003
     26 C         -12.0174  -17.1471   22.8800 C.ar    1  UNL1       -0.0026
     27 C          -8.8882  -15.5802   24.4278 C.3     1  UNL1        0.0967
     28 N          -7.4059  -15.7212   24.6090 N.3     1  UNL1       -0.2710
     29 C          -6.6416  -15.4459   25.8700 C.3     1  UNL1        0.0722
     30 C          -5.1910  -15.7168   25.6014 C.3     1  UNL1        0.0188
     31 C          -5.0586  -16.1596   24.1743 C.3     1  UNL1        0.0188
     32 C          -6.4275  -16.1623   23.5610 C.3     1  UNL1        0.0722
@<TRIPOS>BOND
     1    13    14    1
     2    14    15   am
     3    15    16    2
     4    15    17   am
     5    17    12    1
     6    12     6    1
     7     6     7   ar
     8     7     8   ar
     9     8     9   ar
    10     9     5    1
    11     5     1    1
    12     1     2    2
    13     1     3   am
    14     3     4    1
    15     3    20    1
    16    20    27    1
    17    27    28    1
    18    28    29    1
    19    29    30    1
    20    30    31    1
    21    31    32    1
    22    20    21    1
    23    21    22   ar
    24    22    23   ar
    25    23    24   ar
    26    24    25   ar
    27    25    26   ar
    28     9    10   ar
    29    10    11   ar
    30    11     6   ar
    31    32    28    1
    32    26    21   ar
    33    14    18    1
    34    17    19    1
@<TRIPOS>MOLECULE
*****
 32 34 0 0 0
SMALL
GASTEIGER

@<TRIPOS>ATOM
      1 C         -10.3013  -17.8982   20.8076 C.2     1  UNL1        0.2303
      2 O         -10.7669  -17.4511   19.4535 O.2     1  UNL1       -0.2745
      3 N         -10.3784  -16.9595   21.9749 N.am    1  UNL1       -0.2740
      4 C         -10.9211  -15.5736   21.7883 C.3     1  UNL1        0.1152
      5 C          -9.7586  -19.2841   20.9941 C.3     1  UNL1        0.1116
      6 C          -5.3154  -19.9915   20.9056 C.ar    1  UNL1       -0.0025
      7 C          -6.0919  -20.2547   22.1616 C.ar    1  UNL1       -0.0029
      8 C          -7.5730  -20.0189   22.1912 C.ar    1  UNL1       -0.0041
      9 C          -8.2776  -19.5199   20.9646 C.ar    1  UNL1       -0.0131
     10 C          -7.5011  -19.2566   19.7086 C.ar    1  UNL1       -0.0041
     11 C          -6.0200  -19.4924   19.6790 C.ar    1  UNL1       -0.0029
     12 C          -3.8344  -20.2273   20.8760 C.3     1  UNL1        0.1177
     13 C           0.4097  -17.3829   19.9290 C.3     1  UNL1        0.1122
     14 N          -0.8497  -18.0380   19.4447 N.am    1  UNL1       -0.2872
     15 C          -1.7123  -18.8051   20.4026 C.2     1  UNL1        0.3010
     16 O          -1.3155  -18.9170   21.8448 O.2     1  UNL1       -0.2528
     17 N          -2.9718  -19.4602   19.9182 N.am    1  UNL1       -0.2849
     18 H          -1.1101  -17.9646   18.4981 H       1  UNL1        0.1510
     19 H          -3.2322  -19.3868   18.9716 H       1  UNL1        0.1513
     20 C          -9.9129  -17.4066   23.3289 C.3     1  UNL1        0.1138
     21 C          -8.7302  -16.7447   23.9717 C.ar    1  UNL1       -0.0029
     22 C          -7.4589  -16.5638   23.1965 C.ar    1  UNL1       -0.0026
     23 C          -6.2762  -15.9019   23.8393 C.ar    1  UNL1       -0.0003
     24 C          -6.3648  -15.4210   25.2573 C.ar    1  UNL1       -0.0000
     25 C          -7.6361  -15.6019   26.0325 C.ar    1  UNL1       -0.0003
     26 C          -8.8188  -16.2638   25.3897 C.ar    1  UNL1       -0.0026
     27 C         -10.6300  -18.5156   24.0401 C.3     1  UNL1        0.0967
     28 N         -12.1091  -18.4242   24.2730 N.3     1  UNL1       -0.2710
     29 C         -13.1387  -18.0272   23.2571 C.3     1  UNL1        0.0722
     30 C         -14.4841  -18.0715   23.9190 C.3     1  UNL1        0.0188
     31 C         -14.2859  -18.4959   25.3440 C.3     1  UNL1        0.0188
     32 C         -12.8180  -18.7139   25.5628 C.3     1  UNL1        0.0722
@<TRIPOS>BOND
     1    13    14    1
     2    14    15   am
     3    15    16    2
     4    15    17   am
     5    17    12    1
     6    12     6    1
     7     6     7   ar
     8     7     8   ar
     9     8     9   ar
    10     9     5    1
    11     5     1    1
    12     1     2    2
    13     1     3   am
    14     3     4    1
    15     3    20    1
    16    20    27    1
    17    27    28    1
    18    28    29    1
    19    29    30    1
    20    30    31    1
    21    31    32    1
    22    20    21    1
    23    21    22   ar
    24    22    23   ar
    25    23    24   ar
    26    24    25   ar
    27    25    26   ar
    28     9    10   ar
    29    10    11   ar
    30    11     6   ar
    31    32    28    1
    32    26    21   ar
    33    14    18    1
    34    17    19    1
@<TRIPOS>MOLECULE
*****
 32 34 0 0 0
SMALL
GASTEIGER

@<TRIPOS>ATOM
      1 C          -6.7870  -15.5582   25.2843 C.2     1  UNL1        0.2303
      2 O          -5.8143  -15.0869   26.3244 O.2     1  UNL1       -0.2745
      3 N          -8.1415  -16.0550   25.6946 N.am    1  UNL1       -0.2740
      4 C          -8.5234  -16.0806   27.1450 C.3     1  UNL1        0.1152
      5 C          -6.4051  -15.5326   23.8339 C.3     1  UNL1        0.1116
      6 C          -3.4350  -18.5119   22.2364 C.ar    1  UNL1       -0.0025
      7 C          -2.9610  -17.1927   22.7702 C.ar    1  UNL1       -0.0029
      8 C          -3.9510  -16.1996   23.3027 C.ar    1  UNL1       -0.0041
      9 C          -5.4151  -16.5257   23.3014 C.ar    1  UNL1       -0.0131
     10 C          -5.8891  -17.8449   22.7676 C.ar    1  UNL1       -0.0041
     11 C          -4.8991  -18.8380   22.2351 C.ar    1  UNL1       -0.0029
     12 C          -2.4449  -19.5050   21.7038 C.3     1  UNL1        0.1177
     13 C          -1.7894  -17.3846   17.0055 C.3     1  UNL1        0.1122
     14 N          -1.2204  -18.0709   18.2119 N.am    1  UNL1       -0.2872
     15 C          -2.1172  -18.4448   19.3547 C.2     1  UNL1        0.3010
     16 O          -3.5829  -18.1325   19.2911 O.2     1  UNL1       -0.2528
     17 N          -1.5482  -19.1310   20.5611 N.am    1  UNL1       -0.2849
     18 H          -0.2584  -18.2758   18.2536 H       1  UNL1        0.1510
     19 H          -0.5862  -19.3360   20.6028 H       1  UNL1        0.1513
     20 C          -9.1142  -16.5263   24.6545 C.3     1  UNL1        0.1138
     21 C          -9.2903  -17.9945   24.4028 C.ar    1  UNL1       -0.0029
     22 C          -8.7094  -18.6189   23.1689 C.ar    1  UNL1       -0.0026
     23 C          -8.8855  -20.0871   22.9172 C.ar    1  UNL1       -0.0003
     24 C          -9.6426  -20.9309   23.8994 C.ar    1  UNL1       -0.0000
     25 C         -10.2235  -20.3065   25.1333 C.ar    1  UNL1       -0.0003
     26 C         -10.0474  -18.8383   25.3850 C.ar    1  UNL1       -0.0026
     27 C          -9.9109  -15.5294   23.8662 C.3     1  UNL1        0.0967
     28 N         -10.7282  -15.9820   22.6926 N.3     1  UNL1       -0.2710
     29 C         -10.2929  -15.9682   21.2573 C.3     1  UNL1        0.0722
     30 C         -11.4200  -16.5055   20.4260 C.3     1  UNL1        0.0188
     31 C         -12.5518  -16.8514   21.3476 C.3     1  UNL1        0.0188
     32 C         -12.1242  -16.5278   22.7485 C.3     1  UNL1        0.0722
@<TRIPOS>BOND
     1    13    14    1
     2    14    15   am
     3    15    16    2
     4    15    17   am
     5    17    12    1
     6    12     6    1
     7     6     7   ar
     8     7     8   ar
     9     8     9   ar
    10     9     5    1
    11     5     1    1
    12     1     2    2
    13     1     3   am
    14     3     4    1
    15     3    20    1
    16    20    27    1
    17    27    28    1
    18    28    29    1
    19    29    30    1
    20    30    31    1
    21    31    32    1
    22    20    21    1
    23    21    22   ar
    24    22    23   ar
    25    23    24   ar
    26    24    25   ar
    27    25    26   ar
    28     9    10   ar
    29    10    11   ar
    30    11     6   ar
    31    32    28    1
    32    26    21   ar
    33    14    18    1
    34    17    19    1
@<TRIPOS>MOLECULE
*****
 32 34 0 0 0
SMALL
GASTEIGER

@<TRIPOS>ATOM
      1 C          -9.5038  -16.0008   21.5340 C.2     1  UNL1        0.2303
      2 O          -8.8761  -14.6678   21.2525 O.2     1  UNL1       -0.2745
      3 N         -10.6188  -16.5031   20.6654 N.am    1  UNL1       -0.2740
      4 C         -11.1061  -15.6724   19.5154 C.3     1  UNL1        0.1152
      5 C          -9.0164  -16.8314   22.6840 C.3     1  UNL1        0.1116
      6 C          -4.6020  -17.4486   23.3021 C.ar    1  UNL1       -0.0025
      7 C          -5.2747  -16.2307   23.8625 C.ar    1  UNL1       -0.0029
      8 C          -6.7462  -16.0250   23.6565 C.ar    1  UNL1       -0.0041
      9 C          -7.5449  -17.0371   22.8900 C.ar    1  UNL1       -0.0131
     10 C          -6.8722  -18.2550   22.3296 C.ar    1  UNL1       -0.0041
     11 C          -5.4007  -18.4608   22.5357 C.ar    1  UNL1       -0.0029
     12 C          -3.1305  -17.6544   23.5082 C.3     1  UNL1        0.1177
     13 C           0.1160  -18.1242   19.4784 C.3     1  UNL1        0.1122
     14 N          -0.5237  -17.2787   20.5394 N.am    1  UNL1       -0.2872
     15 C          -1.5073  -17.8893   21.4933 C.2     1  UNL1        0.3010
     16 O          -1.8510  -19.3454   21.3861 O.2     1  UNL1       -0.2528
     17 N          -2.1470  -17.0438   22.5544 N.am    1  UNL1       -0.2849
     18 H          -0.2981  -16.3229   20.6098 H       1  UNL1        0.1510
     19 H          -1.9214  -16.0881   22.6247 H       1  UNL1        0.1513
     20 C         -11.2465  -17.8360   20.9469 C.3     1  UNL1        0.1138
     21 C         -11.8530  -18.1106   22.2910 C.ar    1  UNL1       -0.0029
     22 C         -13.1947  -17.5379   22.6396 C.ar    1  UNL1       -0.0026
     23 C         -13.8012  -17.8125   23.9837 C.ar    1  UNL1       -0.0003
     24 C         -13.0660  -18.6598   24.9793 C.ar    1  UNL1       -0.0000
     25 C         -11.7242  -19.2326   24.6308 C.ar    1  UNL1       -0.0003
     26 C         -11.1177  -18.9580   23.2866 C.ar    1  UNL1       -0.0026
     27 C         -11.2676  -18.8944   19.8842 C.3     1  UNL1        0.0967
     28 N          -9.9902  -19.5556   19.4585 N.3     1  UNL1       -0.2710
     29 C          -9.8329  -20.5186   18.3193 C.3     1  UNL1        0.0722
     30 C          -8.3913  -20.9280   18.2541 C.3     1  UNL1        0.0188
     31 C          -7.6576  -20.2179   19.3531 C.3     1  UNL1        0.0188
     32 C          -8.6458  -19.3697   20.0974 C.3     1  UNL1        0.0722
@<TRIPOS>BOND
     1    13    14    1
     2    14    15   am
     3    15    16    2
     4    15    17   am
     5    17    12    1
     6    12     6    1
     7     6     7   ar
     8     7     8   ar
     9     8     9   ar
    10     9     5    1
    11     5     1    1
    12     1     2    2
    13     1     3   am
    14     3     4    1
    15     3    20    1
    16    20    27    1
    17    27    28    1
    18    28    29    1
    19    29    30    1
    20    30    31    1
    21    31    32    1
    22    20    21    1
    23    21    22   ar
    24    22    23   ar
    25    23    24   ar
    26    24    25   ar
    27    25    26   ar
    28     9    10   ar
    29    10    11   ar
    30    11     6   ar
    31    32    28    1
    32    26    21   ar
    33    14    18    1
    34    17    19    1
@<TRIPOS>MOLECULE
*****
 32 34 0 0 0
SMALL
GASTEIGER

@<TRIPOS>ATOM
      1 C           3.6895   -2.7390   19.5810 C.2     1  UNL1        0.2303
      2 O           3.1640   -4.0899   19.1950 O.2     1  UNL1       -0.2745
      3 N           4.4383   -2.5657   20.8692 N.am    1  UNL1       -0.2740
      4 C           4.6616   -3.7432   21.7712 C.3     1  UNL1        0.1152
      5 C           3.4662   -1.5616   18.6790 C.3     1  UNL1        0.1116
      6 C           0.6224    1.7038   19.9037 C.ar    1  UNL1       -0.0025
      7 C           1.7566    2.0080   18.9704 C.ar    1  UNL1       -0.0029
      8 C           2.7045    0.9195   18.5621 C.ar    1  UNL1       -0.0041
      9 C           2.5183   -0.4731   19.0872 C.ar    1  UNL1       -0.0131
     10 C           1.3842   -0.7773   20.0206 C.ar    1  UNL1       -0.0041
     11 C           0.4362    0.3112   20.4288 C.ar    1  UNL1       -0.0029
     12 C          -0.3255    2.7923   20.3120 C.3     1  UNL1        0.1177
     13 C          -5.4660    3.5498   20.2671 C.3     1  UNL1        0.1122
     14 N          -4.2645    2.8231   20.7948 N.am    1  UNL1       -0.2872
     15 C          -2.8957    3.1711   20.2895 C.2     1  UNL1        0.3010
     16 O          -2.7283    4.2458   19.2567 O.2     1  UNL1       -0.2528
     17 N          -1.6943    2.4443   20.8172 N.am    1  UNL1       -0.2849
     18 H          -4.3744    2.1176   21.4727 H       1  UNL1        0.1510
     19 H          -1.8042    1.7389   21.4951 H       1  UNL1        0.1513
     20 C           4.9638   -1.2149   21.2552 C.3     1  UNL1        0.1138
     21 C           4.1332   -0.3027   22.1085 C.ar    1  UNL1       -0.0029
     22 C           3.2499   -0.8740   23.1777 C.ar    1  UNL1       -0.0026
     23 C           2.4193    0.0381   24.0310 C.ar    1  UNL1       -0.0003
     24 C           2.4720    1.5215   23.8150 C.ar    1  UNL1       -0.0000
     25 C           3.3553    2.0928   22.7458 C.ar    1  UNL1       -0.0003
     26 C           4.1859    1.1807   21.8925 C.ar    1  UNL1       -0.0026
     27 C           6.3200   -0.7762   20.7880 C.3     1  UNL1        0.0967
     28 N           6.4735   -0.1057   19.4549 N.3     1  UNL1       -0.2710
     29 C           6.7922   -0.7867   18.1570 C.3     1  UNL1        0.0722
     30 C           6.8508    0.2616   17.0857 C.3     1  UNL1        0.0188
     31 C           6.5683    1.5905   17.7216 C.3     1  UNL1        0.0188
     32 C           6.3350    1.3634   19.1858 C.3     1  UNL1        0.0722
@<TRIPOS>BOND
     1    13    14    1
     2    14    15   am
     3    15    16    2
     4    15    17   am
     5    17    12    1
     6    12     6    1
     7     6     7   ar
     8     7     8   ar
     9     8     9   ar
    10     9     5    1
    11     5     1    1
    12     1     2    2
    13     1     3   am
    14     3     4    1
    15     3    20    1
    16    20    27    1
    17    27    28    1
    18    28    29    1
    19    29    30    1
    20    30    31    1
    21    31    32    1
    22    20    21    1
    23    21    22   ar
    24    22    23   ar
    25    23    24   ar
    26    24    25   ar
    27    25    26   ar
    28     9    10   ar
    29    10    11   ar
    30    11     6   ar
    31    32    28    1
    32    26    21   ar
    33    14    18    1
    34    17    19    1
@<TRIPOS>MOLECULE
*****
 32 34 0 0 0
SMALL
GASTEIGER

@<TRIPOS>ATOM
      1 C           5.5947   -2.0379   18.1812 C.2     1  UNL1        0.2303
      2 O           6.7554   -2.3684   17.2903 O.2     1  UNL1       -0.2745
      3 N           5.0423   -0.6436   18.2071 N.am    1  UNL1       -0.2740
      4 C           5.6507    0.4203   17.3421 C.3     1  UNL1        0.1152
      5 C           4.9864   -3.1018   19.0461 C.3     1  UNL1        0.1116
      6 C           6.7335   -3.9777   23.0995 C.ar    1  UNL1       -0.0025
      7 C           5.2460   -3.8926   22.9264 C.ar    1  UNL1       -0.0029
      8 C           4.6637   -3.6007   21.5753 C.ar    1  UNL1       -0.0041
      9 C           5.5688   -3.3938   20.3972 C.ar    1  UNL1       -0.0131
     10 C           7.0563   -3.4789   20.5703 C.ar    1  UNL1       -0.0041
     11 C           7.6387   -3.7708   21.9215 C.ar    1  UNL1       -0.0029
     12 C           7.3159   -4.2697   24.4507 C.3     1  UNL1        0.1177
     13 C           6.5557   -5.4860   29.4450 C.3     1  UNL1        0.1122
     14 N           6.0738   -5.4673   28.0246 N.am    1  UNL1       -0.2872
     15 C           6.9359   -4.8778   26.9478 C.2     1  UNL1        0.3010
     16 O           8.2798   -4.3071   27.2914 O.2     1  UNL1       -0.2528
     17 N           6.4539   -4.8591   25.5275 N.am    1  UNL1       -0.2849
     18 H           5.1917   -5.8419   27.7991 H       1  UNL1        0.1510
     19 H           5.5718   -5.2337   25.3020 H       1  UNL1        0.1513
     20 C           3.8817   -0.3131   19.0979 C.3     1  UNL1        0.1138
     21 C           4.0659   -0.2732   20.5861 C.ar    1  UNL1       -0.0029
     22 C           5.4011    0.0869   21.1671 C.ar    1  UNL1       -0.0026
     23 C           5.5853    0.1268   22.6552 C.ar    1  UNL1       -0.0003
     24 C           4.4344   -0.1934   23.5623 C.ar    1  UNL1       -0.0000
     25 C           3.0993   -0.5534   22.9812 C.ar    1  UNL1       -0.0003
     26 C           2.9150   -0.5934   21.4931 C.ar    1  UNL1       -0.0026
     27 C           2.5368   -0.0226   18.5007 C.3     1  UNL1        0.0967
     28 N           2.0354    1.3896   18.4330 N.3     1  UNL1       -0.2710
     29 C           0.5975    1.8129   18.3770 C.3     1  UNL1        0.0722
     30 C           0.5573    3.3113   18.3188 C.3     1  UNL1        0.0188
     31 C           1.9705    3.8140   18.3388 C.3     1  UNL1        0.0188
     32 C           2.8840    2.6263   18.4094 C.3     1  UNL1        0.0722
@<TRIPOS>BOND
     1    13    14    1
     2    14    15   am
     3    15    16    2
     4    15    17   am
     5    17    12    1
     6    12     6    1
     7     6     7   ar
     8     7     8   ar
     9     8     9   ar
    10     9     5    1
    11     5     1    1
    12     1     2    2
    13     1     3   am
    14     3     4    1
    15     3    20    1
    16    20    27    1
    17    27    28    1
    18    28    29    1
    19    29    30    1
    20    30    31    1
    21    31    32    1
    22    20    21    1
    23    21    22   ar
    24    22    23   ar
    25    23    24   ar
    26    24    25   ar
    27    25    26   ar
    28     9    10   ar
    29    10    11   ar
    30    11     6   ar
    31    32    28    1
    32    26    21   ar
    33    14    18    1
    34    17    19    1
@<TRIPOS>MOLECULE
*****
 32 34 0 0 0
SMALL
GASTEIGER

@<TRIPOS>ATOM
      1 C           5.0121   -1.4017   18.4025 C.2     1  UNL1        0.2303
      2 O           5.6183   -0.9433   17.1092 O.2     1  UNL1       -0.2745
      3 N           5.8837   -1.6197   19.6036 N.am    1  UNL1       -0.2740
      4 C           7.3615   -1.3793   19.5116 C.3     1  UNL1        0.1152
      5 C           3.5344   -1.6422   18.4945 C.3     1  UNL1        0.1116
      6 C           0.7988    1.6581   19.8638 C.ar    1  UNL1       -0.0025
      7 C           0.6331    0.2712   20.4105 C.ar    1  UNL1       -0.0029
      8 C           1.5449   -0.8289   19.9541 C.ar    1  UNL1       -0.0041
      9 C           2.6225   -0.5421   18.9509 C.ar    1  UNL1       -0.0131
     10 C           2.7883    0.8448   18.4042 C.ar    1  UNL1       -0.0041
     11 C           1.8764    1.9449   18.8606 C.ar    1  UNL1       -0.0029
     12 C          -0.1131    2.7581   20.3202 C.3     1  UNL1        0.1177
     13 C          -5.2582    3.4819   20.2556 C.3     1  UNL1        0.1122
     14 N          -4.0504    2.7919   20.8170 N.am    1  UNL1       -0.2872
     15 C          -2.6856    3.1200   20.2879 C.2     1  UNL1        0.3010
     16 O          -2.5287    4.1381   19.1975 O.2     1  UNL1       -0.2528
     17 N          -1.4778    2.4301   20.8493 N.am    1  UNL1       -0.2849
     18 H          -4.1533    2.1237   21.5327 H       1  UNL1        0.1510
     19 H          -1.5808    1.7619   21.5649 H       1  UNL1        0.1513
     20 C           5.2775   -2.0781   20.8968 C.3     1  UNL1        0.1138
     21 C           4.6180   -1.0867   21.8090 C.ar    1  UNL1       -0.0029
     22 C           4.8564    0.3819   21.6187 C.ar    1  UNL1       -0.0026
     23 C           4.1969    1.3733   22.5308 C.ar    1  UNL1       -0.0003
     24 C           3.2988    0.8961   23.6334 C.ar    1  UNL1       -0.0000
     25 C           3.0603   -0.5725   23.8238 C.ar    1  UNL1       -0.0003
     26 C           3.7199   -1.5639   22.9116 C.ar    1  UNL1       -0.0026
     27 C           5.3310   -3.5279   21.2779 C.3     1  UNL1        0.0967
     28 N           6.5354   -4.0732   21.9865 N.3     1  UNL1       -0.2710
     29 C           6.6718   -4.2736   23.4668 C.3     1  UNL1        0.0722
     30 C           8.0355   -4.8381   23.7344 C.3     1  UNL1        0.0188
     31 C           8.7419   -4.9867   22.4194 C.3     1  UNL1        0.0188
     32 C           7.8148   -4.5140   21.3392 C.3     1  UNL1        0.0722
@<TRIPOS>BOND
     1    13    14    1
     2    14    15   am
     3    15    16    2
     4    15    17   am
     5    17    12    1
     6    12     6    1
     7     6     7   ar
     8     7     8   ar
     9     8     9   ar
    10     9     5    1
    11     5     1    1
    12     1     2    2
    13     1     3   am
    14     3     4    1
    15     3    20    1
    16    20    27    1
    17    27    28    1
    18    28    29    1
    19    29    30    1
    20    30    31    1
    21    31    32    1
    22    20    21    1
    23    21    22   ar
    24    22    23   ar
    25    23    24   ar
    26    24    25   ar
    27    25    26   ar
    28     9    10   ar
    29    10    11   ar
    30    11     6   ar
    31    32    28    1
    32    26    21   ar
    33    14    18    1
    34    17    19    1
@<TRIPOS>MOLECULE
*****
 32 34 0 0 0
SMALL
GASTEIGER

@<TRIPOS>ATOM
      1 C           4.4537   -3.1434   21.0577 C.2     1  UNL1        0.2303
      2 O           4.4473   -4.4361   21.8185 O.2     1  UNL1       -0.2745
      3 N           3.8563   -3.0791   19.6833 N.am    1  UNL1       -0.2740
      4 C           3.2524   -4.3075   19.0698 C.3     1  UNL1        0.1152
      5 C           5.0576   -1.9150   21.6712 C.3     1  UNL1        0.1116
      6 C           3.9613   -0.7259   25.8705 C.ar    1  UNL1       -0.0025
      7 C           5.2513   -1.4444   25.6070 C.ar    1  UNL1       -0.0029
      8 C           5.6167   -1.8408   24.2073 C.ar    1  UNL1       -0.0041
      9 C           4.6922   -1.5187   23.0709 C.ar    1  UNL1       -0.0131
     10 C           3.4022   -0.8001   23.3344 C.ar    1  UNL1       -0.0041
     11 C           3.0367   -0.4037   24.7341 C.ar    1  UNL1       -0.0029
     12 C           3.5958   -0.3295   27.2702 C.3     1  UNL1        0.1177
     13 C          -1.2478    0.3117   29.0387 C.3     1  UNL1        0.1122
     14 N          -0.0600   -0.5714   28.7953 N.am    1  UNL1       -0.2872
     15 C           1.1740   -0.0089   28.1545 C.2     1  UNL1        0.3010
     16 O           1.2203    1.4368   27.7570 O.2     1  UNL1       -0.2528
     17 N           2.3618   -0.8920   27.9110 N.am    1  UNL1       -0.2849
     18 H          -0.0904   -1.5203   29.0562 H       1  UNL1        0.1510
     19 H           2.3315   -1.8408   28.1719 H       1  UNL1        0.1513
     20 C           3.8627   -1.7864   18.9224 C.3     1  UNL1        0.1138
     21 C           2.7751   -0.7783   19.1474 C.ar    1  UNL1       -0.0029
     22 C           2.7513    0.4904   18.3476 C.ar    1  UNL1       -0.0026
     23 C           1.6636    1.4986   18.5725 C.ar    1  UNL1       -0.0003
     24 C           0.5997    1.2380   19.5973 C.ar    1  UNL1       -0.0000
     25 C           0.6235   -0.0307   20.3971 C.ar    1  UNL1       -0.0003
     26 C           1.7112   -1.0389   20.1722 C.ar    1  UNL1       -0.0026
     27 C           4.9568   -1.5019   17.9366 C.3     1  UNL1        0.0967
     28 N           6.3529   -1.2419   18.4198 N.3     1  UNL1       -0.2710
     29 C           7.3767   -2.2841   18.7599 C.3     1  UNL1        0.0722
     30 C           8.6267   -1.5803   19.1980 C.3     1  UNL1        0.0188
     31 C           8.3755   -0.1030   19.1288 C.3     1  UNL1        0.0188
     32 C           6.9702    0.1061   18.6479 C.3     1  UNL1        0.0722
@<TRIPOS>BOND
     1    13    14    1
     2    14    15   am
     3    15    16    2
     4    15    17   am
     5    17    12    1
     6    12     6    1
     7     6     7   ar
     8     7     8   ar
     9     8     9   ar
    10     9     5    1
    11     5     1    1
    12     1     2    2
    13     1     3   am
    14     3     4    1
    15     3    20    1
    16    20    27    1
    17    27    28    1
    18    28    29    1
    19    29    30    1
    20    30    31    1
    21    31    32    1
    22    20    21    1
    23    21    22   ar
    24    22    23   ar
    25    23    24   ar
    26    24    25   ar
    27    25    26   ar
    28     9    10   ar
    29    10    11   ar
    30    11     6   ar
    31    32    28    1
    32    26    21   ar
    33    14    18    1
    34    17    19    1
