@<TRIPOS>MOLECULE
*****
 31 34 0 0 0
SMALL
GASTEIGER

@<TRIPOS>ATOM
      1 C          -9.8013  -18.7807   20.9666 C.3     1  UNL1        0.1176
      2 N          -8.3169  -18.8182   21.1792 N.am    1  UNL1       -0.2468
      3 C          -7.3508  -19.7371   20.4920 C.2     1  UNL1        0.3141
      4 O          -7.6994  -20.7798   19.4716 O.2     1  UNL1       -0.2519
      5 N          -5.9748  -19.4302   21.0043 N.am    1  UNL1       -0.2077
      6 C          -6.0905  -18.3216   22.0081 C.2     1  UNL1        0.2616
      7 O          -4.8483  -17.8169   22.6807 O.2     1  UNL1       -0.2718
      8 C          -7.5380  -17.9433   22.1163 C.3     1  UNL1        0.2205
      9 C          -6.7591  -17.0685   23.0533 C.2     1  UNL1        0.2584
     10 O          -5.2999  -16.9706   23.3866 O.2     1  UNL1       -0.2719
     11 N          -7.7253  -16.1497   23.7405 N.am    1  UNL1       -0.2514
     12 C          -9.1013  -16.4566   23.2282 C.ar    1  UNL1        0.0527
     13 C         -10.4446  -15.8698   23.5460 C.ar    1  UNL1        0.0155
     14 C         -11.6722  -16.3916   22.8601 C.ar    1  UNL1        0.0127
     15 C         -11.5565  -17.5002   21.8562 C.ar    1  UNL1        0.0575
     16 CL        -12.7842  -18.0220   21.1702 Cl      1  UNL1       -0.0823
     17 C         -10.2132  -18.0869   21.5384 C.ar    1  UNL1        0.0108
     18 C          -8.9855  -17.5651   22.2243 C.ar    1  UNL1        0.0252
     19 C          -4.7059  -20.1120   20.5862 C.3     1  UNL1        0.1313
     20 C          -3.5274  -19.2968   20.1429 C.ar    1  UNL1        0.0265
     21 C          -3.6322  -18.4276   18.9250 C.ar    1  UNL1        0.0110
     22 C          -2.4537  -17.6123   18.4816 C.ar    1  UNL1        0.0576
     23 CL         -2.5586  -16.7431   17.2637 Cl      1  UNL1       -0.0823
     24 C          -1.1703  -17.6664   19.2563 C.ar    1  UNL1        0.0137
     25 C          -1.0654  -18.5357   20.4742 C.ar    1  UNL1        0.0302
     26 C          -2.2439  -19.3509   20.9175 C.ar    1  UNL1        0.1378
     27 F          -2.1390  -20.2201   22.1355 F       1  UNL1       -0.2044
     28 C          -7.3767  -15.1069   24.7608 C.3     1  UNL1        0.1398
     29 C          -7.2387  -15.4875   26.2053 C.2     1  UNL1        0.0708
     30 O          -5.8986  -15.8804   26.7527 O.co2   1  UNL1       -0.5474
     31 O          -8.4410  -15.4753   27.1022 O.co2   1  UNL1       -0.5474
@<TRIPOS>UNITY_ATOM_ATTR
30 1
charge -1
@<TRIPOS>BOND
     1     1     2    1
     2     2     3   am
     3     3     4    2
     4     3     5   am
     5     5    19    1
     6    19    20    1
     7    20    21   ar
     8    21    22   ar
     9    22    23    1
    10    22    24   ar
    11    24    25   ar
    12    25    26   ar
    13    26    27    1
    14     5     6   am
    15     6     7    2
    16     6     8    1
    17     8     9    1
    18     9    10    2
    19     9    11   am
    20    11    28    1
    21    28    29    1
    22    29    30   ar
    23    29    31   ar
    24    11    12    1
    25    12    13   ar
    26    13    14   ar
    27    14    15   ar
    28    15    16    1
    29    15    17   ar
    30    17    18   ar
    31     8     2    1
    32    18    12   ar
    33    26    20   ar
    34    18     8    1
@<TRIPOS>MOLECULE
*****
 31 34 0 0 0
SMALL
GASTEIGER

@<TRIPOS>ATOM
      1 C          -6.9967  -16.9802   24.1662 C.3     1  UNL1        0.1176
      2 N          -6.7000  -17.7601   22.9197 N.am    1  UNL1       -0.2468
      3 C          -5.4057  -18.4454   22.5956 C.2     1  UNL1        0.3141
      4 O          -4.1808  -18.4711   23.4610 O.2     1  UNL1       -0.2519
      5 N          -5.5512  -19.1006   21.2541 N.am    1  UNL1       -0.2077
      6 C          -6.9356  -18.8201   20.7491 C.2     1  UNL1        0.2616
      7 O          -7.3472  -19.3664   19.4140 O.2     1  UNL1       -0.2718
      8 C          -7.6456  -17.9917   21.7785 C.3     1  UNL1        0.2205
      9 C          -8.5911  -18.2233   20.6373 C.2     1  UNL1        0.2584
     10 O          -8.4653  -18.9632   19.3386 O.2     1  UNL1       -0.2719
     11 N          -9.8854  -17.5380   20.9614 N.am    1  UNL1       -0.2514
     12 C          -9.7399  -16.8829   22.3029 C.ar    1  UNL1        0.0527
     13 C         -10.6890  -16.0672   23.1298 C.ar    1  UNL1        0.0155
     14 C         -10.2538  -15.5320   24.4618 C.ar    1  UNL1        0.0127
     15 C          -8.8695  -15.8124   24.9668 C.ar    1  UNL1        0.0575
     16 CL         -8.4343  -15.2772   26.2988 Cl      1  UNL1       -0.0823
     17 C          -7.9203  -16.6281   24.1398 C.ar    1  UNL1        0.0108
     18 C          -8.3556  -17.1633   22.8079 C.ar    1  UNL1        0.0252
     19 C          -4.4976  -19.8963   20.5425 C.3     1  UNL1        0.1313
     20 C          -3.2596  -19.2177   20.0359 C.ar    1  UNL1        0.0265
     21 C          -3.2935  -18.4675   18.7374 C.ar    1  UNL1        0.0110
     22 C          -2.0554  -17.7888   18.2307 C.ar    1  UNL1        0.0576
     23 CL         -2.0893  -17.0386   16.9323 Cl      1  UNL1       -0.0823
     24 C          -0.7834  -17.8603   19.0227 C.ar    1  UNL1        0.0137
     25 C          -0.7495  -18.6105   20.3211 C.ar    1  UNL1        0.0302
     26 C          -1.9876  -19.2892   20.8278 C.ar    1  UNL1        0.1378
     27 F          -1.9536  -20.0393   22.1263 F       1  UNL1       -0.2044
     28 C         -11.1103  -17.5123   20.0960 C.3     1  UNL1        0.1398
     29 C         -11.7382  -16.2018   19.7236 C.2     1  UNL1        0.0708
     30 O         -13.1602  -15.9159   20.1061 O.co2   1  UNL1       -0.5474
     31 O         -10.9441  -15.1773   18.9687 O.co2   1  UNL1       -0.5474
@<TRIPOS>UNITY_ATOM_ATTR
30 1
charge -1
@<TRIPOS>BOND
     1     1     2    1
     2     2     3   am
     3     3     4    2
     4     3     5   am
     5     5    19    1
     6    19    20    1
     7    20    21   ar
     8    21    22   ar
     9    22    23    1
    10    22    24   ar
    11    24    25   ar
    12    25    26   ar
    13    26    27    1
    14     5     6   am
    15     6     7    2
    16     6     8    1
    17     8     9    1
    18     9    10    2
    19     9    11   am
    20    11    28    1
    21    28    29    1
    22    29    30   ar
    23    29    31   ar
    24    11    12    1
    25    12    13   ar
    26    13    14   ar
    27    14    15   ar
    28    15    16    1
    29    15    17   ar
    30    17    18   ar
    31     8     2    1
    32    18    12   ar
    33    26    20   ar
    34    18     8    1
@<TRIPOS>MOLECULE
*****
 31 34 0 0 0
SMALL
GASTEIGER

@<TRIPOS>ATOM
      1 C         -12.2147   -7.3631   18.2948 C.3     1  UNL1        0.1176
      2 N         -13.5546   -6.7551   18.0030 N.am    1  UNL1       -0.2468
      3 C         -14.8006   -7.5036   17.6325 C.2     1  UNL1        0.3141
      4 O         -14.9255   -8.9915   17.4888 O.2     1  UNL1       -0.2519
      5 N         -15.8998   -6.5030   17.4311 N.am    1  UNL1       -0.2077
      6 C         -15.3331   -5.1361   17.6770 C.2     1  UNL1        0.2616
      7 O         -16.2303   -3.9417   17.5411 O.2     1  UNL1       -0.2718
      8 C         -13.8837   -5.2919   18.0306 C.3     1  UNL1        0.2205
      9 C         -14.2128   -3.8287   18.0580 C.2     1  UNL1        0.2584
     10 O         -15.4736   -3.0587   17.7984 O.2     1  UNL1       -0.2719
     11 N         -12.9668   -3.0803   18.4285 N.am    1  UNL1       -0.2514
     12 C         -11.8676   -4.0808   18.6300 C.ar    1  UNL1        0.0527
     13 C         -10.4239   -3.9239   19.0057 C.ar    1  UNL1        0.0155
     14 C          -9.5470   -5.1339   19.1354 C.ar    1  UNL1        0.0127
     15 C         -10.1136   -6.5007   18.8894 C.ar    1  UNL1        0.0575
     16 CL         -9.2365   -7.7107   19.0191 Cl      1  UNL1       -0.0823
     17 C         -11.5573   -6.6577   18.5137 C.ar    1  UNL1        0.0108
     18 C         -12.4343   -5.4477   18.3841 C.ar    1  UNL1        0.0252
     19 C         -17.3168   -6.8145   17.0504 C.3     1  UNL1        0.1313
     20 C         -18.1835   -7.6148   17.9769 C.ar    1  UNL1        0.0265
     21 C         -18.8901   -8.8383   17.4732 C.ar    1  UNL1        0.0110
     22 C         -19.7569   -9.6387   18.3996 C.ar    1  UNL1        0.0576
     23 CL        -20.4635  -10.8622   17.8959 Cl      1  UNL1       -0.0823
     24 C         -19.9170   -9.2154   19.8298 C.ar    1  UNL1        0.0137
     25 C         -19.2104   -7.9919   20.3335 C.ar    1  UNL1        0.0302
     26 C         -18.3437   -7.1916   19.4071 C.ar    1  UNL1        0.1378
     27 F         -17.6371   -5.9681   19.9108 F       1  UNL1       -0.2044
     28 C         -12.8419   -1.5924   18.5723 C.3     1  UNL1        0.1398
     29 C         -12.1835   -0.7871   17.4915 C.2     1  UNL1        0.0708
     30 O         -13.0196   -0.1039   16.4503 O.co2   1  UNL1       -0.5474
     31 O         -10.6890   -0.6650   17.4519 O.co2   1  UNL1       -0.5474
@<TRIPOS>UNITY_ATOM_ATTR
30 1
charge -1
@<TRIPOS>BOND
     1     1     2    1
     2     2     3   am
     3     3     4    2
     4     3     5   am
     5     5    19    1
     6    19    20    1
     7    20    21   ar
     8    21    22   ar
     9    22    23    1
    10    22    24   ar
    11    24    25   ar
    12    25    26   ar
    13    26    27    1
    14     5     6   am
    15     6     7    2
    16     6     8    1
    17     8     9    1
    18     9    10    2
    19     9    11   am
    20    11    28    1
    21    28    29    1
    22    29    30   ar
    23    29    31   ar
    24    11    12    1
    25    12    13   ar
    26    13    14   ar
    27    14    15   ar
    28    15    16    1
    29    15    17   ar
    30    17    18   ar
    31     8     2    1
    32    18    12   ar
    33    26    20   ar
    34    18     8    1
@<TRIPOS>MOLECULE
*****
 31 34 0 0 0
SMALL
GASTEIGER

@<TRIPOS>ATOM
      1 C           4.5346   -1.6038   24.3458 C.3     1  UNL1        0.1176
      2 N           5.6345   -2.5605   23.9924 N.am    1  UNL1       -0.2468
      3 C           6.6617   -3.1107   24.9369 C.2     1  UNL1        0.3141
      4 O           6.7694   -2.8009   26.4006 O.2     1  UNL1       -0.2519
      5 N           7.5625   -4.0252   24.1607 N.am    1  UNL1       -0.2077
      6 C           7.0919   -4.0402   22.7365 C.2     1  UNL1        0.2616
      7 O           7.8259   -4.8843   21.7370 O.2     1  UNL1       -0.2718
      8 C           5.9004   -3.1350   22.6324 C.3     1  UNL1        0.2205
      9 C           6.1662   -3.7094   21.2726 C.2     1  UNL1        0.2584
     10 O           7.2006   -4.6608   20.7483 O.2     1  UNL1       -0.2719
     11 N           5.1390   -3.1592   20.3281 N.am    1  UNL1       -0.2514
     12 C           4.2383   -2.2447   21.1042 C.ar    1  UNL1        0.0527
     13 C           3.0505   -1.4237   20.6981 C.ar    1  UNL1        0.0155
     14 C           2.3332   -0.5877   21.7162 C.ar    1  UNL1        0.0127
     15 C           2.8037   -0.5727   23.1404 C.ar    1  UNL1        0.0575
     16 CL          2.0864    0.2633   24.1586 Cl      1  UNL1       -0.0823
     17 C           3.9916   -1.3937   23.5465 C.ar    1  UNL1        0.0108
     18 C           4.7088   -2.2297   22.5284 C.ar    1  UNL1        0.0252
     19 C           8.7289   -4.7904   24.7119 C.3     1  UNL1        0.1313
     20 C           8.5087   -5.8422   25.7585 C.ar    1  UNL1        0.0265
     21 C           8.6721   -5.5016   27.2101 C.ar    1  UNL1        0.0110
     22 C           8.4520   -6.5534   28.2567 C.ar    1  UNL1        0.0576
     23 CL          8.6154   -6.2127   29.7084 Cl      1  UNL1       -0.0823
     24 C           8.0685   -7.9458   27.8516 C.ar    1  UNL1        0.0137
     25 C           7.9051   -8.2865   26.4000 C.ar    1  UNL1        0.0302
     26 C           8.1252   -7.2347   25.3534 C.ar    1  UNL1        0.1378
     27 F           7.9618   -7.5753   23.9018 F       1  UNL1       -0.2044
     28 C           5.0314   -3.4691   18.8644 C.3     1  UNL1        0.1398
     29 C           5.4651   -2.4537   17.8489 C.2     1  UNL1        0.0708
     30 O           6.9183   -2.3093   17.5061 O.co2   1  UNL1       -0.5474
     31 O           4.4457   -1.5829   17.1763 O.co2   1  UNL1       -0.5474
@<TRIPOS>UNITY_ATOM_ATTR
30 1
charge -1
@<TRIPOS>BOND
     1     1     2    1
     2     2     3   am
     3     3     4    2
     4     3     5   am
     5     5    19    1
     6    19    20    1
     7    20    21   ar
     8    21    22   ar
     9    22    23    1
    10    22    24   ar
    11    24    25   ar
    12    25    26   ar
    13    26    27    1
    14     5     6   am
    15     6     7    2
    16     6     8    1
    17     8     9    1
    18     9    10    2
    19     9    11   am
    20    11    28    1
    21    28    29    1
    22    29    30   ar
    23    29    31   ar
    24    11    12    1
    25    12    13   ar
    26    13    14   ar
    27    14    15   ar
    28    15    16    1
    29    15    17   ar
    30    17    18   ar
    31     8     2    1
    32    18    12   ar
    33    26    20   ar
    34    18     8    1
@<TRIPOS>MOLECULE
*****
 31 34 0 0 0
SMALL
GASTEIGER

@<TRIPOS>ATOM
      1 C         -10.0529  -17.3883   20.1862 C.3     1  UNL1        0.1176
      2 N          -9.3537  -18.3428   21.1081 N.am    1  UNL1       -0.2468
      3 C          -8.0479  -19.0307   20.8402 C.2     1  UNL1        0.3141
      4 O          -7.2121  -18.8847   19.6032 O.2     1  UNL1       -0.2519
      5 N          -7.7247  -19.8901   22.0263 N.am    1  UNL1       -0.2077
      6 C          -8.8308  -19.7335   23.0273 C.2     1  UNL1        0.2616
      7 O          -8.7554  -20.4925   24.3190 O.2     1  UNL1       -0.2718
      8 C          -9.8376  -18.7772   22.4599 C.3     1  UNL1        0.2205
      9 C         -10.3214  -19.2116   23.8117 C.2     1  UNL1        0.2584
     10 O          -9.7622  -20.1399   24.8487 O.2     1  UNL1       -0.2719
     11 N         -11.6272  -18.5237   24.0797 N.am    1  UNL1       -0.2514
     12 C         -11.9504  -17.6643   22.8935 C.ar    1  UNL1        0.0527
     13 C         -13.1089  -16.7593   22.5957 C.ar    1  UNL1        0.0155
     14 C         -13.1614  -16.0110   21.2968 C.ar    1  UNL1        0.0127
     15 C         -12.0554  -16.1676   20.2957 C.ar    1  UNL1        0.0575
     16 CL        -12.1079  -15.4192   18.9968 Cl      1  UNL1       -0.0823
     17 C         -10.8968  -17.0726   20.5936 C.ar    1  UNL1        0.0108
     18 C         -10.8443  -17.8209   21.8925 C.ar    1  UNL1        0.0252
     19 C          -6.5090  -20.7544   22.1838 C.3     1  UNL1        0.1313
     20 C          -5.1730  -20.2629   21.7109 C.ar    1  UNL1        0.0265
     21 C          -4.3745  -19.3231   22.5647 C.ar    1  UNL1        0.0110
     22 C          -3.0385  -18.8316   22.0918 C.ar    1  UNL1        0.0576
     23 CL         -2.2399  -17.8918   22.9456 Cl      1  UNL1       -0.0823
     24 C          -2.5011  -19.2800   20.7650 C.ar    1  UNL1        0.0137
     25 C          -3.2996  -20.2198   19.9112 C.ar    1  UNL1        0.0302
     26 C          -4.6356  -20.7113   20.3841 C.ar    1  UNL1        0.1378
     27 F          -5.4341  -21.6511   19.5303 F       1  UNL1       -0.2044
     28 C         -12.4630  -18.6697   25.3166 C.3     1  UNL1        0.1398
     29 C         -13.9596  -18.6379   25.2186 C.2     1  UNL1        0.0708
     30 O         -14.7960  -18.8309   26.4487 O.co2   1  UNL1       -0.5474
     31 O         -14.6196  -18.4132   23.8905 O.co2   1  UNL1       -0.5474
@<TRIPOS>UNITY_ATOM_ATTR
30 1
charge -1
@<TRIPOS>BOND
     1     1     2    1
     2     2     3   am
     3     3     4    2
     4     3     5   am
     5     5    19    1
     6    19    20    1
     7    20    21   ar
     8    21    22   ar
     9    22    23    1
    10    22    24   ar
    11    24    25   ar
    12    25    26   ar
    13    26    27    1
    14     5     6   am
    15     6     7    2
    16     6     8    1
    17     8     9    1
    18     9    10    2
    19     9    11   am
    20    11    28    1
    21    28    29    1
    22    29    30   ar
    23    29    31   ar
    24    11    12    1
    25    12    13   ar
    26    13    14   ar
    27    14    15   ar
    28    15    16    1
    29    15    17   ar
    30    17    18   ar
    31     8     2    1
    32    18    12   ar
    33    26    20   ar
    34    18     8    1
@<TRIPOS>MOLECULE
*****
 31 34 0 0 0
SMALL
GASTEIGER

@<TRIPOS>ATOM
      1 C          -5.5541  -16.3706   24.9324 C.3     1  UNL1        0.1176
      2 N          -5.4166  -17.2857   23.7519 N.am    1  UNL1       -0.2468
      3 C          -4.1410  -17.9001   23.2565 C.2     1  UNL1        0.3141
      4 O          -2.7790  -17.7073   23.8546 O.2     1  UNL1       -0.2519
      5 N          -4.4666  -18.7413   22.0580 N.am    1  UNL1       -0.2077
      6 C          -5.9433  -18.6467   21.8126 C.2     1  UNL1        0.2616
      7 O          -6.5390  -19.4014   20.6612 O.2     1  UNL1       -0.2718
      8 C          -6.5305  -17.7472   22.8596 C.3     1  UNL1        0.2205
      9 C          -7.6444  -18.2086   21.9672 C.2     1  UNL1        0.2584
     10 O          -7.6879  -19.1054   20.7656 O.2     1  UNL1       -0.2719
     11 N          -8.9200  -17.5942   22.4626 N.am    1  UNL1       -0.2514
     12 C          -8.5944  -16.7530   23.6612 C.ar    1  UNL1        0.0527
     13 C          -9.4519  -15.9132   24.5608 C.ar    1  UNL1        0.0155
     14 C          -8.8326  -15.1680   25.7058 C.ar    1  UNL1        0.0127
     15 C          -7.3558  -15.2625   25.9511 C.ar    1  UNL1        0.0575
     16 CL         -6.7365  -14.5172   27.0962 Cl      1  UNL1       -0.0823
     17 C          -6.4984  -16.1023   25.0515 C.ar    1  UNL1        0.0108
     18 C          -7.1177  -16.8476   23.9065 C.ar    1  UNL1        0.0252
     19 C          -3.4873  -19.5372   21.2471 C.3     1  UNL1        0.1313
     20 C          -2.4900  -18.8345   20.3744 C.ar    1  UNL1        0.0265
     21 C          -1.0769  -18.6555   20.8444 C.ar    1  UNL1        0.0110
     22 C          -0.0795  -17.9528   19.9718 C.ar    1  UNL1        0.0576
     23 CL          1.3336  -17.7738   20.4418 Cl      1  UNL1       -0.0823
     24 C          -0.4954  -17.4291   18.6290 C.ar    1  UNL1        0.0137
     25 C          -1.9086  -17.6080   18.1590 C.ar    1  UNL1        0.0302
     26 C          -2.9059  -18.3108   19.0317 C.ar    1  UNL1        0.1378
     27 F          -4.3190  -18.4897   18.5617 F       1  UNL1       -0.2044
     28 C         -10.2820  -17.7871   21.8645 C.3     1  UNL1        0.1398
     29 C         -10.7983  -16.8147   20.8457 C.2     1  UNL1        0.0708
     30 O         -11.9944  -17.1666   20.0117 O.co2   1  UNL1       -0.5474
     31 O         -10.1185  -15.4904   20.6608 O.co2   1  UNL1       -0.5474
@<TRIPOS>UNITY_ATOM_ATTR
30 1
charge -1
@<TRIPOS>BOND
     1     1     2    1
     2     2     3   am
     3     3     4    2
     4     3     5   am
     5     5    19    1
     6    19    20    1
     7    20    21   ar
     8    21    22   ar
     9    22    23    1
    10    22    24   ar
    11    24    25   ar
    12    25    26   ar
    13    26    27    1
    14     5     6   am
    15     6     7    2
    16     6     8    1
    17     8     9    1
    18     9    10    2
    19     9    11   am
    20    11    28    1
    21    28    29    1
    22    29    30   ar
    23    29    31   ar
    24    11    12    1
    25    12    13   ar
    26    13    14   ar
    27    14    15   ar
    28    15    16    1
    29    15    17   ar
    30    17    18   ar
    31     8     2    1
    32    18    12   ar
    33    26    20   ar
    34    18     8    1
@<TRIPOS>MOLECULE
*****
 31 34 0 0 0
SMALL
GASTEIGER

@<TRIPOS>ATOM
      1 C           3.1130   -0.2919   23.7861 C.3     1  UNL1        0.1176
      2 N           4.3170   -1.1742   23.6380 N.am    1  UNL1       -0.2468
      3 C           5.2981   -1.5160   24.7199 C.2     1  UNL1        0.3141
      4 O           5.2475   -1.0354   26.1399 O.2     1  UNL1       -0.2519
      5 N           6.3388   -2.4226   24.1325 N.am    1  UNL1       -0.2077
      6 C           6.0008   -2.6413   22.6876 C.2     1  UNL1        0.2616
      7 O           6.8901   -3.5190   21.8575 O.2     1  UNL1       -0.2718
      8 C           4.7513   -1.8697   22.3818 C.3     1  UNL1        0.2205
      9 C           5.1856   -2.5652   21.1258 C.2     1  UNL1        0.2584
     10 O           6.3394   -3.4675   20.8027 O.2     1  UNL1       -0.2719
     11 N           4.2045   -2.2234   20.0438 N.am    1  UNL1       -0.2514
     12 C           3.1638   -1.3167   20.6312 C.ar    1  UNL1        0.0527
     13 C           1.9522   -0.6620   20.0369 C.ar    1  UNL1        0.0155
     14 C           1.0785    0.2114   20.8877 C.ar    1  UNL1        0.0127
     15 C           1.4165    0.4300   22.3327 C.ar    1  UNL1        0.0575
     16 CL          0.5427    1.3035   23.1834 Cl      1  UNL1       -0.0823
     17 C           2.6281   -0.2247   22.9269 C.ar    1  UNL1        0.0108
     18 C           3.5018   -1.0981   22.0762 C.ar    1  UNL1        0.0252
     19 C           7.5114   -3.0079   24.8620 C.3     1  UNL1        0.1313
     20 C           7.5573   -4.4794   25.1497 C.ar    1  UNL1        0.0265
     21 C           8.3212   -5.3975   24.2423 C.ar    1  UNL1        0.0110
     22 C           8.3671   -6.8690   24.5299 C.ar    1  UNL1        0.0576
     23 CL          9.1311   -7.7871   23.6225 Cl      1  UNL1       -0.0823
     24 C           7.6490   -7.4223   25.7251 C.ar    1  UNL1        0.0137
     25 C           6.8851   -6.5042   26.6325 C.ar    1  UNL1        0.0302
     26 C           6.8392   -5.0327   26.3448 C.ar    1  UNL1        0.1378
     27 F           6.0753   -4.1146   27.2523 F       1  UNL1       -0.2044
     28 C           4.2551   -2.7040   18.6238 C.3     1  UNL1        0.1398
     29 C           5.0162   -1.9224   17.5941 C.2     1  UNL1        0.0708
     30 O           4.2939   -0.9615   16.6970 O.co2   1  UNL1       -0.5474
     31 O           6.4995   -2.1019   17.4617 O.co2   1  UNL1       -0.5474
@<TRIPOS>UNITY_ATOM_ATTR
30 1
charge -1
@<TRIPOS>BOND
     1     1     2    1
     2     2     3   am
     3     3     4    2
     4     3     5   am
     5     5    19    1
     6    19    20    1
     7    20    21   ar
     8    21    22   ar
     9    22    23    1
    10    22    24   ar
    11    24    25   ar
    12    25    26   ar
    13    26    27    1
    14     5     6   am
    15     6     7    2
    16     6     8    1
    17     8     9    1
    18     9    10    2
    19     9    11   am
    20    11    28    1
    21    28    29    1
    22    29    30   ar
    23    29    31   ar
    24    11    12    1
    25    12    13   ar
    26    13    14   ar
    27    14    15   ar
    28    15    16    1
    29    15    17   ar
    30    17    18   ar
    31     8     2    1
    32    18    12   ar
    33    26    20   ar
    34    18     8    1
@<TRIPOS>MOLECULE
*****
 31 34 0 0 0
SMALL
GASTEIGER

@<TRIPOS>ATOM
      1 C          -4.3175  -17.6075   23.0717 C.3     1  UNL1        0.1176
      2 N          -5.8134  -17.6587   22.9747 N.am    1  UNL1       -0.2468
      3 C          -6.7769  -16.8119   23.7523 C.2     1  UNL1        0.3141
      4 O          -6.4136  -15.7652   24.7634 O.2     1  UNL1       -0.2519
      5 N          -8.1676  -17.1956   23.3412 N.am    1  UNL1       -0.2077
      6 C          -8.0635  -18.2795   22.3095 C.2     1  UNL1        0.2616
      7 O          -9.3216  -18.8497   21.7245 O.2     1  UNL1       -0.2718
      8 C          -6.6086  -18.5658   22.0830 C.3     1  UNL1        0.2205
      9 C          -7.4038  -19.4728   21.1913 C.2     1  UNL1        0.2584
     10 O          -8.8759  -19.6557   20.9692 O.2     1  UNL1       -0.2719
     11 N          -6.4403  -20.3195   20.4137 N.am    1  UNL1       -0.2514
     12 C          -5.0497  -19.9359   20.8248 C.ar    1  UNL1        0.0527
     13 C          -3.7021  -20.4335   20.3930 C.ar    1  UNL1        0.0155
     14 C          -2.4586  -19.8472   20.9929 C.ar    1  UNL1        0.0127
     15 C          -2.5626  -18.7633   22.0246 C.ar    1  UNL1        0.0575
     16 CL         -1.3190  -18.1770   22.6245 Cl      1  UNL1       -0.0823
     17 C          -3.9102  -18.2657   22.4564 C.ar    1  UNL1        0.0108
     18 C          -5.1537  -18.8520   21.8565 C.ar    1  UNL1        0.0252
     19 C          -9.4390  -16.6000   23.8690 C.3     1  UNL1        0.1313
     20 C         -10.7356  -16.8477   23.1566 C.ar    1  UNL1        0.0265
     21 C         -11.0177  -16.1623   21.8525 C.ar    1  UNL1        0.0110
     22 C         -12.3143  -16.4100   21.1401 C.ar    1  UNL1        0.0576
     23 CL        -12.5964  -15.7246   19.8361 Cl      1  UNL1       -0.0823
     24 C         -13.3288  -17.3432   21.7318 C.ar    1  UNL1        0.0137
     25 C         -13.0466  -18.0287   23.0359 C.ar    1  UNL1        0.0302
     26 C         -11.7500  -17.7809   23.7483 C.ar    1  UNL1        0.1378
     27 F         -11.4679  -18.4664   25.0523 F       1  UNL1       -0.2044
     28 C          -6.8036  -21.3662   19.4026 C.3     1  UNL1        0.1398
     29 C          -7.9378  -21.1274   18.4503 C.2     1  UNL1        0.0708
     30 O          -8.4063  -19.7288   18.1776 O.co2   1  UNL1       -0.5474
     31 O          -8.6033  -22.2873   17.7707 O.co2   1  UNL1       -0.5474
@<TRIPOS>UNITY_ATOM_ATTR
30 1
charge -1
@<TRIPOS>BOND
     1     1     2    1
     2     2     3   am
     3     3     4    2
     4     3     5   am
     5     5    19    1
     6    19    20    1
     7    20    21   ar
     8    21    22   ar
     9    22    23    1
    10    22    24   ar
    11    24    25   ar
    12    25    26   ar
    13    26    27    1
    14     5     6   am
    15     6     7    2
    16     6     8    1
    17     8     9    1
    18     9    10    2
    19     9    11   am
    20    11    28    1
    21    28    29    1
    22    29    30   ar
    23    29    31   ar
    24    11    12    1
    25    12    13   ar
    26    13    14   ar
    27    14    15   ar
    28    15    16    1
    29    15    17   ar
    30    17    18   ar
    31     8     2    1
    32    18    12   ar
    33    26    20   ar
    34    18     8    1
@<TRIPOS>MOLECULE
*****
 31 34 0 0 0
SMALL
GASTEIGER

@<TRIPOS>ATOM
      1 C           1.7536    1.1650   23.3850 C.3     1  UNL1        0.1176
      2 N           1.1829    1.5664   22.0571 N.am    1  UNL1       -0.2468
      3 C           0.2585    2.7210   21.8074 C.2     1  UNL1        0.3141
      4 O          -0.2576    3.6769   22.8418 O.2     1  UNL1       -0.2519
      5 N          -0.0592    2.7519   20.3418 N.am    1  UNL1       -0.2077
      6 C           0.6689    1.6164   19.6856 C.2     1  UNL1        0.2616
      7 O           0.5227    1.4171   18.2061 O.2     1  UNL1       -0.2718
      8 C           1.4366    0.8837   20.7457 C.3     1  UNL1        0.2205
      9 C           1.6902    0.2011   19.4343 C.2     1  UNL1        0.2584
     10 O           1.2125    0.4611   18.0364 O.2     1  UNL1       -0.2719
     11 N           2.6146   -0.9535   19.6840 N.am    1  UNL1       -0.2514
     12 C           2.9324   -0.9844   21.1497 C.ar    1  UNL1        0.0527
     13 C           3.7906   -1.8998   21.9715 C.ar    1  UNL1        0.0155
     14 C           3.9207   -1.6797   23.4495 C.ar    1  UNL1        0.0127
     15 C           3.1926   -0.5443   24.1057 C.ar    1  UNL1        0.0575
     16 CL          3.3228   -0.3242   25.5838 Cl      1  UNL1       -0.0823
     17 C           2.3344    0.3711   23.2838 C.ar    1  UNL1        0.0108
     18 C           2.2043    0.1510   21.8058 C.ar    1  UNL1        0.0252
     19 C          -0.9488    3.7441   19.6532 C.3     1  UNL1        0.1313
     20 C          -2.4386    3.6393   19.7933 C.ar    1  UNL1        0.0265
     21 C          -3.0475    3.3524   21.1337 C.ar    1  UNL1        0.0110
     22 C          -4.5373    3.2476   21.2738 C.ar    1  UNL1        0.0576
     23 CL         -5.1463    2.9607   22.6142 Cl      1  UNL1       -0.0823
     24 C          -5.4182    3.4299   20.0733 C.ar    1  UNL1        0.0137
     25 C          -4.8092    3.7168   18.7328 C.ar    1  UNL1        0.0302
     26 C          -3.3194    3.8216   18.5928 C.ar    1  UNL1        0.1378
     27 F          -2.7105    4.1085   17.2523 F       1  UNL1       -0.2044
     28 C           3.1308   -1.9094   18.6496 C.3     1  UNL1        0.1398
     29 C           4.1974   -1.4719   17.6899 C.2     1  UNL1        0.0708
     30 O           3.8255   -1.0316   16.3050 O.co2   1  UNL1       -0.5474
     31 O           5.6359   -1.4746   18.1150 O.co2   1  UNL1       -0.5474
@<TRIPOS>UNITY_ATOM_ATTR
30 1
charge -1
@<TRIPOS>BOND
     1     1     2    1
     2     2     3   am
     3     3     4    2
     4     3     5   am
     5     5    19    1
     6    19    20    1
     7    20    21   ar
     8    21    22   ar
     9    22    23    1
    10    22    24   ar
    11    24    25   ar
    12    25    26   ar
    13    26    27    1
    14     5     6   am
    15     6     7    2
    16     6     8    1
    17     8     9    1
    18     9    10    2
    19     9    11   am
    20    11    28    1
    21    28    29    1
    22    29    30   ar
    23    29    31   ar
    24    11    12    1
    25    12    13   ar
    26    13    14   ar
    27    14    15   ar
    28    15    16    1
    29    15    17   ar
    30    17    18   ar
    31     8     2    1
    32    18    12   ar
    33    26    20   ar
    34    18     8    1
