@<TRIPOS>MOLECULE
*****
 33 36 0 0 0
SMALL
GASTEIGER

@<TRIPOS>ATOM
      1 C          -9.8929  -18.9080   22.6860 C.3     1  UNL1        0.0678
      2 C          -9.6187  -20.1270   23.5159 C.3     1  UNL1        0.0177
      3 C          -8.5458  -19.5655   22.6310 C.3     1  UNL1        0.0845
      4 C         -11.3166  -18.6419   23.0764 C.ar    1  UNL1       -0.0188
      5 C         -11.7645  -18.8815   24.4877 C.ar    1  UNL1       -0.0042
      6 C         -13.1882  -18.6154   24.8781 C.ar    1  UNL1       -0.0003
      7 C         -14.1638  -18.1097   23.8571 C.ar    1  UNL1       -0.0000
      8 C         -13.7159  -17.8701   22.4458 C.ar    1  UNL1       -0.0003
      9 C         -12.2922  -18.1362   22.0554 C.ar    1  UNL1       -0.0042
     10 C          -7.1485  -19.6207   22.0881 C.2     1  UNL1        0.2271
     11 O          -6.6722  -20.8463   21.3662 O.2     1  UNL1       -0.2747
     12 N          -6.2274  -18.4504   22.2673 N.am    1  UNL1       -0.2693
     13 H          -6.5400  -17.6460   22.7412 H       1  UNL1        0.1563
     14 C          -4.8302  -18.5056   21.7246 C.ar    1  UNL1        0.1342
     15 C          -3.6630  -18.5771   22.6640 C.ar    1  UNL1        0.0352
     16 C          -2.2657  -18.6323   22.1212 C.ar    1  UNL1        0.0147
     17 C          -2.0356  -18.6160   20.6391 C.ar    1  UNL1        0.0877
     18 C          -3.2028  -18.5445   19.6997 C.ar    1  UNL1        0.1105
     19 N          -4.6001  -18.4893   20.2424 N.ar    1  UNL1       -0.2283
     20 C          -0.6384  -18.6712   20.0964 C.1     1  UNL1        0.1020
     21 N           0.7588  -18.7265   19.5536 N.1     1  UNL1       -0.1908
     22 C          -9.6727  -17.7815   21.7204 C.3     1  UNL1        0.2097
     23 O          -9.5494  -16.3744   22.2251 O.3     1  UNL1       -0.4750
     24 C          -7.1062  -15.5094   25.9038 C.ar    1  UNL1        0.1726
     25 C          -8.5102  -16.0196   26.0388 C.ar    1  UNL1        0.0432
     26 C          -9.3246  -16.3079   24.8126 C.ar    1  UNL1        0.0402
     27 C          -8.7350  -16.0860   23.4513 C.ar    1  UNL1        0.1418
     28 C          -7.3309  -15.5758   23.3163 C.ar    1  UNL1        0.0769
     29 C          -6.5165  -15.2875   24.5425 C.ar    1  UNL1        0.1754
     30 C          -6.7662  -14.2017   28.1229 C.3     1  UNL1        0.2526
     31 O          -6.2917  -15.2210   27.1300 O.3     1  UNL1       -0.4684
     32 O          -5.1124  -14.7772   24.4074 O.3     1  UNL1       -0.4683
     33 C          -4.3560  -14.9920   23.1301 C.3     1  UNL1        0.2526
@<TRIPOS>BOND
     1    30    31    1
     2    31    24    1
     3    24    25   ar
     4    25    26   ar
     5    26    27   ar
     6    27    23    1
     7    23    22    1
     8     1    22    1
     9     1     4    1
    10     4     5   ar
    11     5     6   ar
    12     6     7   ar
    13     7     8   ar
    14     8     9   ar
    15     1     2    1
    16     2     3    1
    17     3    10    1
    18    10    11    2
    19    10    12   am
    20    12    14    1
    21    14    15   ar
    22    15    16   ar
    23    16    17   ar
    24    17    20    1
    25    20    21    3
    26    17    18   ar
    27    18    19   ar
    28    27    28   ar
    29    28    29   ar
    30    29    32    1
    31    32    33    1
    32    29    24   ar
    33     3     1    1
    34    19    14   ar
    35     9     4   ar
    36    12    13    1
@<TRIPOS>MOLECULE
*****
 33 36 0 0 0
SMALL
GASTEIGER

@<TRIPOS>ATOM
      1 C         -10.1870  -18.8204   22.5631 C.3     1  UNL1        0.0678
      2 C          -9.8030  -19.9548   23.4662 C.3     1  UNL1        0.0177
      3 C          -8.8064  -19.4023   22.4909 C.3     1  UNL1        0.0845
      4 C         -11.6054  -18.6068   23.0019 C.ar    1  UNL1       -0.0188
      5 C         -12.6573  -18.2526   21.9930 C.ar    1  UNL1       -0.0042
      6 C         -14.0757  -18.0391   22.4318 C.ar    1  UNL1       -0.0003
      7 C         -14.4421  -18.1797   23.8796 C.ar    1  UNL1       -0.0000
      8 C         -13.3902  -18.5339   24.8885 C.ar    1  UNL1       -0.0003
      9 C         -11.9718  -18.7475   24.4497 C.ar    1  UNL1       -0.0042
     10 C          -7.4337  -19.4191   21.8861 C.2     1  UNL1        0.2271
     11 O          -7.1580  -20.2602   20.6751 O.2     1  UNL1       -0.2747
     12 N          -6.3369  -18.5948   22.4923 N.am    1  UNL1       -0.2693
     13 H          -6.5178  -18.0428   23.2872 H       1  UNL1        0.1563
     14 C          -4.9643  -18.6116   21.8876 C.ar    1  UNL1        0.1342
     15 C          -3.7545  -18.6403   22.7739 C.ar    1  UNL1        0.0352
     16 C          -2.3820  -18.6571   22.1691 C.ar    1  UNL1        0.0147
     17 C          -2.2191  -18.6452   20.6780 C.ar    1  UNL1        0.0877
     18 C          -3.4289  -18.6166   19.7917 C.ar    1  UNL1        0.1105
     19 N          -4.8015  -18.5997   20.3964 N.ar    1  UNL1       -0.2283
     20 C          -0.8466  -18.6620   20.0733 C.1     1  UNL1        0.1020
     21 N           0.5259  -18.6788   19.4685 N.1     1  UNL1       -0.1908
     22 C         -10.0784  -17.7602   21.5076 C.3     1  UNL1        0.2097
     23 O          -9.9636  -16.3177   21.9025 O.3     1  UNL1       -0.4750
     24 C          -6.8421  -15.0423   24.8823 C.ar    1  UNL1        0.1726
     25 C          -6.5101  -15.0849   23.4202 C.ar    1  UNL1        0.0432
     26 C          -7.5506  -15.5100   22.4269 C.ar    1  UNL1        0.0402
     27 C          -8.9231  -15.8926   22.8958 C.ar    1  UNL1        0.1418
     28 C          -9.2551  -15.8500   24.3579 C.ar    1  UNL1        0.0769
     29 C          -8.2146  -15.4248   25.3512 C.ar    1  UNL1        0.1754
     30 C          -4.9028  -15.6401   26.5045 C.3     1  UNL1        0.2526
     31 O          -5.8016  -14.6171   25.8756 O.3     1  UNL1       -0.4684
     32 O          -8.5466  -15.3822   26.8134 O.3     1  UNL1       -0.4683
     33 C          -8.3459  -16.6014   27.6639 C.3     1  UNL1        0.2526
@<TRIPOS>BOND
     1    30    31    1
     2    31    24    1
     3    24    25   ar
     4    25    26   ar
     5    26    27   ar
     6    27    23    1
     7    23    22    1
     8     1    22    1
     9     1     4    1
    10     4     5   ar
    11     5     6   ar
    12     6     7   ar
    13     7     8   ar
    14     8     9   ar
    15     1     2    1
    16     2     3    1
    17     3    10    1
    18    10    11    2
    19    10    12   am
    20    12    14    1
    21    14    15   ar
    22    15    16   ar
    23    16    17   ar
    24    17    20    1
    25    20    21    3
    26    17    18   ar
    27    18    19   ar
    28    27    28   ar
    29    28    29   ar
    30    29    32    1
    31    32    33    1
    32    29    24   ar
    33     3     1    1
    34    19    14   ar
    35     9     4   ar
    36    12    13    1
@<TRIPOS>MOLECULE
*****
 33 36 0 0 0
SMALL
GASTEIGER

@<TRIPOS>ATOM
      1 C          -4.6094  -18.7942   20.8825 C.3     1  UNL1        0.0678
      2 C          -5.3429  -19.1598   19.6262 C.3     1  UNL1        0.0177
      3 C          -6.0818  -19.0770   20.9288 C.3     1  UNL1        0.0845
      4 C          -3.2247  -18.6170   20.3336 C.ar    1  UNL1       -0.0188
      5 C          -3.0243  -17.9510   19.0046 C.ar    1  UNL1       -0.0042
      6 C          -1.6397  -17.7738   18.4557 C.ar    1  UNL1       -0.0003
      7 C          -0.4554  -18.2628   19.2358 C.ar    1  UNL1       -0.0000
      8 C          -0.6558  -18.9288   20.5647 C.ar    1  UNL1       -0.0003
      9 C          -2.0405  -19.1060   21.1137 C.ar    1  UNL1       -0.0042
     10 C          -7.3585  -19.1924   21.7078 C.2     1  UNL1        0.2271
     11 O          -7.5956  -20.3844   22.5869 O.2     1  UNL1       -0.2747
     12 N          -8.3982  -18.1158   21.6076 N.am    1  UNL1       -0.2693
     13 H          -8.2426  -17.3334   21.0306 H       1  UNL1        0.1563
     14 C          -9.6748  -18.2311   22.3865 C.ar    1  UNL1        0.1342
     15 C         -10.9735  -17.8107   21.7646 C.ar    1  UNL1        0.0352
     16 C         -12.2501  -17.9260   22.5435 C.ar    1  UNL1        0.0147
     17 C         -12.2283  -18.4619   23.9443 C.ar    1  UNL1        0.0877
     18 C         -10.9297  -18.8824   24.5662 C.ar    1  UNL1        0.1105
     19 N          -9.6530  -18.7670   23.7874 N.ar    1  UNL1       -0.2283
     20 C         -13.5050  -18.5773   24.7232 C.1     1  UNL1        0.1020
     21 N         -14.7816  -18.6926   25.5021 N.1     1  UNL1       -0.1908
     22 C          -4.3569  -18.4902   22.3295 C.3     1  UNL1        0.2097
     23 O          -4.1146  -17.0762   22.7676 O.3     1  UNL1       -0.4750
     24 C          -6.4122  -15.3718   26.2412 C.ar    1  UNL1        0.1726
     25 C          -5.0906  -16.0425   26.4728 C.ar    1  UNL1        0.0432
     26 C          -4.3248  -16.6107   25.3149 C.ar    1  UNL1        0.0402
     27 C          -4.8804  -16.5081   23.9255 C.ar    1  UNL1        0.1418
     28 C          -6.2020  -15.8374   23.6939 C.ar    1  UNL1        0.0769
     29 C          -6.9678  -15.2692   24.8517 C.ar    1  UNL1        0.1754
     30 C          -8.4831  -15.4188   27.8093 C.3     1  UNL1        0.2526
     31 O          -7.1780  -14.8037   27.3991 O.3     1  UNL1       -0.4684
     32 O          -8.2894  -14.5985   24.6201 O.3     1  UNL1       -0.4683
     33 C          -9.5083  -15.4231   24.3298 C.3     1  UNL1        0.2526
@<TRIPOS>BOND
     1    30    31    1
     2    31    24    1
     3    24    25   ar
     4    25    26   ar
     5    26    27   ar
     6    27    23    1
     7    23    22    1
     8     1    22    1
     9     1     4    1
    10     4     5   ar
    11     5     6   ar
    12     6     7   ar
    13     7     8   ar
    14     8     9   ar
    15     1     2    1
    16     2     3    1
    17     3    10    1
    18    10    11    2
    19    10    12   am
    20    12    14    1
    21    14    15   ar
    22    15    16   ar
    23    16    17   ar
    24    17    20    1
    25    20    21    3
    26    17    18   ar
    27    18    19   ar
    28    27    28   ar
    29    28    29   ar
    30    29    32    1
    31    32    33    1
    32    29    24   ar
    33     3     1    1
    34    19    14   ar
    35     9     4   ar
    36    12    13    1
@<TRIPOS>MOLECULE
*****
 33 36 0 0 0
SMALL
GASTEIGER

@<TRIPOS>ATOM
      1 C           1.6732    1.5749   19.1050 C.3     1  UNL1        0.0678
      2 C           1.6339    2.9449   18.4955 C.3     1  UNL1        0.0177
      3 C           0.5614    2.5194   19.4537 C.3     1  UNL1        0.0845
      4 C           2.9221    1.0418   18.4677 C.ar    1  UNL1       -0.0188
      5 C           2.8489   -0.1413   17.5486 C.ar    1  UNL1       -0.0042
      6 C           4.0977   -0.6743   16.9113 C.ar    1  UNL1       -0.0003
      7 C           5.4198   -0.0241   17.1930 C.ar    1  UNL1       -0.0000
      8 C           5.4930    1.1590   18.1121 C.ar    1  UNL1       -0.0003
      9 C           4.2442    1.6921   18.7494 C.ar    1  UNL1       -0.0042
     10 C          -0.6999    2.8191   20.2085 C.2     1  UNL1        0.2271
     11 O          -0.8395    2.3863   21.6379 O.2     1  UNL1       -0.2747
     12 N          -1.8216    3.5516   19.5337 N.am    1  UNL1       -0.2693
     13 H          -1.7300    3.8357   18.5955 H       1  UNL1        0.1563
     14 C          -3.0828    3.8513   20.2883 C.ar    1  UNL1        0.1342
     15 C          -3.6140    5.2533   20.3345 C.ar    1  UNL1        0.0352
     16 C          -4.8752    5.5530   21.0891 C.ar    1  UNL1        0.0147
     17 C          -5.6053    4.4508   21.7976 C.ar    1  UNL1        0.0877
     18 C          -5.0741    3.0487   21.7513 C.ar    1  UNL1        0.1105
     19 N          -3.8129    2.7490   20.9968 N.ar    1  UNL1       -0.2283
     20 C          -6.8665    4.7504   22.5522 C.1     1  UNL1        0.1020
     21 N          -8.1277    5.0501   23.3068 N.1     1  UNL1       -0.1908
     22 C           1.2787    0.3900   19.9360 C.3     1  UNL1        0.2097
     23 O           1.8305    0.2284   21.3213 O.3     1  UNL1       -0.4750
     24 C           4.7351   -3.0910   22.2132 C.ar    1  UNL1        0.1726
     25 C           4.2859   -2.1724   23.3106 C.ar    1  UNL1        0.0432
     26 C           3.3177   -1.0660   23.0133 C.ar    1  UNL1        0.0402
     27 C           2.7987   -0.8781   21.6186 C.ar    1  UNL1        0.1418
     28 C           3.2479   -1.7967   20.5212 C.ar    1  UNL1        0.0769
     29 C           4.2161   -2.9031   20.8185 C.ar    1  UNL1        0.1754
     30 C           6.5546   -4.1378   23.7440 C.3     1  UNL1        0.2526
     31 O           5.7032   -4.1975   22.5105 O.3     1  UNL1       -0.4684
     32 O           4.6653   -3.8217   19.7210 O.3     1  UNL1       -0.4683
     33 C           3.7488   -4.8997   19.2231 C.3     1  UNL1        0.2526
@<TRIPOS>BOND
     1    30    31    1
     2    31    24    1
     3    24    25   ar
     4    25    26   ar
     5    26    27   ar
     6    27    23    1
     7    23    22    1
     8     1    22    1
     9     1     4    1
    10     4     5   ar
    11     5     6   ar
    12     6     7   ar
    13     7     8   ar
    14     8     9   ar
    15     1     2    1
    16     2     3    1
    17     3    10    1
    18    10    11    2
    19    10    12   am
    20    12    14    1
    21    14    15   ar
    22    15    16   ar
    23    16    17   ar
    24    17    20    1
    25    20    21    3
    26    17    18   ar
    27    18    19   ar
    28    27    28   ar
    29    28    29   ar
    30    29    32    1
    31    32    33    1
    32    29    24   ar
    33     3     1    1
    34    19    14   ar
    35     9     4   ar
    36    12    13    1
@<TRIPOS>MOLECULE
*****
 33 36 0 0 0
SMALL
GASTEIGER

@<TRIPOS>ATOM
      1 C           0.4461    2.4390   19.5175 C.3     1  UNL1        0.0678
      2 C           0.0046    3.2521   18.3369 C.3     1  UNL1        0.0177
      3 C          -0.8126    3.2512   19.5947 C.3     1  UNL1        0.0845
      4 C           1.7030    1.8364   18.9635 C.ar    1  UNL1       -0.0188
      5 C           1.6823    0.4483   18.3956 C.ar    1  UNL1       -0.0042
      6 C           2.9393   -0.1542   17.8416 C.ar    1  UNL1       -0.0003
      7 C           4.2170    0.6315   17.8554 C.ar    1  UNL1       -0.0000
      8 C           4.2377    2.0196   18.4233 C.ar    1  UNL1       -0.0003
      9 C           2.9808    2.6222   18.9773 C.ar    1  UNL1       -0.0042
     10 C          -2.0112    3.7197   20.3655 C.2     1  UNL1        0.2271
     11 O          -1.9972    5.0645   21.0297 O.2     1  UNL1       -0.2747
     12 N          -3.2238    2.8432   20.4721 N.am    1  UNL1       -0.2693
     13 H          -3.2330    1.9605   20.0362 H       1  UNL1        0.1563
     14 C          -4.4223    3.3115   21.2429 C.ar    1  UNL1        0.1342
     15 C          -4.4717    3.1369   22.7319 C.ar    1  UNL1        0.0352
     16 C          -5.6702    3.6053   23.5026 C.ar    1  UNL1        0.0147
     17 C          -6.8195    4.2483   22.7845 C.ar    1  UNL1        0.0877
     18 C          -6.7701    4.4229   21.2955 C.ar    1  UNL1        0.1105
     19 N          -5.5716    3.9545   20.5247 N.ar    1  UNL1       -0.2283
     20 C          -8.0180    4.7166   23.5553 C.1     1  UNL1        0.1020
     21 N          -9.2165    5.1850   24.3260 N.1     1  UNL1       -0.1908
     22 C           0.4510    1.8351   20.8906 C.3     1  UNL1        0.2097
     23 O           0.9641    2.6271   22.0565 O.3     1  UNL1       -0.4750
     24 C          -0.8162    2.0236   26.1450 C.ar    1  UNL1        0.1726
     25 C           0.3391    1.1780   25.6978 C.ar    1  UNL1        0.0432
     26 C           0.9325    1.3791   24.3349 C.ar    1  UNL1        0.0402
     27 C           0.3707    2.4260   23.4193 C.ar    1  UNL1        0.1418
     28 C          -0.7847    3.2716   23.8665 C.ar    1  UNL1        0.0769
     29 C          -1.3781    3.0704   25.2294 C.ar    1  UNL1        0.1754
     30 C          -0.9443    0.6851   28.3681 C.3     1  UNL1        0.2526
     31 O          -1.4097    1.8224   27.5078 O.3     1  UNL1       -0.4684
     32 O          -2.5335    3.9161   25.6766 O.3     1  UNL1       -0.4683
     33 C          -2.2931    5.1164   26.5434 C.3     1  UNL1        0.2526
@<TRIPOS>BOND
     1    30    31    1
     2    31    24    1
     3    24    25   ar
     4    25    26   ar
     5    26    27   ar
     6    27    23    1
     7    23    22    1
     8     1    22    1
     9     1     4    1
    10     4     5   ar
    11     5     6   ar
    12     6     7   ar
    13     7     8   ar
    14     8     9   ar
    15     1     2    1
    16     2     3    1
    17     3    10    1
    18    10    11    2
    19    10    12   am
    20    12    14    1
    21    14    15   ar
    22    15    16   ar
    23    16    17   ar
    24    17    20    1
    25    20    21    3
    26    17    18   ar
    27    18    19   ar
    28    27    28   ar
    29    28    29   ar
    30    29    32    1
    31    32    33    1
    32    29    24   ar
    33     3     1    1
    34    19    14   ar
    35     9     4   ar
    36    12    13    1
@<TRIPOS>MOLECULE
*****
 33 36 0 0 0
SMALL
GASTEIGER

@<TRIPOS>ATOM
      1 C           7.0820   -4.3226   26.4846 C.3     1  UNL1        0.0678
      2 C           7.0182   -5.7558   26.0466 C.3     1  UNL1        0.0177
      3 C           6.7877   -4.6568   25.0522 C.3     1  UNL1        0.0845
      4 C           7.3914   -4.5086   27.9405 C.ar    1  UNL1       -0.0188
      5 C           6.4850   -5.3394   28.7997 C.ar    1  UNL1       -0.0042
      6 C           6.7945   -5.5254   30.2556 C.ar    1  UNL1       -0.0003
      7 C           8.0103   -4.8806   30.8522 C.ar    1  UNL1       -0.0000
      8 C           8.9167   -4.0498   29.9930 C.ar    1  UNL1       -0.0003
      9 C           8.6073   -3.8638   28.5371 C.ar    1  UNL1       -0.0042
     10 C           6.4847   -4.2152   23.6510 C.2     1  UNL1        0.2271
     11 O           7.3469   -4.6801   22.5150 O.2     1  UNL1       -0.2747
     12 N           5.3195   -3.3085   23.3858 N.am    1  UNL1       -0.2693
     13 H           4.7536   -3.0033   24.1314 H       1  UNL1        0.1563
     14 C           5.0165   -2.8669   21.9848 C.ar    1  UNL1        0.1342
     15 C           4.2873   -3.7858   21.0499 C.ar    1  UNL1        0.0352
     16 C           3.9843   -3.3441   19.6488 C.ar    1  UNL1        0.0147
     17 C           4.4104   -1.9836   19.1825 C.ar    1  UNL1        0.0877
     18 C           5.1395   -1.0647   20.1174 C.ar    1  UNL1        0.1105
     19 N           5.4426   -1.5063   21.5185 N.ar    1  UNL1       -0.2283
     20 C           4.1074   -1.5420   17.7814 C.1     1  UNL1        0.1020
     21 N           3.8044   -1.1003   16.3803 N.1     1  UNL1       -0.1908
     22 C           7.0382   -2.8247   26.4169 C.3     1  UNL1        0.2097
     23 O           5.7201   -2.1170   26.3085 O.3     1  UNL1       -0.4750
     24 C           3.6608   -0.6155   30.0172 C.ar    1  UNL1        0.1726
     25 C           5.1211   -0.9559   30.0558 C.ar    1  UNL1        0.0432
     26 C           5.8076   -1.4564   28.8196 C.ar    1  UNL1        0.0402
     27 C           5.0337   -1.6165   27.5447 C.ar    1  UNL1        0.1418
     28 C           3.5734   -1.2762   27.5060 C.ar    1  UNL1        0.0769
     29 C           2.8869   -0.7756   28.7423 C.ar    1  UNL1        0.1754
     30 C           3.6077   -0.3189   32.5977 C.3     1  UNL1        0.2526
     31 O           2.9743   -0.1150   31.2534 O.3     1  UNL1       -0.4684
     32 O           1.4265   -0.4353   28.7035 O.3     1  UNL1       -0.4683
     33 C           0.9700    0.8373   28.0539 C.3     1  UNL1        0.2526
@<TRIPOS>BOND
     1    30    31    1
     2    31    24    1
     3    24    25   ar
     4    25    26   ar
     5    26    27   ar
     6    27    23    1
     7    23    22    1
     8     1    22    1
     9     1     4    1
    10     4     5   ar
    11     5     6   ar
    12     6     7   ar
    13     7     8   ar
    14     8     9   ar
    15     1     2    1
    16     2     3    1
    17     3    10    1
    18    10    11    2
    19    10    12   am
    20    12    14    1
    21    14    15   ar
    22    15    16   ar
    23    16    17   ar
    24    17    20    1
    25    20    21    3
    26    17    18   ar
    27    18    19   ar
    28    27    28   ar
    29    28    29   ar
    30    29    32    1
    31    32    33    1
    32    29    24   ar
    33     3     1    1
    34    19    14   ar
    35     9     4   ar
    36    12    13    1
@<TRIPOS>MOLECULE
*****
 33 36 0 0 0
SMALL
GASTEIGER

@<TRIPOS>ATOM
      1 C           3.9566   -1.9118   22.6241 C.3     1  UNL1        0.0678
      2 C           3.2394   -0.6344   22.3020 C.3     1  UNL1        0.0177
      3 C           3.5766   -0.9667   23.7252 C.3     1  UNL1        0.0845
      4 C           4.1054   -2.4820   21.2447 C.ar    1  UNL1       -0.0188
      5 C           4.6177   -3.8799   21.0623 C.ar    1  UNL1       -0.0042
      6 C           4.7665   -4.4501   19.6829 C.ar    1  UNL1       -0.0003
      7 C           4.4030   -3.6223   18.4859 C.ar    1  UNL1       -0.0000
      8 C           3.8907   -2.2244   18.6684 C.ar    1  UNL1       -0.0003
      9 C           3.7419   -1.6542   20.0478 C.ar    1  UNL1       -0.0042
     10 C           3.5520   -0.6129   25.1828 C.2     1  UNL1        0.2271
     11 O           3.3302    0.8090   25.6058 O.2     1  UNL1       -0.2747
     12 N           3.7492   -1.6811   26.2172 N.am    1  UNL1       -0.2693
     13 H           3.8948   -2.6144   25.9396 H       1  UNL1        0.1563
     14 C           3.7246   -1.3275   27.6747 C.ar    1  UNL1        0.1342
     15 C           4.9939   -1.3504   28.4736 C.ar    1  UNL1        0.0352
     16 C           4.9693   -0.9967   29.9310 C.ar    1  UNL1        0.0147
     17 C           3.6754   -0.6201   30.5897 C.ar    1  UNL1        0.0877
     18 C           2.4061   -0.5971   29.7908 C.ar    1  UNL1        0.1105
     19 N           2.4306   -0.9508   28.3333 N.ar    1  UNL1       -0.2283
     20 C           3.6508   -0.2664   32.0472 C.1     1  UNL1        0.1020
     21 N           3.6262    0.0873   33.5046 N.1     1  UNL1       -0.1908
     22 C           4.6222   -2.9911   23.4254 C.3     1  UNL1        0.2097
     23 O           5.9703   -2.7484   24.0365 O.3     1  UNL1       -0.4750
     24 C           8.2324   -6.1519   25.9205 C.ar    1  UNL1        0.1726
     25 C           8.1005   -6.0739   24.4284 C.ar    1  UNL1        0.0432
     26 C           7.3464   -4.9394   23.8004 C.ar    1  UNL1        0.0402
     27 C           6.7243   -3.8829   24.6645 C.ar    1  UNL1        0.1418
     28 C           6.8563   -3.9609   26.1566 C.ar    1  UNL1        0.0769
     29 C           7.6103   -5.0954   26.7846 C.ar    1  UNL1        0.1754
     30 C           8.2549   -8.5180   26.9933 C.3     1  UNL1        0.2526
     31 O           8.9864   -7.2864   26.5485 O.3     1  UNL1       -0.4684
     32 O           7.7422   -5.1734   28.2768 O.3     1  UNL1       -0.4683
     33 C           6.6218   -4.7000   29.1545 C.3     1  UNL1        0.2526
@<TRIPOS>BOND
     1    30    31    1
     2    31    24    1
     3    24    25   ar
     4    25    26   ar
     5    26    27   ar
     6    27    23    1
     7    23    22    1
     8     1    22    1
     9     1     4    1
    10     4     5   ar
    11     5     6   ar
    12     6     7   ar
    13     7     8   ar
    14     8     9   ar
    15     1     2    1
    16     2     3    1
    17     3    10    1
    18    10    11    2
    19    10    12   am
    20    12    14    1
    21    14    15   ar
    22    15    16   ar
    23    16    17   ar
    24    17    20    1
    25    20    21    3
    26    17    18   ar
    27    18    19   ar
    28    27    28   ar
    29    28    29   ar
    30    29    32    1
    31    32    33    1
    32    29    24   ar
    33     3     1    1
    34    19    14   ar
    35     9     4   ar
    36    12    13    1
@<TRIPOS>MOLECULE
*****
 33 36 0 0 0
SMALL
GASTEIGER

@<TRIPOS>ATOM
      1 C          -1.9769    4.0602   18.7580 C.3     1  UNL1        0.0678
      2 C          -1.3465    4.0950   17.3974 C.3     1  UNL1        0.0177
      3 C          -0.6783    3.3499   18.5145 C.3     1  UNL1        0.0845
      4 C          -3.2046    4.8817   18.4975 C.ar    1  UNL1       -0.0188
      5 C          -4.2618    4.3745   17.5621 C.ar    1  UNL1       -0.0042
      6 C          -5.4895    5.1960   17.3016 C.ar    1  UNL1       -0.0003
      7 C          -5.6599    6.5248   17.9765 C.ar    1  UNL1       -0.0000
      8 C          -4.6027    7.0320   18.9119 C.ar    1  UNL1       -0.0003
      9 C          -3.3750    6.2105   19.1724 C.ar    1  UNL1       -0.0042
     10 C           0.4572    2.5096   19.0190 C.2     1  UNL1        0.2271
     11 O           1.2523    2.9594   20.2088 O.2     1  UNL1       -0.2747
     12 N           0.7976    1.2194   18.3338 N.am    1  UNL1       -0.2693
     13 H           0.2757    0.9241   17.5529 H       1  UNL1        0.1563
     14 C           1.9331    0.3790   18.8382 C.ar    1  UNL1        0.1342
     15 C           1.7143   -0.5711   19.9781 C.ar    1  UNL1        0.0352
     16 C           2.8497   -1.4114   20.4826 C.ar    1  UNL1        0.0147
     17 C           4.2040   -1.3017   19.8472 C.ar    1  UNL1        0.0877
     18 C           4.4228   -0.3516   18.7072 C.ar    1  UNL1        0.1105
     19 N           3.2874    0.4888   18.2027 N.ar    1  UNL1       -0.2283
     20 C           5.3395   -2.1421   20.3516 C.1     1  UNL1        0.1020
     21 N           6.4749   -2.9824   20.8560 N.1     1  UNL1       -0.1908
     22 C          -2.1808    3.7401   20.2092 C.3     1  UNL1        0.2097
     23 O          -3.2803    2.8081   20.6243 O.3     1  UNL1       -0.4750
     24 C          -6.6003    4.2858   23.2783 C.ar    1  UNL1        0.1726
     25 C          -6.7062    4.4374   21.7898 C.ar    1  UNL1        0.0432
     26 C          -5.5995    3.9448   20.9051 C.ar    1  UNL1        0.0402
     27 C          -4.3870    3.3007   21.5090 C.ar    1  UNL1        0.1418
     28 C          -4.2811    3.1491   22.9975 C.ar    1  UNL1        0.0769
     29 C          -5.3878    3.6416   23.8822 C.ar    1  UNL1        0.1754
     30 C          -7.5983    6.1208   24.8232 C.3     1  UNL1        0.2526
     31 O          -7.7070    4.7784   24.1630 O.3     1  UNL1       -0.4684
     32 O          -5.2819    3.4900   25.3708 O.3     1  UNL1       -0.4683
     33 C          -4.0434    3.9443   26.0847 C.3     1  UNL1        0.2526
@<TRIPOS>BOND
     1    30    31    1
     2    31    24    1
     3    24    25   ar
     4    25    26   ar
     5    26    27   ar
     6    27    23    1
     7    23    22    1
     8     1    22    1
     9     1     4    1
    10     4     5   ar
    11     5     6   ar
    12     6     7   ar
    13     7     8   ar
    14     8     9   ar
    15     1     2    1
    16     2     3    1
    17     3    10    1
    18    10    11    2
    19    10    12   am
    20    12    14    1
    21    14    15   ar
    22    15    16   ar
    23    16    17   ar
    24    17    20    1
    25    20    21    3
    26    17    18   ar
    27    18    19   ar
    28    27    28   ar
    29    28    29   ar
    30    29    32    1
    31    32    33    1
    32    29    24   ar
    33     3     1    1
    34    19    14   ar
    35     9     4   ar
    36    12    13    1
@<TRIPOS>MOLECULE
*****
 33 36 0 0 0
SMALL
GASTEIGER

@<TRIPOS>ATOM
      1 C           1.8549    1.8923   18.7230 C.3     1  UNL1        0.0678
      2 C           2.3406    3.2990   18.9104 C.3     1  UNL1        0.0177
      3 C           0.9124    2.9526   19.2104 C.3     1  UNL1        0.0845
      4 C           3.1185    1.2422   18.2428 C.ar    1  UNL1       -0.0188
      5 C           4.4411    1.9099   18.4765 C.ar    1  UNL1       -0.0042
      6 C           5.7047    1.2598   17.9963 C.ar    1  UNL1       -0.0003
      7 C           5.6456   -0.0581   17.2823 C.ar    1  UNL1       -0.0000
      8 C           4.3230   -0.7258   17.0485 C.ar    1  UNL1       -0.0003
      9 C           3.0594   -0.0757   17.5288 C.ar    1  UNL1       -0.0042
     10 C          -0.4564    3.3647   19.6650 C.2     1  UNL1        0.2271
     11 O          -1.2056    4.4291   18.9194 O.2     1  UNL1       -0.2747
     12 N          -1.0761    2.7124   20.8652 N.am    1  UNL1       -0.2693
     13 H          -0.5844    2.0138   21.3546 H       1  UNL1        0.1563
     14 C          -2.4448    3.1244   21.3198 C.ar    1  UNL1        0.1342
     15 C          -2.6246    3.7851   22.6545 C.ar    1  UNL1        0.0352
     16 C          -3.9933    4.1971   23.1091 C.ar    1  UNL1        0.0147
     17 C          -5.1824    3.9486   22.2292 C.ar    1  UNL1        0.0877
     18 C          -5.0026    3.2879   20.8945 C.ar    1  UNL1        0.1105
     19 N          -3.6339    2.8758   20.4398 N.ar    1  UNL1       -0.2283
     20 C          -6.5511    4.3606   22.6838 C.1     1  UNL1        0.1020
     21 N          -7.9198    4.7727   23.1384 N.1     1  UNL1       -0.1908
     22 C           0.9302    0.7114   18.7023 C.3     1  UNL1        0.2097
     23 O           0.5410    0.0410   19.9865 O.3     1  UNL1       -0.4750
     24 C           3.5321   -0.3286   23.3282 C.ar    1  UNL1        0.1726
     25 C           2.4152    0.6676   23.4281 C.ar    1  UNL1        0.0432
     26 C           1.4182    0.7908   22.3142 C.ar    1  UNL1        0.0402
     27 C           1.5381   -0.0822   21.1004 C.ar    1  UNL1        0.1418
     28 C           2.6549   -1.0785   21.0005 C.ar    1  UNL1        0.0769
     29 C           3.6519   -1.2017   22.1144 C.ar    1  UNL1        0.1754
     30 C           4.2995   -1.4383   25.5485 C.3     1  UNL1        0.2526
     31 O           4.5291   -0.4518   24.4421 O.3     1  UNL1       -0.4684
     32 O           4.7688   -2.1980   22.0144 O.3     1  UNL1       -0.4683
     33 C           4.5607   -3.6076   22.4832 C.3     1  UNL1        0.2526
@<TRIPOS>BOND
     1    30    31    1
     2    31    24    1
     3    24    25   ar
     4    25    26   ar
     5    26    27   ar
     6    27    23    1
     7    23    22    1
     8     1    22    1
     9     1     4    1
    10     4     5   ar
    11     5     6   ar
    12     6     7   ar
    13     7     8   ar
    14     8     9   ar
    15     1     2    1
    16     2     3    1
    17     3    10    1
    18    10    11    2
    19    10    12   am
    20    12    14    1
    21    14    15   ar
    22    15    16   ar
    23    16    17   ar
    24    17    20    1
    25    20    21    3
    26    17    18   ar
    27    18    19   ar
    28    27    28   ar
    29    28    29   ar
    30    29    32    1
    31    32    33    1
    32    29    24   ar
    33     3     1    1
    34    19    14   ar
    35     9     4   ar
    36    12    13    1
