@<TRIPOS>MOLECULE
*****
 33 35 0 0 0
SMALL
GASTEIGER

@<TRIPOS>ATOM
      1 C           7.5279   -4.6658   24.5351 C.2     1  UNL1        0.2490
      2 O           8.9832   -4.6076   24.8937 O.2     1  UNL1       -0.2726
      3 N           6.5373   -5.2304   25.5097 N.am    1  UNL1       -0.2974
      4 H           5.5821   -5.2686   25.2744 H       1  UNL1        0.1499
      5 C           8.9245   -5.2911   21.6527 C.3     1  UNL1        0.0289
      6 C           7.7051   -4.4468   21.8769 C.2     1  UNL1       -0.0118
      7 C           6.9136   -3.7418   20.8157 C.2     1  UNL1        0.0141
      8 C           5.7824   -3.0186   21.4846 C.2     1  UNL1        0.0939
      9 N           5.8748   -3.2767   22.9593 N.2     1  UNL1       -0.2574
     10 C           7.0631   -4.1594   23.2018 C.3     1  UNL1        0.1973
     11 C           4.7415   -2.1838   20.7992 C.ar    1  UNL1        0.0985
     12 C           3.5874   -1.6319   21.5824 C.ar    1  UNL1        0.0206
     13 C           2.5466   -0.7972   20.8969 C.ar    1  UNL1        0.0070
     14 C           2.6599   -0.5144   19.4282 C.ar    1  UNL1        0.0905
     15 C           3.8139   -1.0663   18.6449 C.ar    1  UNL1        0.1027
     16 N           4.8547   -1.9010   19.3304 N.ar    1  UNL1       -0.2424
     17 C           1.6190    0.3203   18.7427 C.3     1  UNL1        0.4200
     18 F           0.5782    1.1551   18.0573 F       1  UNL1       -0.1658
     19 F           0.5785   -0.1988   19.6903 F       1  UNL1       -0.1658
     20 F           2.6594    0.8395   17.7951 F       1  UNL1       -0.1658
     21 C           7.0021   -5.7368   26.8430 C.3     1  UNL1        0.1339
     22 C           6.8558   -4.8778   28.0639 C.ar    1  UNL1        0.1072
     23 N           6.6310   -3.3948   28.0769 N.ar    1  UNL1       -0.2397
     24 C           6.5450   -2.9515   29.5073 C.ar    1  UNL1        0.1037
     25 C           6.7167   -4.1605   30.3785 C.ar    1  UNL1        0.0568
     26 S           6.9088   -5.3510   29.4863 S.2     1  UNL1       -0.0710
     27 C           6.6994   -4.1762   31.8782 C.3     1  UNL1        0.1717
     28 O           6.4333   -5.4573   32.6119 O.3     1  UNL1       -0.3767
     29 H           5.5247   -5.7479   32.4360 H       1  UNL1        0.2109
     30 C           7.6130   -7.1021   26.9553 C.3     1  UNL1        0.0917
     31 N           6.8114   -8.3150   26.5866 N.3     1  UNL1       -0.3194
     32 H           6.0352   -8.4211   27.2398 H       1  UNL1        0.1189
     33 H           7.4070   -9.1420   26.6291 H       1  UNL1        0.1189
@<TRIPOS>BOND
     1     5     6    1
     2     6     7    2
     3     7     8    1
     4     8    11    1
     5    11    12   ar
     6    12    13   ar
     7    13    14   ar
     8    14    17    1
     9    17    18    1
    10    17    19    1
    11    17    20    1
    12    14    15   ar
    13    15    16   ar
    14     8     9    2
    15     9    10    1
    16    10     1    1
    17     1     2    2
    18     1     3   am
    19     3    21    1
    20    21    30    1
    21    30    31    1
    22    21    22    1
    23    22    23   ar
    24    23    24   ar
    25    24    25   ar
    26    25    27    1
    27    27    28    1
    28    25    26   ar
    29    10     6    1
    30    26    22   ar
    31    16    11   ar
    32     3     4    1
    33    31    32    1
    34    31    33    1
    35    28    29    1
@<TRIPOS>MOLECULE
*****
 33 35 0 0 0
SMALL
GASTEIGER

@<TRIPOS>ATOM
      1 C           4.9318   -2.5110   19.5797 C.2     1  UNL1        0.2490
      2 O           4.0109   -3.4024   18.8004 O.2     1  UNL1       -0.2726
      3 N           4.7786   -1.0210   19.4998 N.am    1  UNL1       -0.2974
      4 H           5.3830   -0.4359   20.0113 H       1  UNL1        0.1499
      5 C           8.1466   -2.2899   19.0634 C.3     1  UNL1        0.0289
      6 C           7.4837   -3.0079   20.2014 C.2     1  UNL1       -0.0118
      7 C           8.1819   -3.7503   21.3019 C.2     1  UNL1        0.0141
      8 C           7.1359   -4.3108   22.2194 C.2     1  UNL1        0.0939
      9 N           5.7911   -3.9147   21.6859 N.2     1  UNL1       -0.2574
     10 C           6.0060   -3.1095   20.4387 C.3     1  UNL1        0.1973
     11 C           7.3901   -5.1244   23.4537 C.ar    1  UNL1        0.0985
     12 C           6.9664   -4.6044   24.7953 C.ar    1  UNL1        0.0206
     13 C           7.2206   -5.4180   26.0295 C.ar    1  UNL1        0.0070
     14 C           7.8985   -6.7518   25.9221 C.ar    1  UNL1        0.0905
     15 C           8.3222   -7.2718   24.5805 C.ar    1  UNL1        0.1027
     16 N           8.0680   -6.4582   23.3463 N.ar    1  UNL1       -0.2424
     17 C           8.1527   -7.5654   27.1564 C.3     1  UNL1        0.4200
     18 F           8.4069   -8.3791   28.3906 F       1  UNL1       -0.1658
     19 F           7.6972   -6.4172   28.0072 F       1  UNL1       -0.1658
     20 F           8.6082   -8.7137   26.3055 F       1  UNL1       -0.1658
     21 C           3.7044   -0.4224   18.6408 C.3     1  UNL1        0.1339
     22 C           2.4170    0.0350   19.2598 C.ar    1  UNL1        0.1072
     23 N           1.4955   -0.8010   20.0976 N.ar    1  UNL1       -0.2397
     24 C           0.3340    0.0562   20.5053 C.ar    1  UNL1        0.1037
     25 C           0.5376    1.4220   19.9194 C.ar    1  UNL1        0.0568
     26 S           1.8251    1.4088   19.1497 S.2     1  UNL1       -0.0710
     27 C          -0.3842    2.5948   20.0759 C.3     1  UNL1        0.1717
     28 O          -1.7621    2.3966   20.6347 O.3     1  UNL1       -0.3767
     29 H          -2.2860    1.8592   20.0201 H       1  UNL1        0.2109
     30 C           3.9177   -0.2814   17.1628 C.3     1  UNL1        0.0917
     31 N           3.7761   -1.4762   16.2672 N.3     1  UNL1       -0.3194
     32 H           4.5102   -2.1510   16.4819 H       1  UNL1        0.1189
     33 H           3.8580   -1.1830   15.2937 H       1  UNL1        0.1189
@<TRIPOS>BOND
     1     5     6    1
     2     6     7    2
     3     7     8    1
     4     8    11    1
     5    11    12   ar
     6    12    13   ar
     7    13    14   ar
     8    14    17    1
     9    17    18    1
    10    17    19    1
    11    17    20    1
    12    14    15   ar
    13    15    16   ar
    14     8     9    2
    15     9    10    1
    16    10     1    1
    17     1     2    2
    18     1     3   am
    19     3    21    1
    20    21    30    1
    21    30    31    1
    22    21    22    1
    23    22    23   ar
    24    23    24   ar
    25    24    25   ar
    26    25    27    1
    27    27    28    1
    28    25    26   ar
    29    10     6    1
    30    26    22   ar
    31    16    11   ar
    32     3     4    1
    33    31    32    1
    34    31    33    1
    35    28    29    1
@<TRIPOS>MOLECULE
*****
 33 35 0 0 0
SMALL
GASTEIGER

@<TRIPOS>ATOM
      1 C          -2.1376    3.3522   20.5067 C.2     1  UNL1        0.2490
      2 O          -2.0509    4.8460   20.6116 O.2     1  UNL1       -0.2726
      3 N          -3.4390    2.6559   20.7740 N.am    1  UNL1       -0.2974
      4 H          -3.4960    1.6755   20.7052 H       1  UNL1        0.1499
      5 C          -0.5205    3.5277   17.6776 C.3     1  UNL1        0.0289
      6 C          -0.1797    2.6354   18.8340 C.2     1  UNL1       -0.0118
      7 C           0.9643    1.6670   18.8932 C.2     1  UNL1        0.0141
      8 C           0.9281    0.9879   20.2302 C.2     1  UNL1        0.0939
      9 N          -0.2383    1.5365   20.9973 N.2     1  UNL1       -0.2574
     10 C          -0.9230    2.5547   20.1345 C.3     1  UNL1        0.1973
     11 C           1.8895   -0.0566   20.7149 C.ar    1  UNL1        0.0985
     12 C           2.3876   -1.1124   19.7730 C.ar    1  UNL1        0.0206
     13 C           3.3489   -2.1568   20.2578 C.ar    1  UNL1        0.0070
     14 C           3.8123   -2.1453   21.6844 C.ar    1  UNL1        0.0905
     15 C           3.3143   -1.0895   22.6262 C.ar    1  UNL1        0.1027
     16 N           2.3529   -0.0451   22.1415 N.ar    1  UNL1       -0.2424
     17 C           4.7737   -3.1897   22.1691 C.3     1  UNL1        0.4200
     18 F           5.7351   -4.2341   22.6538 F       1  UNL1       -0.1658
     19 F           5.2468   -3.4071   20.7624 F       1  UNL1       -0.1658
     20 F           4.3006   -2.9723   23.5758 F       1  UNL1       -0.1658
     21 C          -4.6537    3.4535   21.1462 C.3     1  UNL1        0.1339
     22 C          -4.9643    3.7172   22.5898 C.ar    1  UNL1        0.1072
     23 N          -6.2755    4.1999   23.1357 N.ar    1  UNL1       -0.2397
     24 C          -6.1398    4.3255   24.6242 C.ar    1  UNL1        0.1037
     25 C          -4.7448    3.9204   24.9984 C.ar    1  UNL1        0.0568
     26 S          -4.0183    3.5445   23.7410 S.2     1  UNL1       -0.0710
     27 C          -4.1761    3.8956   26.3861 C.3     1  UNL1        0.1717
     28 O          -4.7746    4.7583   27.4575 O.3     1  UNL1       -0.3767
     29 H          -4.6295    5.6922   27.2393 H       1  UNL1        0.2109
     30 C          -5.5577    3.9873   20.0749 C.3     1  UNL1        0.0917
     31 N          -7.0235    4.1548   20.3452 N.3     1  UNL1       -0.3194
     32 H          -7.4498    3.2392   20.4876 H       1  UNL1        0.1189
     33 H          -7.4655    4.6155   19.5497 H       1  UNL1        0.1189
@<TRIPOS>BOND
     1     5     6    1
     2     6     7    2
     3     7     8    1
     4     8    11    1
     5    11    12   ar
     6    12    13   ar
     7    13    14   ar
     8    14    17    1
     9    17    18    1
    10    17    19    1
    11    17    20    1
    12    14    15   ar
    13    15    16   ar
    14     8     9    2
    15     9    10    1
    16    10     1    1
    17     1     2    2
    18     1     3   am
    19     3    21    1
    20    21    30    1
    21    30    31    1
    22    21    22    1
    23    22    23   ar
    24    23    24   ar
    25    24    25   ar
    26    25    27    1
    27    27    28    1
    28    25    26   ar
    29    10     6    1
    30    26    22   ar
    31    16    11   ar
    32     3     4    1
    33    31    32    1
    34    31    33    1
    35    28    29    1
@<TRIPOS>MOLECULE
*****
 33 35 0 0 0
SMALL
GASTEIGER

@<TRIPOS>ATOM
      1 C           3.6430    0.4394   28.0775 C.2     1  UNL1        0.2490
      2 O           4.8001    1.3228   28.4388 O.2     1  UNL1       -0.2726
      3 N           2.8165   -0.1933   29.1576 N.am    1  UNL1       -0.2974
      4 H           2.0570   -0.7731   28.9204 H       1  UNL1        0.1499
      5 C           1.4483    2.0750   26.3003 C.3     1  UNL1        0.0289
      6 C           2.3035    0.9405   25.8191 C.2     1  UNL1       -0.0118
      7 C           2.3001    0.3585   24.4366 C.2     1  UNL1        0.0141
      8 C           3.3067   -0.7529   24.3990 C.2     1  UNL1        0.0939
      9 N           3.9323   -0.8579   25.7583 N.2     1  UNL1       -0.2574
     10 C           3.3123    0.1886   26.6360 C.3     1  UNL1        0.1973
     11 C           3.6309   -1.6091   23.2107 C.ar    1  UNL1        0.0985
     12 C           3.2242   -1.1687   21.8358 C.ar    1  UNL1        0.0206
     13 C           3.5484   -2.0248   20.6475 C.ar    1  UNL1        0.0070
     14 C           4.2792   -3.3213   20.8343 C.ar    1  UNL1        0.0905
     15 C           4.6859   -3.7617   22.2093 C.ar    1  UNL1        0.1027
     16 N           4.3618   -2.9056   23.3975 N.ar    1  UNL1       -0.2424
     17 C           4.6034   -4.1775   19.6460 C.3     1  UNL1        0.4200
     18 F           4.9275   -5.0336   18.4577 F       1  UNL1       -0.1658
     19 F           5.8986   -3.4419   19.4693 F       1  UNL1       -0.1658
     20 F           3.3082   -4.9131   19.8227 F       1  UNL1       -0.1658
     21 C           3.1472    0.0574   30.5990 C.3     1  UNL1        0.1339
     22 C           3.9020   -0.9729   31.3855 C.ar    1  UNL1        0.1072
     23 N           3.6325   -1.3690   32.8069 N.ar    1  UNL1       -0.2397
     24 C           4.6228   -2.4290   33.1885 C.ar    1  UNL1        0.1037
     25 C           5.5045   -2.6880   32.0029 C.ar    1  UNL1        0.0568
     26 S           5.0590   -1.7880   30.8886 S.2     1  UNL1       -0.0710
     27 C           6.6334   -3.6738   31.9423 C.3     1  UNL1        0.1717
     28 O           6.4679   -5.0411   32.5365 O.3     1  UNL1       -0.3767
     29 H           6.3697   -4.9659   33.4985 H       1  UNL1        0.2109
     30 C           2.7230    1.3385   31.2540 C.3     1  UNL1        0.0917
     31 N           1.8404    1.3046   32.4663 N.3     1  UNL1       -0.3194
     32 H           0.9257    0.9326   32.2106 H       1  UNL1        0.1189
     33 H           1.7323    2.2496   32.8346 H       1  UNL1        0.1189
@<TRIPOS>BOND
     1     5     6    1
     2     6     7    2
     3     7     8    1
     4     8    11    1
     5    11    12   ar
     6    12    13   ar
     7    13    14   ar
     8    14    17    1
     9    17    18    1
    10    17    19    1
    11    17    20    1
    12    14    15   ar
    13    15    16   ar
    14     8     9    2
    15     9    10    1
    16    10     1    1
    17     1     2    2
    18     1     3   am
    19     3    21    1
    20    21    30    1
    21    30    31    1
    22    21    22    1
    23    22    23   ar
    24    23    24   ar
    25    24    25   ar
    26    25    27    1
    27    27    28    1
    28    25    26   ar
    29    10     6    1
    30    26    22   ar
    31    16    11   ar
    32     3     4    1
    33    31    32    1
    34    31    33    1
    35    28    29    1
@<TRIPOS>MOLECULE
*****
 33 35 0 0 0
SMALL
GASTEIGER

@<TRIPOS>ATOM
      1 C         -12.5002   -2.0222   18.5226 C.2     1  UNL1        0.2490
      2 O         -11.4511   -1.2634   19.2801 O.2     1  UNL1       -0.2726
      3 N         -13.5163   -1.2826   17.7039 N.am    1  UNL1       -0.2974
      4 H         -14.2049   -1.7806   17.2067 H       1  UNL1        0.1499
      5 C          -9.9036   -3.9933   18.6728 C.3     1  UNL1        0.0289
      6 C         -11.3395   -4.4266   18.6530 C.2     1  UNL1       -0.0118
      7 C         -11.8340   -5.8420   18.6987 C.2     1  UNL1        0.0141
      8 C         -13.3332   -5.8107   18.6579 C.2     1  UNL1        0.0939
      9 N         -13.7652   -4.3761   18.5870 N.2     1  UNL1       -0.2574
     10 C         -12.5330   -3.5206   18.5839 C.3     1  UNL1        0.1973
     11 C         -14.2409   -7.0047   18.6835 C.ar    1  UNL1        0.0985
     12 C         -15.5160   -6.9606   19.4723 C.ar    1  UNL1        0.0206
     13 C         -16.4237   -8.1545   19.4978 C.ar    1  UNL1        0.0070
     14 C         -16.0563   -9.3924   18.7347 C.ar    1  UNL1        0.0905
     15 C         -14.7812   -9.4365   17.9459 C.ar    1  UNL1        0.1027
     16 N         -13.8735   -8.2427   17.9203 N.ar    1  UNL1       -0.2424
     17 C         -16.9641  -10.5864   18.7603 C.3     1  UNL1        0.4200
     18 F         -17.8718  -11.7802   18.7860 F       1  UNL1       -0.1658
     19 F         -15.9066  -11.4050   18.0810 F       1  UNL1       -0.1658
     20 F         -18.0216   -9.7677   19.4396 F       1  UNL1       -0.1658
     21 C         -13.4835    0.2158   17.6426 C.3     1  UNL1        0.1339
     22 C         -14.4591    1.0209   18.4486 C.ar    1  UNL1        0.1072
     23 N         -14.4595    2.5135   18.5981 N.ar    1  UNL1       -0.2397
     24 C         -15.6064    2.8899   19.4886 C.ar    1  UNL1        0.1037
     25 C         -16.3149    1.6299   19.8895 C.ar    1  UNL1        0.0568
     26 S         -15.6058    0.4749   19.2467 S.2     1  UNL1       -0.0710
     27 C         -17.5206    1.5407   20.7772 C.3     1  UNL1        0.1717
     28 O         -17.3511    1.4240   22.2631 O.3     1  UNL1       -0.3767
     29 H         -16.9305    0.5760   22.4750 H       1  UNL1        0.2109
     30 C         -12.4749    0.9090   16.7752 C.3     1  UNL1        0.0917
     31 N         -11.8655    2.2046   17.2223 N.3     1  UNL1       -0.3194
     32 H         -12.5862    2.9257   17.2557 H       1  UNL1        0.1189
     33 H         -11.1369    2.4824   16.5647 H       1  UNL1        0.1189
@<TRIPOS>BOND
     1     5     6    1
     2     6     7    2
     3     7     8    1
     4     8    11    1
     5    11    12   ar
     6    12    13   ar
     7    13    14   ar
     8    14    17    1
     9    17    18    1
    10    17    19    1
    11    17    20    1
    12    14    15   ar
    13    15    16   ar
    14     8     9    2
    15     9    10    1
    16    10     1    1
    17     1     2    2
    18     1     3   am
    19     3    21    1
    20    21    30    1
    21    30    31    1
    22    21    22    1
    23    22    23   ar
    24    23    24   ar
    25    24    25   ar
    26    25    27    1
    27    27    28    1
    28    25    26   ar
    29    10     6    1
    30    26    22   ar
    31    16    11   ar
    32     3     4    1
    33    31    32    1
    34    31    33    1
    35    28    29    1
@<TRIPOS>MOLECULE
*****
 33 35 0 0 0
SMALL
GASTEIGER

@<TRIPOS>ATOM
      1 C           7.8117   -4.7007   27.7335 C.2     1  UNL1        0.2490
      2 O           9.1517   -4.3218   28.2909 O.2     1  UNL1       -0.2726
      3 N           6.6393   -4.8756   28.6526 N.am    1  UNL1       -0.2974
      4 H           5.7597   -5.1242   28.2868 H       1  UNL1        0.1499
      5 C           9.1864   -7.0670   25.9557 C.3     1  UNL1        0.0289
      6 C           8.2760   -5.9924   25.4397 C.2     1  UNL1       -0.0118
      7 C           7.8375   -5.8167   24.0161 C.2     1  UNL1        0.0141
      8 C           6.9346   -4.6205   23.9533 C.2     1  UNL1        0.0939
      9 N           6.8151   -4.0568   25.3382 N.2     1  UNL1       -0.2574
     10 C           7.6440   -4.9047   26.2569 C.3     1  UNL1        0.1973
     11 C           6.2683   -4.0824   22.7218 C.ar    1  UNL1        0.0985
     12 C           4.9500   -3.3752   22.8305 C.ar    1  UNL1        0.0206
     13 C           4.2837   -2.8372   21.5991 C.ar    1  UNL1        0.0070
     14 C           4.9358   -3.0063   20.2588 C.ar    1  UNL1        0.0905
     15 C           6.2541   -3.7135   20.1501 C.ar    1  UNL1        0.1027
     16 N           6.9204   -4.2516   21.3816 N.ar    1  UNL1       -0.2424
     17 C           4.2695   -2.4683   19.0273 C.3     1  UNL1        0.4200
     18 F           3.6031   -1.9302   17.7959 F       1  UNL1       -0.1658
     19 F           5.4360   -2.9191   18.1991 F       1  UNL1       -0.1658
     20 F           3.1030   -2.0174   19.8555 F       1  UNL1       -0.1658
     21 C           6.8069   -4.6716   30.1292 C.3     1  UNL1        0.1339
     22 C           6.4262   -3.3619   30.7533 C.ar    1  UNL1        0.1072
     23 N           6.1231   -3.1315   32.2042 N.ar    1  UNL1       -0.2397
     24 C           5.7913   -1.6797   32.3837 C.ar    1  UNL1        0.1037
     25 C           5.8894   -1.0127   31.0437 C.ar    1  UNL1        0.0568
     26 S           6.2818   -2.0524   30.0361 S.2     1  UNL1       -0.0710
     27 C           5.6390    0.4389   30.7610 C.3     1  UNL1        0.1717
     28 O           4.2683    0.8999   30.3626 O.3     1  UNL1       -0.3767
     29 H           4.0394    0.5244   29.4980 H       1  UNL1        0.2109
     30 C           7.3552   -5.7773   30.9816 C.3     1  UNL1        0.0917
     31 N           6.6361   -6.1869   32.2326 N.3     1  UNL1       -0.3194
     32 H           6.6640   -5.4219   32.9067 H       1  UNL1        0.1189
     33 H           7.0897   -7.0086   32.6319 H       1  UNL1        0.1189
@<TRIPOS>BOND
     1     5     6    1
     2     6     7    2
     3     7     8    1
     4     8    11    1
     5    11    12   ar
     6    12    13   ar
     7    13    14   ar
     8    14    17    1
     9    17    18    1
    10    17    19    1
    11    17    20    1
    12    14    15   ar
    13    15    16   ar
    14     8     9    2
    15     9    10    1
    16    10     1    1
    17     1     2    2
    18     1     3   am
    19     3    21    1
    20    21    30    1
    21    30    31    1
    22    21    22    1
    23    22    23   ar
    24    23    24   ar
    25    24    25   ar
    26    25    27    1
    27    27    28    1
    28    25    26   ar
    29    10     6    1
    30    26    22   ar
    31    16    11   ar
    32     3     4    1
    33    31    32    1
    34    31    33    1
    35    28    29    1
@<TRIPOS>MOLECULE
*****
 33 35 0 0 0
SMALL
GASTEIGER

@<TRIPOS>ATOM
      1 C           6.1024   -3.6031   21.2366 C.2     1  UNL1        0.2490
      2 O           5.1574   -4.5176   20.5150 O.2     1  UNL1       -0.2726
      3 N           6.4122   -2.2481   20.6727 N.am    1  UNL1       -0.2974
      4 H           7.0324   -1.6479   21.1463 H       1  UNL1        0.1499
      5 C           8.8492   -5.3419   21.5218 C.3     1  UNL1        0.0289
      6 C           8.0002   -4.8429   22.6532 C.2     1  UNL1       -0.0118
      7 C           8.2645   -5.0554   24.1143 C.2     1  UNL1        0.0141
      8 C           7.1654   -4.3875   24.8863 C.2     1  UNL1        0.0939
      9 N           6.2217   -3.7622   23.9022 N.2     1  UNL1       -0.2574
     10 C           6.7375   -4.0436   22.5221 C.3     1  UNL1        0.1973
     11 C           7.0332   -4.3514   26.3800 C.ar    1  UNL1        0.0985
     12 C           6.8526   -5.6271   27.1481 C.ar    1  UNL1        0.0206
     13 C           6.7204   -5.5909   28.6418 C.ar    1  UNL1        0.0070
     14 C           6.7688   -4.2790   29.3674 C.ar    1  UNL1        0.0905
     15 C           6.9494   -3.0033   28.5994 C.ar    1  UNL1        0.1027
     16 N           7.0815   -3.0395   27.1057 N.ar    1  UNL1       -0.2424
     17 C           6.6366   -4.2428   30.8612 C.3     1  UNL1        0.4200
     18 F           6.5044   -4.2067   32.3549 F       1  UNL1       -0.1658
     19 F           6.6838   -2.7439   30.8291 F       1  UNL1       -0.1658
     20 F           6.5894   -5.7417   30.8933 F       1  UNL1       -0.1658
     21 C           5.7770   -1.8076   19.3871 C.3     1  UNL1        0.1339
     22 C           4.4381   -1.1319   19.4052 C.ar    1  UNL1        0.1072
     23 N           3.7553   -0.4961   18.2306 N.ar    1  UNL1       -0.2397
     24 C           2.4420    0.0555   18.7005 C.ar    1  UNL1        0.1037
     25 C           2.3130   -0.2394   20.1657 C.ar    1  UNL1        0.0568
     26 S           3.5467   -0.9733   20.6011 S.2     1  UNL1       -0.0710
     27 C           1.1539    0.1339   21.0414 C.3     1  UNL1        0.1717
     28 O          -0.2502   -0.0772   20.5577 O.3     1  UNL1       -0.3767
     29 H          -0.4231    0.5062   19.8023 H       1  UNL1        0.2109
     30 C           6.4809   -2.0429   18.0836 C.3     1  UNL1        0.0917
     31 N           6.6668   -0.9114   17.1168 N.3     1  UNL1       -0.3194
     32 H           5.7572   -0.6097   16.7675 H       1  UNL1        0.1189
     33 H           7.2446   -1.2228   16.3360 H       1  UNL1        0.1189
@<TRIPOS>BOND
     1     5     6    1
     2     6     7    2
     3     7     8    1
     4     8    11    1
     5    11    12   ar
     6    12    13   ar
     7    13    14   ar
     8    14    17    1
     9    17    18    1
    10    17    19    1
    11    17    20    1
    12    14    15   ar
    13    15    16   ar
    14     8     9    2
    15     9    10    1
    16    10     1    1
    17     1     2    2
    18     1     3   am
    19     3    21    1
    20    21    30    1
    21    30    31    1
    22    21    22    1
    23    22    23   ar
    24    23    24   ar
    25    24    25   ar
    26    25    27    1
    27    27    28    1
    28    25    26   ar
    29    10     6    1
    30    26    22   ar
    31    16    11   ar
    32     3     4    1
    33    31    32    1
    34    31    33    1
    35    28    29    1
@<TRIPOS>MOLECULE
*****
 33 35 0 0 0
SMALL
GASTEIGER

@<TRIPOS>ATOM
      1 C           3.7764    0.1069   28.1111 C.2     1  UNL1        0.2490
      2 O           5.0272    0.8255   28.5224 O.2     1  UNL1       -0.2726
      3 N           2.8586   -0.4580   29.1544 N.am    1  UNL1       -0.2974
      4 H           2.0377   -0.9297   28.8844 H       1  UNL1        0.1499
      5 C           1.7343    1.9925   26.4012 C.3     1  UNL1        0.0289
      6 C           2.5048    0.8200   25.8707 C.2     1  UNL1       -0.0118
      7 C           2.4719    0.3083   24.4610 C.2     1  UNL1        0.0141
      8 C           3.3903   -0.8746   24.3758 C.2     1  UNL1        0.0939
      9 N           3.9907   -1.0940   25.7327 N.2     1  UNL1       -0.2574
     10 C           3.4435   -0.0467   26.6566 C.3     1  UNL1        0.1973
     11 C           3.6607   -1.6942   23.1489 C.ar    1  UNL1        0.0985
     12 C           3.2194   -1.1988   21.8036 C.ar    1  UNL1        0.0206
     13 C           3.4898   -2.0184   20.5768 C.ar    1  UNL1        0.0070
     14 C           4.2016   -3.3334   20.6953 C.ar    1  UNL1        0.0905
     15 C           4.6430   -3.8289   22.0405 C.ar    1  UNL1        0.1027
     16 N           4.3725   -3.0093   23.2673 N.ar    1  UNL1       -0.2424
     17 C           4.4721   -4.1531   19.4684 C.3     1  UNL1        0.4200
     18 F           4.7424   -4.9726   18.2416 F       1  UNL1       -0.1658
     19 F           5.9194   -4.2479   19.8507 F       1  UNL1       -0.1658
     20 F           3.0247   -4.0582   19.0861 F       1  UNL1       -0.1658
     21 C           3.1916   -0.3044   30.6089 C.3     1  UNL1        0.1339
     22 C           2.5941    0.8211   31.4001 C.ar    1  UNL1        0.1072
     23 N           2.7658    1.0524   32.8722 N.ar    1  UNL1       -0.2397
     24 C           1.9979    2.2873   33.2401 C.ar    1  UNL1        0.1037
     25 C           1.3516    2.8193   31.9953 C.ar    1  UNL1        0.0568
     26 S           1.7201    1.9131   30.8582 S.2     1  UNL1       -0.0710
     27 C           0.4884    4.0425   31.9038 C.3     1  UNL1        0.1717
     28 O          -0.7093    4.1838   32.7959 O.3     1  UNL1       -0.3767
     29 H          -1.3642    3.5056   32.5678 H       1  UNL1        0.2109
     30 C           4.1219   -1.2763   31.2720 C.3     1  UNL1        0.0917
     31 N           3.7499   -1.8918   32.5883 N.3     1  UNL1       -0.3194
     32 H           3.7198   -1.1675   33.3059 H       1  UNL1        0.1189
     33 H           4.4438   -2.5945   32.8433 H       1  UNL1        0.1189
@<TRIPOS>BOND
     1     5     6    1
     2     6     7    2
     3     7     8    1
     4     8    11    1
     5    11    12   ar
     6    12    13   ar
     7    13    14   ar
     8    14    17    1
     9    17    18    1
    10    17    19    1
    11    17    20    1
    12    14    15   ar
    13    15    16   ar
    14     8     9    2
    15     9    10    1
    16    10     1    1
    17     1     2    2
    18     1     3   am
    19     3    21    1
    20    21    30    1
    21    30    31    1
    22    21    22    1
    23    22    23   ar
    24    23    24   ar
    25    24    25   ar
    26    25    27    1
    27    27    28    1
    28    25    26   ar
    29    10     6    1
    30    26    22   ar
    31    16    11   ar
    32     3     4    1
    33    31    32    1
    34    31    33    1
    35    28    29    1
@<TRIPOS>MOLECULE
*****
 33 35 0 0 0
SMALL
GASTEIGER

@<TRIPOS>ATOM
      1 C           7.6590   -5.3725   24.2062 C.2     1  UNL1        0.2490
      2 O           7.9155   -6.5940   23.3742 O.2     1  UNL1       -0.2726
      3 N           7.5091   -4.0337   23.5466 N.am    1  UNL1       -0.2974
      4 H           7.3407   -3.2320   24.0926 H       1  UNL1        0.1499
      5 C           8.3473   -8.0268   25.9756 C.3     1  UNL1        0.0289
      6 C           7.8687   -6.7099   26.5111 C.2     1  UNL1       -0.0118
      7 C           7.6224   -6.3818   27.9539 C.2     1  UNL1        0.0141
      8 C           7.1538   -4.9591   28.0323 C.2     1  UNL1        0.0939
      9 N           7.1104   -4.4078   26.6380 N.2     1  UNL1       -0.2574
     10 C           7.5523   -5.4899   25.6978 C.3     1  UNL1        0.1973
     11 C           6.7920   -4.2177   29.2852 C.ar    1  UNL1        0.0985
     12 C           6.9585   -4.8777   30.6218 C.ar    1  UNL1        0.0206
     13 C           6.5967   -4.1364   31.8745 C.ar    1  UNL1        0.0070
     14 C           6.0684   -2.7350   31.7907 C.ar    1  UNL1        0.0905
     15 C           5.9019   -2.0750   30.4541 C.ar    1  UNL1        0.1027
     16 N           6.2637   -2.8163   29.2013 N.ar    1  UNL1       -0.2424
     17 C           5.7067   -1.9936   33.0436 C.3     1  UNL1        0.4200
     18 F           5.3449   -1.2524   34.2964 F       1  UNL1       -0.1658
     19 F           6.7498   -0.9612   32.7339 F       1  UNL1       -0.1658
     20 F           4.6635   -3.0261   33.3532 F       1  UNL1       -0.1658
     21 C           7.6158   -3.9164   22.0549 C.3     1  UNL1        0.1339
     22 C           6.3878   -3.6585   21.2332 C.ar    1  UNL1        0.1072
     23 N           5.1012   -4.4263   21.3055 N.ar    1  UNL1       -0.2397
     24 C           4.1489   -3.8299   20.3119 C.ar    1  UNL1        0.1037
     25 C           4.8470   -2.6933   19.6254 C.ar    1  UNL1        0.0568
     26 S           6.2307   -2.5875   20.1949 S.2     1  UNL1       -0.0710
     27 C           4.2637   -1.8167   18.5571 C.3     1  UNL1        0.1717
     28 O           4.4951   -2.1416   17.1111 O.3     1  UNL1       -0.3767
     29 H           5.4377   -2.0438   16.9045 H       1  UNL1        0.2109
     30 C           8.9506   -4.0569   21.3852 C.3     1  UNL1        0.0917
     31 N           9.3887   -5.3913   20.8586 N.3     1  UNL1       -0.3194
     32 H           9.5193   -6.0377   21.6367 H       1  UNL1        0.1189
     33 H          10.2683   -5.2853   20.3533 H       1  UNL1        0.1189
@<TRIPOS>BOND
     1     5     6    1
     2     6     7    2
     3     7     8    1
     4     8    11    1
     5    11    12   ar
     6    12    13   ar
     7    13    14   ar
     8    14    17    1
     9    17    18    1
    10    17    19    1
    11    17    20    1
    12    14    15   ar
    13    15    16   ar
    14     8     9    2
    15     9    10    1
    16    10     1    1
    17     1     2    2
    18     1     3   am
    19     3    21    1
    20    21    30    1
    21    30    31    1
    22    21    22    1
    23    22    23   ar
    24    23    24   ar
    25    24    25   ar
    26    25    27    1
    27    27    28    1
    28    25    26   ar
    29    10     6    1
    30    26    22   ar
    31    16    11   ar
    32     3     4    1
    33    31    32    1
    34    31    33    1
    35    28    29    1
