@<TRIPOS>MOLECULE
*****
 22 24 0 0 0
SMALL
GASTEIGER

@<TRIPOS>ATOM
      1 N           0.3656  -16.9520   19.7394 N.pl3   1  UNL1       -0.3375
      2 C          -0.9513  -17.5344   20.1596 C.ar    1  UNL1        0.1567
      3 N          -1.4922  -17.5730   21.5581 N.ar    1  UNL1       -0.2245
      4 C          -2.8337  -18.2430   21.5180 C.ar    1  UNL1        0.0893
      5 C          -3.8300  -18.5596   22.5936 C.ar    1  UNL1        0.0202
      6 C          -5.1145  -19.2517   22.2459 C.ar    1  UNL1        0.0077
      7 C          -5.4027  -19.6273   20.8225 C.ar    1  UNL1        0.0261
      8 C          -4.4063  -19.3106   19.7469 C.ar    1  UNL1        0.0142
      9 C          -3.1219  -18.6185   20.0946 C.ar    1  UNL1        0.0502
     10 S          -1.9585  -18.1806   19.2551 S.2     1  UNL1       -0.0520
     11 H           0.9615  -16.5474   20.4105 H       1  UNL1        0.1442
     12 H           0.6340  -16.9743   18.7924 H       1  UNL1        0.1442
     13 S          -6.6873  -20.3194   20.4748 S.3     1  UNL1       -0.1088
     14 C          -7.8234  -19.5391   19.8831 C.3     1  UNL1        0.0884
     15 C          -9.0150  -19.1930   20.7260 C.ar    1  UNL1       -0.0101
     16 C         -10.3888  -19.2063   20.1241 C.ar    1  UNL1       -0.0025
     17 C         -11.5803  -18.8603   20.9670 C.ar    1  UNL1        0.0120
     18 C         -11.3979  -18.5010   22.4119 C.ar    1  UNL1        0.0682
     19 CL        -12.5895  -18.1549   23.2549 Cl      1  UNL1       -0.0814
     20 C         -10.0241  -18.4877   23.0138 C.ar    1  UNL1        0.0679
     21 CL         -9.8417  -18.1283   24.4587 Cl      1  UNL1       -0.0814
     22 C          -8.8326  -18.8337   22.1709 C.ar    1  UNL1        0.0088
@<TRIPOS>BOND
     1     1     2    1
     2     2     3   ar
     3     3     4   ar
     4     4     5   ar
     5     5     6   ar
     6     6     7   ar
     7     7    13    1
     8    13    14    1
     9    14    15    1
    10    15    16   ar
    11    16    17   ar
    12    17    18   ar
    13    18    19    1
    14    18    20   ar
    15    20    21    1
    16    20    22   ar
    17     7     8   ar
    18     8     9   ar
    19     9    10   ar
    20    10     2   ar
    21     9     4   ar
    22    22    15   ar
    23     1    11    1
    24     1    12    1
@<TRIPOS>MOLECULE
*****
 22 24 0 0 0
SMALL
GASTEIGER

@<TRIPOS>ATOM
      1 N         -17.1076  -11.7630   18.9931 N.pl3   1  UNL1       -0.3375
      2 C         -17.1063  -10.2693   19.1310 C.ar    1  UNL1        0.1567
      3 N         -18.3158   -9.3984   19.2998 N.ar    1  UNL1       -0.2245
      4 C         -17.8523   -7.9751   19.3974 C.ar    1  UNL1        0.0893
      5 C         -18.5991   -6.6860   19.5711 C.ar    1  UNL1        0.0202
      6 C         -17.8499   -5.3882   19.6363 C.ar    1  UNL1        0.0077
      7 C         -16.3539   -5.3795   19.5279 C.ar    1  UNL1        0.0261
      8 C         -15.6070   -6.6686   19.3542 C.ar    1  UNL1        0.0142
      9 C         -16.3562   -7.9665   19.2890 C.ar    1  UNL1        0.0502
     10 S         -15.8952   -9.3844   19.1244 S.2     1  UNL1       -0.0520
     11 H         -17.9584  -12.2581   19.0094 H       1  UNL1        0.1442
     12 H         -16.2577  -12.2482   18.8862 H       1  UNL1        0.1442
     13 S         -15.6047   -4.0816   19.5931 S.3     1  UNL1       -0.1088
     14 C         -14.2989   -4.0054   20.3273 C.3     1  UNL1        0.0884
     15 C         -13.0072   -4.0350   19.5652 C.ar    1  UNL1       -0.0101
     16 C         -12.4599   -2.7727   18.9676 C.ar    1  UNL1       -0.0025
     17 C         -11.1683   -2.8024   18.2056 C.ar    1  UNL1        0.0120
     18 C         -10.4239   -4.0942   18.0413 C.ar    1  UNL1        0.0682
     19 CL         -9.1321   -4.1238   17.2792 Cl      1  UNL1       -0.0814
     20 C         -10.9711   -5.3564   18.6390 C.ar    1  UNL1        0.0679
     21 CL        -10.2267   -6.6483   18.4746 Cl      1  UNL1       -0.0814
     22 C         -12.2628   -5.3268   19.4009 C.ar    1  UNL1        0.0088
@<TRIPOS>BOND
     1     1     2    1
     2     2     3   ar
     3     3     4   ar
     4     4     5   ar
     5     5     6   ar
     6     6     7   ar
     7     7    13    1
     8    13    14    1
     9    14    15    1
    10    15    16   ar
    11    16    17   ar
    12    17    18   ar
    13    18    19    1
    14    18    20   ar
    15    20    21    1
    16    20    22   ar
    17     7     8   ar
    18     8     9   ar
    19     9    10   ar
    20    10     2   ar
    21     9     4   ar
    22    22    15   ar
    23     1    11    1
    24     1    12    1
@<TRIPOS>MOLECULE
*****
 22 24 0 0 0
SMALL
GASTEIGER

@<TRIPOS>ATOM
      1 N         -17.2566  -11.9617   18.9223 N.pl3   1  UNL1       -0.3375
      2 C         -16.5862  -10.6201   18.9473 C.ar    1  UNL1        0.1567
      3 N         -15.2387  -10.2970   18.3732 N.ar    1  UNL1       -0.2245
      4 C         -14.9653   -8.8432   18.6220 C.ar    1  UNL1        0.0893
      5 C         -13.7954   -7.9690   18.2798 C.ar    1  UNL1        0.0202
      6 C         -13.8041   -6.5195   18.6654 C.ar    1  UNL1        0.0077
      7 C         -14.9828   -5.9441   19.3932 C.ar    1  UNL1        0.0261
      8 C         -16.1527   -6.8183   19.7354 C.ar    1  UNL1        0.0142
      9 C         -16.1439   -8.2678   19.3498 C.ar    1  UNL1        0.0502
     10 S         -17.1457   -9.3660   19.5508 S.2     1  UNL1       -0.0520
     11 H         -16.8067  -12.7290   18.5003 H       1  UNL1        0.1442
     12 H         -18.1466  -12.0749   19.3277 H       1  UNL1        0.1442
     13 S         -14.9915   -4.4945   19.7788 S.3     1  UNL1       -0.1088
     14 C         -13.7469   -3.8545   20.3183 C.3     1  UNL1        0.0884
     15 C         -12.8700   -3.0398   19.4141 C.ar    1  UNL1       -0.0101
     16 C         -13.2011   -1.6019   19.1444 C.ar    1  UNL1       -0.0025
     17 C         -12.3242   -0.7873   18.2402 C.ar    1  UNL1        0.0120
     18 C         -11.1162   -1.4106   17.6059 C.ar    1  UNL1        0.0682
     19 CL        -10.2394   -0.5959   16.7017 Cl      1  UNL1       -0.0814
     20 C         -10.7852   -2.8485   17.8757 C.ar    1  UNL1        0.0679
     21 CL         -9.5772   -3.4718   17.2413 Cl      1  UNL1       -0.0814
     22 C         -11.6621   -3.6631   18.7798 C.ar    1  UNL1        0.0088
@<TRIPOS>BOND
     1     1     2    1
     2     2     3   ar
     3     3     4   ar
     4     4     5   ar
     5     5     6   ar
     6     6     7   ar
     7     7    13    1
     8    13    14    1
     9    14    15    1
    10    15    16   ar
    11    16    17   ar
    12    17    18   ar
    13    18    19    1
    14    18    20   ar
    15    20    21    1
    16    20    22   ar
    17     7     8   ar
    18     8     9   ar
    19     9    10   ar
    20    10     2   ar
    21     9     4   ar
    22    22    15   ar
    23     1    11    1
    24     1    12    1
@<TRIPOS>MOLECULE
*****
 22 24 0 0 0
SMALL
GASTEIGER

@<TRIPOS>ATOM
      1 N         -13.1680    0.8294   18.1882 N.pl3   1  UNL1       -0.3375
      2 C         -12.7192   -0.5965   18.3122 C.ar    1  UNL1        0.1567
      3 N         -11.3034   -1.0854   18.2314 N.ar    1  UNL1       -0.2245
      4 C         -11.3166   -2.5749   18.4081 C.ar    1  UNL1        0.0893
      5 C         -10.2159   -3.5939   18.4205 C.ar    1  UNL1        0.0202
      6 C         -10.5392   -5.0446   18.6229 C.ar    1  UNL1        0.0077
      7 C         -11.9632   -5.4762   18.8129 C.ar    1  UNL1        0.0261
      8 C         -13.0638   -4.4572   18.8004 C.ar    1  UNL1        0.0142
      9 C         -12.7405   -3.0066   18.5980 C.ar    1  UNL1        0.0502
     10 S         -13.6073   -1.7838   18.5388 S.2     1  UNL1       -0.0520
     11 H         -12.5059    1.5427   18.0395 H       1  UNL1        0.1442
     12 H         -14.1246    1.0520   18.2554 H       1  UNL1        0.1442
     13 S         -12.2865   -6.9270   19.0153 S.3     1  UNL1       -0.1088
     14 C         -13.2120   -7.6286   18.0661 C.3     1  UNL1        0.0884
     15 C         -14.5940   -8.0083   18.5091 C.ar    1  UNL1       -0.0101
     16 C         -15.4716   -6.9939   19.1804 C.ar    1  UNL1       -0.0025
     17 C         -16.8534   -7.3736   19.6234 C.ar    1  UNL1        0.0120
     18 C         -17.3577   -8.7677   19.3951 C.ar    1  UNL1        0.0682
     19 CL        -18.7396   -9.1474   19.8381 Cl      1  UNL1       -0.0814
     20 C         -16.4801   -9.7822   18.7238 C.ar    1  UNL1        0.0679
     21 CL        -16.9843  -11.1763   18.4955 Cl      1  UNL1       -0.0814
     22 C         -15.0982   -9.4025   18.2808 C.ar    1  UNL1        0.0088
@<TRIPOS>BOND
     1     1     2    1
     2     2     3   ar
     3     3     4   ar
     4     4     5   ar
     5     5     6   ar
     6     6     7   ar
     7     7    13    1
     8    13    14    1
     9    14    15    1
    10    15    16   ar
    11    16    17   ar
    12    17    18   ar
    13    18    19    1
    14    18    20   ar
    15    20    21    1
    16    20    22   ar
    17     7     8   ar
    18     8     9   ar
    19     9    10   ar
    20    10     2   ar
    21     9     4   ar
    22    22    15   ar
    23     1    11    1
    24     1    12    1
@<TRIPOS>MOLECULE
*****
 22 24 0 0 0
SMALL
GASTEIGER

@<TRIPOS>ATOM
      1 N         -19.9597   -9.5987   20.0378 N.pl3   1  UNL1       -0.3375
      2 C         -18.7471   -9.1704   19.2656 C.ar    1  UNL1        0.1567
      3 N         -18.7483   -8.4792   17.9344 N.ar    1  UNL1       -0.2245
      4 C         -17.3224   -8.2398   17.5351 C.ar    1  UNL1        0.0893
      5 C         -16.7135   -7.5973   16.3241 C.ar    1  UNL1        0.0202
      6 C         -15.2222   -7.4981   16.1976 C.ar    1  UNL1        0.0077
      7 C         -14.3397   -8.0414   17.2821 C.ar    1  UNL1        0.0261
      8 C         -14.9485   -8.6839   18.4930 C.ar    1  UNL1        0.0142
      9 C         -16.4399   -8.7831   18.6195 C.ar    1  UNL1        0.0502
     10 S         -17.3204   -9.3582   19.6890 S.2     1  UNL1       -0.0520
     11 H         -20.8592   -9.4304   19.6748 H       1  UNL1        0.1442
     12 H         -19.8560  -10.0480   20.9076 H       1  UNL1        0.1442
     13 S         -12.8483   -7.9421   17.1555 S.3     1  UNL1       -0.1088
     14 C         -12.0403   -7.3353   18.2640 C.3     1  UNL1        0.0884
     15 C         -12.0340   -5.8482   18.4603 C.ar    1  UNL1       -0.0101
     16 C         -11.2013   -4.9773   17.5670 C.ar    1  UNL1       -0.0025
     17 C         -11.1951   -3.4902   17.7633 C.ar    1  UNL1        0.0120
     18 C         -12.0216   -2.8741   18.8529 C.ar    1  UNL1        0.0682
     19 CL        -12.0153   -1.3869   19.0491 Cl      1  UNL1       -0.0814
     20 C         -12.8543   -3.7449   19.7462 C.ar    1  UNL1        0.0679
     21 CL        -13.6808   -3.1288   20.8358 Cl      1  UNL1       -0.0814
     22 C         -12.8605   -5.2320   19.5499 C.ar    1  UNL1        0.0088
@<TRIPOS>BOND
     1     1     2    1
     2     2     3   ar
     3     3     4   ar
     4     4     5   ar
     5     5     6   ar
     6     6     7   ar
     7     7    13    1
     8    13    14    1
     9    14    15    1
    10    15    16   ar
    11    16    17   ar
    12    17    18   ar
    13    18    19    1
    14    18    20   ar
    15    20    21    1
    16    20    22   ar
    17     7     8   ar
    18     8     9   ar
    19     9    10   ar
    20    10     2   ar
    21     9     4   ar
    22    22    15   ar
    23     1    11    1
    24     1    12    1
@<TRIPOS>MOLECULE
*****
 22 24 0 0 0
SMALL
GASTEIGER

@<TRIPOS>ATOM
      1 N         -20.1598   -9.5615   20.1558 N.pl3   1  UNL1       -0.3375
      2 C         -18.7641   -9.2249   19.7212 C.ar    1  UNL1        0.1567
      3 N         -17.8701  -10.0877   18.8809 N.ar    1  UNL1       -0.2245
      4 C         -16.5709   -9.3623   18.6909 C.ar    1  UNL1        0.0893
      5 C         -15.3167   -9.7263   17.9530 C.ar    1  UNL1        0.0202
      6 C         -14.1537   -8.7792   17.9381 C.ar    1  UNL1        0.0077
      7 C         -14.2449   -7.4681   18.6610 C.ar    1  UNL1        0.0261
      8 C         -15.4990   -7.1041   19.3989 C.ar    1  UNL1        0.0142
      9 C         -16.6621   -8.0512   19.4138 C.ar    1  UNL1        0.0502
     10 S         -18.0176   -7.9663   20.0506 S.2     1  UNL1       -0.0520
     11 H         -20.5659  -10.4173   19.8876 H       1  UNL1        0.1442
     12 H         -20.6696   -8.9268   20.7094 H       1  UNL1        0.1442
     13 S         -13.0817   -6.5209   18.6461 S.3     1  UNL1       -0.1088
     14 C         -12.9396   -5.4906   19.7269 C.3     1  UNL1        0.0884
     15 C         -13.1580   -4.0399   19.4136 C.ar    1  UNL1       -0.0101
     16 C         -14.5089   -3.4226   19.6226 C.ar    1  UNL1       -0.0025
     17 C         -14.7272   -1.9721   19.3093 C.ar    1  UNL1        0.0120
     18 C         -13.5945   -1.1388   18.7871 C.ar    1  UNL1        0.0682
     19 CL        -13.8129    0.3118   18.4738 Cl      1  UNL1       -0.0814
     20 C         -12.2436   -1.7561   18.5781 C.ar    1  UNL1        0.0679
     21 CL        -11.1109   -0.9229   18.0558 Cl      1  UNL1       -0.0814
     22 C         -12.0253   -3.2067   18.8913 C.ar    1  UNL1        0.0088
@<TRIPOS>BOND
     1     1     2    1
     2     2     3   ar
     3     3     4   ar
     4     4     5   ar
     5     5     6   ar
     6     6     7   ar
     7     7    13    1
     8    13    14    1
     9    14    15    1
    10    15    16   ar
    11    16    17   ar
    12    17    18   ar
    13    18    19    1
    14    18    20   ar
    15    20    21    1
    16    20    22   ar
    17     7     8   ar
    18     8     9   ar
    19     9    10   ar
    20    10     2   ar
    21     9     4   ar
    22    22    15   ar
    23     1    11    1
    24     1    12    1
@<TRIPOS>MOLECULE
*****
 22 24 0 0 0
SMALL
GASTEIGER

@<TRIPOS>ATOM
      1 N         -10.3159   -0.1602   17.2304 N.pl3   1  UNL1       -0.3375
      2 C         -10.9762   -1.4042   17.7464 C.ar    1  UNL1        0.1567
      3 N         -11.8491   -1.4996   18.9626 N.ar    1  UNL1       -0.2245
      4 C         -12.2920   -2.9257   19.1047 C.ar    1  UNL1        0.0893
      5 C         -13.1634   -3.6100   20.1157 C.ar    1  UNL1        0.0202
      6 C         -13.4356   -5.0804   19.9984 C.ar    1  UNL1        0.0077
      7 C         -12.8365   -5.8664   18.8701 C.ar    1  UNL1        0.0261
      8 C         -11.9650   -5.1821   17.8591 C.ar    1  UNL1        0.0142
      9 C         -11.6928   -3.7117   17.9764 C.ar    1  UNL1        0.0502
     10 S         -10.8796   -2.7714   17.1370 S.2     1  UNL1       -0.0520
     11 H         -10.4398    0.6949   17.7024 H       1  UNL1        0.1442
     12 H          -9.7586   -0.1987   16.4197 H       1  UNL1        0.1442
     13 S         -13.1088   -7.3369   18.7529 S.3     1  UNL1       -0.1088
     14 C         -14.3226   -7.8183   18.0149 C.3     1  UNL1        0.0884
     15 C         -15.6484   -7.8836   18.7137 C.ar    1  UNL1       -0.0101
     16 C         -16.0817   -9.1542   19.3828 C.ar    1  UNL1       -0.0025
     17 C         -17.4074   -9.2195   20.0816 C.ar    1  UNL1        0.0120
     18 C         -18.2997   -8.0141   20.1112 C.ar    1  UNL1        0.0682
     19 CL        -19.6254   -8.0794   20.8101 Cl      1  UNL1       -0.0814
     20 C         -17.8663   -6.7435   19.4422 C.ar    1  UNL1        0.0679
     21 CL        -18.7587   -5.5381   19.4718 Cl      1  UNL1       -0.0814
     22 C         -16.5407   -6.6783   18.7434 C.ar    1  UNL1        0.0088
@<TRIPOS>BOND
     1     1     2    1
     2     2     3   ar
     3     3     4   ar
     4     4     5   ar
     5     5     6   ar
     6     6     7   ar
     7     7    13    1
     8    13    14    1
     9    14    15    1
    10    15    16   ar
    11    16    17   ar
    12    17    18   ar
    13    18    19    1
    14    18    20   ar
    15    20    21    1
    16    20    22   ar
    17     7     8   ar
    18     8     9   ar
    19     9    10   ar
    20    10     2   ar
    21     9     4   ar
    22    22    15   ar
    23     1    11    1
    24     1    12    1
@<TRIPOS>MOLECULE
*****
 22 24 0 0 0
SMALL
GASTEIGER

@<TRIPOS>ATOM
      1 N         -10.3307   -0.9565   17.0001 N.pl3   1  UNL1       -0.3375
      2 C         -10.9475   -2.2936   17.2862 C.ar    1  UNL1        0.1567
      3 N         -10.7642   -3.0994   18.5380 N.ar    1  UNL1       -0.2245
      4 C         -11.5593   -4.3634   18.3962 C.ar    1  UNL1        0.0893
      5 C         -11.7560   -5.5336   19.3138 C.ar    1  UNL1        0.0202
      6 C         -12.6275   -6.6792   18.8918 C.ar    1  UNL1        0.0077
      7 C         -13.3022   -6.6546   17.5523 C.ar    1  UNL1        0.0261
      8 C         -13.1054   -5.4844   16.6348 C.ar    1  UNL1        0.0142
      9 C         -12.2339   -4.3388   17.0568 C.ar    1  UNL1        0.0502
     10 S         -11.8558   -3.0596   16.3708 S.2     1  UNL1       -0.0520
     11 H          -9.7448   -0.5317   17.6676 H       1  UNL1        0.1442
     12 H         -10.5118   -0.5038   16.1449 H       1  UNL1        0.1442
     13 S         -14.1737   -7.8003   17.1304 S.3     1  UNL1       -0.1088
     14 C         -14.5893   -8.8355   18.1332 C.3     1  UNL1        0.0884
     15 C         -16.0197   -8.9178   18.5773 C.ar    1  UNL1       -0.0101
     16 C         -16.4480   -8.2559   19.8534 C.ar    1  UNL1       -0.0025
     17 C         -17.8784   -8.3382   20.2975 C.ar    1  UNL1        0.0120
     18 C         -18.8804   -9.0823   19.4655 C.ar    1  UNL1        0.0682
     19 CL        -20.3108   -9.1646   19.9097 Cl      1  UNL1       -0.0814
     20 C         -18.4521   -9.7442   18.1894 C.ar    1  UNL1        0.0679
     21 CL        -19.4541  -10.4883   17.3574 Cl      1  UNL1       -0.0814
     22 C         -17.0217   -9.6619   17.7453 C.ar    1  UNL1        0.0088
@<TRIPOS>BOND
     1     1     2    1
     2     2     3   ar
     3     3     4   ar
     4     4     5   ar
     5     5     6   ar
     6     6     7   ar
     7     7    13    1
     8    13    14    1
     9    14    15    1
    10    15    16   ar
    11    16    17   ar
    12    17    18   ar
    13    18    19    1
    14    18    20   ar
    15    20    21    1
    16    20    22   ar
    17     7     8   ar
    18     8     9   ar
    19     9    10   ar
    20    10     2   ar
    21     9     4   ar
    22    22    15   ar
    23     1    11    1
    24     1    12    1
@<TRIPOS>MOLECULE
*****
 22 24 0 0 0
SMALL
GASTEIGER

@<TRIPOS>ATOM
      1 N         -19.2743   -4.2817   20.1350 N.pl3   1  UNL1       -0.3375
      2 C         -18.0120   -3.5249   19.8454 C.ar    1  UNL1        0.1567
      3 N         -17.8989   -2.0427   19.6452 N.ar    1  UNL1       -0.2245
      4 C         -16.4582   -1.7191   19.3813 C.ar    1  UNL1        0.0893
      5 C         -15.7537   -0.4226   19.1120 C.ar    1  UNL1        0.0202
      6 C         -14.2719   -0.4083   18.8798 C.ar    1  UNL1        0.0077
      7 C         -13.4945   -1.6907   18.9169 C.ar    1  UNL1        0.0261
      8 C         -14.1990   -2.9872   19.1862 C.ar    1  UNL1        0.0142
      9 C         -15.6809   -3.0015   19.4184 C.ar    1  UNL1        0.0502
     10 S         -16.6412   -4.1175   19.7052 S.2     1  UNL1       -0.0520
     11 H         -20.1304   -3.8012   20.2089 H       1  UNL1        0.1442
     12 H         -19.2468   -5.2590   20.2511 H       1  UNL1        0.1442
     13 S         -12.0126   -1.6764   18.6847 S.3     1  UNL1       -0.1088
     14 C         -11.4199   -2.4897   17.5724 C.3     1  UNL1        0.0884
     15 C         -10.9621   -3.8944   17.8320 C.ar    1  UNL1       -0.0101
     16 C         -10.0254   -4.1801   18.9682 C.ar    1  UNL1       -0.0025
     17 C          -9.5677   -5.5847   19.2278 C.ar    1  UNL1        0.0120
     18 C         -10.0467   -6.7037   18.3511 C.ar    1  UNL1        0.0682
     19 CL         -9.5889   -8.1084   18.6108 Cl      1  UNL1       -0.0814
     20 C         -10.9834   -6.4180   17.2150 C.ar    1  UNL1        0.0679
     21 CL        -11.4623   -7.5370   16.3383 Cl      1  UNL1       -0.0814
     22 C         -11.4411   -5.0134   16.9554 C.ar    1  UNL1        0.0088
@<TRIPOS>BOND
     1     1     2    1
     2     2     3   ar
     3     3     4   ar
     4     4     5   ar
     5     5     6   ar
     6     6     7   ar
     7     7    13    1
     8    13    14    1
     9    14    15    1
    10    15    16   ar
    11    16    17   ar
    12    17    18   ar
    13    18    19    1
    14    18    20   ar
    15    20    21    1
    16    20    22   ar
    17     7     8   ar
    18     8     9   ar
    19     9    10   ar
    20    10     2   ar
    21     9     4   ar
    22    22    15   ar
    23     1    11    1
    24     1    12    1
