@<TRIPOS>MOLECULE
*****
 47 51 0 0 0
SMALL
GASTEIGER

@<TRIPOS>ATOM
      1 N           2.7646    0.6208   29.3083 N.am    1  UNL1       -0.2724
      2 C           3.5039    0.5994   30.6133 C.2     1  UNL1        0.2491
      3 O           4.8748    1.2007   30.7087 O.2     1  UNL1       -0.2727
      4 C           1.3938    0.0195   29.2131 C.3     1  UNL1        0.1111
      5 C           0.1816    0.8988   29.2982 C.3     1  UNL1        0.0939
      6 N           0.3375    2.3905   29.3255 N.3     1  UNL1       -0.2712
      7 C          -0.4780    2.5574   26.8644 C.3     1  UNL1        0.0188
      8 C           0.1639    3.1859   28.0656 C.3     1  UNL1        0.0722
      9 C           0.6670    3.0867   30.6126 C.3     1  UNL1        0.0722
     10 C           0.6716    4.5854   30.6748 C.3     1  UNL1        0.0188
     11 C           3.3962    1.2436   28.0987 C.3     1  UNL1        0.1202
     12 C           3.5541    0.4441   26.8394 C.ar    1  UNL1       -0.0023
     13 C           4.5173   -0.7050   26.7964 C.ar    1  UNL1       -0.0026
     14 C           4.6752   -1.5045   25.5370 C.ar    1  UNL1       -0.0003
     15 C           3.8698   -1.1549   24.3209 C.ar    1  UNL1       -0.0000
     16 C           2.9065   -0.0059   24.3639 C.ar    1  UNL1       -0.0003
     17 C           2.7487    0.7937   25.6232 C.ar    1  UNL1       -0.0026
     18 C           4.0277   -1.9545   23.0616 C.ar    1  UNL1       -0.0000
     19 C           3.4348   -1.4558   21.7772 C.ar    1  UNL1       -0.0001
     20 C           3.5927   -2.2553   20.5179 C.ar    1  UNL1        0.0039
     21 C           4.3435   -3.5537   20.5430 C.ar    1  UNL1        0.0714
     22 C           4.9364   -4.0525   21.8274 C.ar    1  UNL1        0.0039
     23 C           4.7785   -3.2528   23.0867 C.ar    1  UNL1       -0.0001
     24 C           4.5014   -4.3533   19.2837 C.3     1  UNL1        0.4186
     25 F           4.6593   -5.1528   18.0245 F       1  UNL1       -0.1659
     26 F           3.2307   -5.0886   19.5913 F       1  UNL1       -0.1659
     27 F           5.7721   -3.6179   18.9763 F       1  UNL1       -0.1659
     28 C           2.8724   -0.0234   31.8230 C.3     1  UNL1        0.1931
     29 N           3.5493    0.0765   33.1578 N.ar    1  UNL1       -0.3030
     30 C           4.4720   -1.0146   33.6144 C.ar    1  UNL1        0.1747
     31 N           5.1490   -0.9147   34.9491 N.ar    1  UNL1       -0.1847
     32 C           4.9033    0.2761   35.8274 C.ar    1  UNL1        0.2779
     33 O           5.5803    0.3759   37.1623 O.2     1  UNL1       -0.2654
     34 C           3.9807    1.3671   35.3710 C.ar    1  UNL1        0.0474
     35 C           3.3037    1.2673   34.0362 C.ar    1  UNL1        0.0399
     36 C           2.4530    2.4894   33.8553 C.3     1  UNL1        0.0440
     37 C           2.6042    3.3445   35.0784 C.3     1  UNL1        0.0111
     38 C           3.5484    2.6510   36.0151 C.3     1  UNL1        0.0328
     39 S           4.7177   -2.2055   32.7360 S.3     1  UNL1       -0.0724
     40 C           6.1116   -2.7294   32.5554 C.3     1  UNL1        0.0913
     41 C           6.4514   -3.5577   31.3519 C.ar    1  UNL1       -0.0108
     42 C           6.8994   -4.9792   31.5219 C.ar    1  UNL1       -0.0011
     43 C           7.2392   -5.8074   30.3182 C.ar    1  UNL1        0.0293
     44 C           7.1310   -5.2143   28.9447 C.ar    1  UNL1        0.1401
     45 F           7.4709   -6.0426   27.7412 F       1  UNL1       -0.2042
     46 C           6.6830   -3.7928   28.7748 C.ar    1  UNL1        0.0293
     47 C           6.3433   -2.9646   29.9784 C.ar    1  UNL1       -0.0011
@<TRIPOS>BOND
     1     7     8    1
     2     8     6    1
     3     6     9    1
     4     9    10    1
     5     6     5    1
     6     5     4    1
     7     4     1    1
     8     1    11    1
     9    11    12    1
    10    12    13   ar
    11    13    14   ar
    12    14    15   ar
    13    15    18    1
    14    18    19   ar
    15    19    20   ar
    16    20    21   ar
    17    21    24    1
    18    24    25    1
    19    24    26    1
    20    24    27    1
    21    21    22   ar
    22    22    23   ar
    23    15    16   ar
    24    16    17   ar
    25     1     2   am
    26     2     3    2
    27     2    28    1
    28    28    29    1
    29    29    30   ar
    30    30    39    1
    31    39    40    1
    32    40    41    1
    33    41    42   ar
    34    42    43   ar
    35    43    44   ar
    36    44    45    1
    37    44    46   ar
    38    46    47   ar
    39    30    31   ar
    40    31    32   ar
    41    32    33    2
    42    32    34   ar
    43    34    35   ar
    44    35    36    1
    45    36    37    1
    46    37    38    1
    47    17    12   ar
    48    35    29   ar
    49    23    18   ar
    50    47    41   ar
    51    38    34    1
@<TRIPOS>MOLECULE
*****
 47 51 0 0 0
SMALL
GASTEIGER

@<TRIPOS>ATOM
      1 N           4.1063   -0.3456   29.6344 N.am    1  UNL1       -0.2724
      2 C           4.3645   -1.1296   28.3819 C.2     1  UNL1        0.2491
      3 O           3.2152   -1.6886   27.5966 O.2     1  UNL1       -0.2727
      4 C           5.2557    0.2133   30.4195 C.3     1  UNL1        0.1111
      5 C           5.0629    0.6072   31.8540 C.3     1  UNL1        0.0939
      6 N           5.3751   -0.3698   32.9486 N.3     1  UNL1       -0.2712
      7 C           4.3412   -2.7242   33.3191 C.3     1  UNL1        0.0188
      8 C           4.2889   -1.2376   33.5117 C.3     1  UNL1        0.0722
      9 C           6.7736   -0.4790   33.4800 C.3     1  UNL1        0.0722
     10 C           7.7523   -1.4113   32.8298 C.3     1  UNL1        0.0188
     11 C           2.6988   -0.1206   30.1016 C.3     1  UNL1        0.1202
     12 C           1.7113    0.5649   29.2046 C.ar    1  UNL1       -0.0023
     13 C           2.0471    1.8946   28.5969 C.ar    1  UNL1       -0.0026
     14 C           1.0594    2.5801   27.6998 C.ar    1  UNL1       -0.0003
     15 C          -0.2639    1.9359   27.4104 C.ar    1  UNL1       -0.0000
     16 C          -0.5997    0.6062   28.0180 C.ar    1  UNL1       -0.0003
     17 C           0.3879   -0.0793   28.9151 C.ar    1  UNL1       -0.0026
     18 C          -1.2514    2.6214   26.5133 C.ar    1  UNL1       -0.0000
     19 C          -1.0021    2.6881   25.0357 C.ar    1  UNL1       -0.0001
     20 C          -1.9897    3.3736   24.1386 C.ar    1  UNL1        0.0039
     21 C          -3.2266    3.9926   24.7192 C.ar    1  UNL1        0.0714
     22 C          -3.4760    3.9259   26.1968 C.ar    1  UNL1        0.0039
     23 C          -2.4883    3.2403   27.0939 C.ar    1  UNL1       -0.0001
     24 C          -4.2142    4.6781   23.8221 C.3     1  UNL1        0.4186
     25 F          -5.2017    5.3636   22.9251 F       1  UNL1       -0.1659
     26 F          -4.4741    3.3802   23.1164 F       1  UNL1       -0.1659
     27 F          -3.9542    5.9760   24.5279 F       1  UNL1       -0.1659
     28 C           5.7720   -1.3546   27.9146 C.3     1  UNL1        0.1931
     29 N           6.1995   -2.7153   27.4502 N.ar    1  UNL1       -0.3030
     30 C           6.2776   -3.0168   25.9828 C.ar    1  UNL1        0.1747
     31 N           6.7051   -4.3774   25.5184 N.ar    1  UNL1       -0.1847
     32 C           7.0546   -5.4367   26.5212 C.ar    1  UNL1        0.2779
     33 O           7.4821   -6.7974   26.0567 O.2     1  UNL1       -0.2654
     34 C           6.9765   -5.1353   27.9885 C.ar    1  UNL1        0.0474
     35 C           6.5490   -3.7746   28.4530 C.ar    1  UNL1        0.0399
     36 C           6.5659   -3.7703   29.9529 C.3     1  UNL1        0.0440
     37 C           7.0039   -5.1283   30.4154 C.3     1  UNL1        0.0111
     38 C           7.2576   -5.9720   29.2014 C.3     1  UNL1        0.0328
     39 S           5.9281   -1.9574   24.9799 S.3     1  UNL1       -0.0724
     40 C           4.5420   -1.8920   24.4102 C.3     1  UNL1        0.0913
     41 C           4.3019   -2.2634   22.9769 C.ar    1  UNL1       -0.0108
     42 C           3.5691   -1.3195   22.0702 C.ar    1  UNL1       -0.0011
     43 C           3.3290   -1.6911   20.6369 C.ar    1  UNL1        0.0293
     44 C           3.8217   -3.0063   20.1103 C.ar    1  UNL1        0.1401
     45 F           3.5816   -3.3777   18.6770 F       1  UNL1       -0.2042
     46 C           4.5545   -3.9501   21.0171 C.ar    1  UNL1        0.0293
     47 C           4.7946   -3.5786   22.4503 C.ar    1  UNL1       -0.0011
@<TRIPOS>BOND
     1     7     8    1
     2     8     6    1
     3     6     9    1
     4     9    10    1
     5     6     5    1
     6     5     4    1
     7     4     1    1
     8     1    11    1
     9    11    12    1
    10    12    13   ar
    11    13    14   ar
    12    14    15   ar
    13    15    18    1
    14    18    19   ar
    15    19    20   ar
    16    20    21   ar
    17    21    24    1
    18    24    25    1
    19    24    26    1
    20    24    27    1
    21    21    22   ar
    22    22    23   ar
    23    15    16   ar
    24    16    17   ar
    25     1     2   am
    26     2     3    2
    27     2    28    1
    28    28    29    1
    29    29    30   ar
    30    30    39    1
    31    39    40    1
    32    40    41    1
    33    41    42   ar
    34    42    43   ar
    35    43    44   ar
    36    44    45    1
    37    44    46   ar
    38    46    47   ar
    39    30    31   ar
    40    31    32   ar
    41    32    33    2
    42    32    34   ar
    43    34    35   ar
    44    35    36    1
    45    36    37    1
    46    37    38    1
    47    17    12   ar
    48    35    29   ar
    49    23    18   ar
    50    47    41   ar
    51    38    34    1
@<TRIPOS>MOLECULE
*****
 47 51 0 0 0
SMALL
GASTEIGER

@<TRIPOS>ATOM
      1 N           3.2024    1.6373   18.4137 N.am    1  UNL1       -0.2724
      2 C           1.7242    1.8198   18.5915 C.2     1  UNL1        0.2491
      3 O           0.7860    0.6932   18.2745 O.2     1  UNL1       -0.2727
      4 C           4.1406    2.7639   18.7307 C.3     1  UNL1        0.1111
      5 C           4.8765    3.4607   17.6248 C.3     1  UNL1        0.0939
      6 N           6.3655    3.3201   17.5097 N.3     1  UNL1       -0.2712
      7 C           6.9777    1.3087   15.9835 C.3     1  UNL1        0.0188
      8 C           6.9730    2.7854   16.2467 C.3     1  UNL1        0.0722
      9 C           7.2470    3.7142   18.6576 C.3     1  UNL1        0.0722
     10 C           7.4839    5.1645   18.9579 C.3     1  UNL1        0.0188
     11 C           3.7424    0.3282   17.9190 C.3     1  UNL1        0.1202
     12 C           4.4176   -0.6129   18.8721 C.ar    1  UNL1       -0.0023
     13 C           5.9047   -0.5522   19.0589 C.ar    1  UNL1       -0.0026
     14 C           6.5798   -1.4933   20.0121 C.ar    1  UNL1       -0.0003
     15 C           5.7679   -2.4950   20.7784 C.ar    1  UNL1       -0.0000
     16 C           4.2808   -2.5557   20.5916 C.ar    1  UNL1       -0.0003
     17 C           3.6056   -1.6146   19.6385 C.ar    1  UNL1       -0.0026
     18 C           6.4431   -3.4361   21.7316 C.ar    1  UNL1       -0.0000
     19 C           5.8790   -3.6445   23.1057 C.ar    1  UNL1       -0.0001
     20 C           6.5542   -4.5856   24.0589 C.ar    1  UNL1        0.0039
     21 C           7.7935   -5.3183   23.6378 C.ar    1  UNL1        0.0714
     22 C           8.3576   -5.1100   22.2636 C.ar    1  UNL1        0.0039
     23 C           7.6824   -4.1688   21.3105 C.ar    1  UNL1       -0.0001
     24 C           8.4687   -6.2594   24.5909 C.3     1  UNL1        0.4186
     25 F           9.1439   -7.2005   25.5440 F       1  UNL1       -0.1659
     26 F           8.8334   -5.1032   25.4742 F       1  UNL1       -0.1659
     27 F           8.1041   -7.4156   23.7076 F       1  UNL1       -0.1659
     28 C           1.1843    3.1289   19.0862 C.3     1  UNL1        0.1931
     29 N          -0.2412    3.2277   19.5428 N.ar    1  UNL1       -0.3030
     30 C          -0.5953    2.9205   20.9677 C.ar    1  UNL1        0.1747
     31 N          -2.0206    3.0192   21.4243 N.ar    1  UNL1       -0.1847
     32 C          -3.0919    3.4252   20.4562 C.ar    1  UNL1        0.2779
     33 O          -4.5173    3.5240   20.9129 O.2     1  UNL1       -0.2654
     34 C          -2.7379    3.7324   19.0313 C.ar    1  UNL1        0.0474
     35 C          -1.3125    3.6336   18.5746 C.ar    1  UNL1        0.0399
     36 C          -1.2659    3.9947   17.1195 C.3     1  UNL1        0.0440
     37 C          -2.6624    4.3167   16.6768 C.3     1  UNL1        0.0111
     38 C          -3.5722    4.1546   17.8584 C.3     1  UNL1        0.0328
     39 S           0.4761    2.5144   21.9360 S.3     1  UNL1       -0.0724
     40 C           0.8475    1.0684   22.0805 C.3     1  UNL1        0.0913
     41 C           2.2285    0.6897   22.5273 C.ar    1  UNL1       -0.0108
     42 C           3.4247    1.3458   21.9038 C.ar    1  UNL1       -0.0011
     43 C           4.8057    0.9671   22.3507 C.ar    1  UNL1        0.0293
     44 C           4.9904   -0.0676   23.4209 C.ar    1  UNL1        0.1401
     45 F           6.3713   -0.4462   23.8677 F       1  UNL1       -0.2042
     46 C           3.7941   -0.7236   24.0443 C.ar    1  UNL1        0.0293
     47 C           2.4132   -0.3449   23.5975 C.ar    1  UNL1       -0.0011
@<TRIPOS>BOND
     1     7     8    1
     2     8     6    1
     3     6     9    1
     4     9    10    1
     5     6     5    1
     6     5     4    1
     7     4     1    1
     8     1    11    1
     9    11    12    1
    10    12    13   ar
    11    13    14   ar
    12    14    15   ar
    13    15    18    1
    14    18    19   ar
    15    19    20   ar
    16    20    21   ar
    17    21    24    1
    18    24    25    1
    19    24    26    1
    20    24    27    1
    21    21    22   ar
    22    22    23   ar
    23    15    16   ar
    24    16    17   ar
    25     1     2   am
    26     2     3    2
    27     2    28    1
    28    28    29    1
    29    29    30   ar
    30    30    39    1
    31    39    40    1
    32    40    41    1
    33    41    42   ar
    34    42    43   ar
    35    43    44   ar
    36    44    45    1
    37    44    46   ar
    38    46    47   ar
    39    30    31   ar
    40    31    32   ar
    41    32    33    2
    42    32    34   ar
    43    34    35   ar
    44    35    36    1
    45    36    37    1
    46    37    38    1
    47    17    12   ar
    48    35    29   ar
    49    23    18   ar
    50    47    41   ar
    51    38    34    1
@<TRIPOS>MOLECULE
*****
 47 51 0 0 0
SMALL
GASTEIGER

@<TRIPOS>ATOM
      1 N           5.0879    1.7911   35.4451 N.am    1  UNL1       -0.2724
      2 C           3.9241    2.3722   34.6982 C.2     1  UNL1        0.2491
      3 O           2.8228    1.4775   34.2119 O.2     1  UNL1       -0.2727
      4 C           6.1891    2.6859   35.9314 C.3     1  UNL1        0.1111
      5 C           7.5914    2.1627   36.0315 C.3     1  UNL1        0.0939
      6 N           8.0976    1.6184   37.3345 N.3     1  UNL1       -0.2712
      7 C           8.4513    2.3372   39.8059 C.3     1  UNL1        0.0188
      8 C           7.5435    2.1351   38.6291 C.3     1  UNL1        0.0722
      9 C           9.1579    0.5575   37.3428 C.3     1  UNL1        0.0722
     10 C           8.7778   -0.8814   37.5302 C.3     1  UNL1        0.0188
     11 C           5.1504    0.3152   35.7057 C.3     1  UNL1        0.1202
     12 C           5.4757   -0.6306   34.5879 C.ar    1  UNL1       -0.0023
     13 C           4.4378   -1.5951   34.0954 C.ar    1  UNL1       -0.0026
     14 C           4.7633   -2.5409   32.9775 C.ar    1  UNL1       -0.0003
     15 C           6.1266   -2.5222   32.3523 C.ar    1  UNL1       -0.0000
     16 C           7.1645   -1.5578   32.8448 C.ar    1  UNL1       -0.0003
     17 C           6.8391   -0.6120   33.9626 C.ar    1  UNL1       -0.0026
     18 C           6.4520   -3.4681   31.2344 C.ar    1  UNL1       -0.0000
     19 C           6.9042   -4.8649   31.5416 C.ar    1  UNL1       -0.0001
     20 C           7.2295   -5.8108   30.4238 C.ar    1  UNL1        0.0039
     21 C           7.1027   -5.3598   28.9987 C.ar    1  UNL1        0.0714
     22 C           6.6505   -3.9629   28.6916 C.ar    1  UNL1        0.0039
     23 C           6.3252   -3.0171   29.8095 C.ar    1  UNL1       -0.0001
     24 C           7.4281   -6.3056   27.8809 C.3     1  UNL1        0.4186
     25 F           7.7534   -7.2514   26.7632 F       1  UNL1       -0.1659
     26 F           8.7422   -6.6221   28.5312 F       1  UNL1       -0.1659
     27 F           6.1139   -5.9891   27.2306 F       1  UNL1       -0.1659
     28 C           3.8616    3.8481   34.4376 C.3     1  UNL1        0.1931
     29 N           2.6452    4.6294   34.8377 N.ar    1  UNL1       -0.3030
     30 C           2.5824    5.2803   36.1877 C.ar    1  UNL1        0.1747
     31 N           1.3661    6.0616   36.5877 N.ar    1  UNL1       -0.1847
     32 C           0.2126    6.1921   35.6379 C.ar    1  UNL1        0.2779
     33 O          -1.0038    6.9735   36.0380 O.2     1  UNL1       -0.2654
     34 C           0.2753    5.5413   34.2879 C.ar    1  UNL1        0.0474
     35 C           1.4917    4.7599   33.8878 C.ar    1  UNL1        0.0399
     36 C           1.2686    4.2327   32.5013 C.3     1  UNL1        0.0440
     37 C          -0.0855    4.6883   32.0445 C.3     1  UNL1        0.0111
     38 C          -0.6994    5.4970   33.1487 C.3     1  UNL1        0.0328
     39 S           3.7360    5.1498   37.1376 S.3     1  UNL1       -0.0724
     40 C           3.5039    4.6614   38.5368 C.3     1  UNL1        0.0913
     41 C           2.8819    3.3161   38.7680 C.ar    1  UNL1       -0.0108
     42 C           1.4123    3.2074   39.0478 C.ar    1  UNL1       -0.0011
     43 C           0.7904    1.8620   39.2790 C.ar    1  UNL1        0.0293
     44 C           1.6381    0.6255   39.2305 C.ar    1  UNL1        0.1401
     45 F           1.0162   -0.7197   39.4618 F       1  UNL1       -0.2042
     46 C           3.1078    0.7344   38.9508 C.ar    1  UNL1        0.0293
     47 C           3.7297    2.0796   38.7195 C.ar    1  UNL1       -0.0011
@<TRIPOS>BOND
     1     7     8    1
     2     8     6    1
     3     6     9    1
     4     9    10    1
     5     6     5    1
     6     5     4    1
     7     4     1    1
     8     1    11    1
     9    11    12    1
    10    12    13   ar
    11    13    14   ar
    12    14    15   ar
    13    15    18    1
    14    18    19   ar
    15    19    20   ar
    16    20    21   ar
    17    21    24    1
    18    24    25    1
    19    24    26    1
    20    24    27    1
    21    21    22   ar
    22    22    23   ar
    23    15    16   ar
    24    16    17   ar
    25     1     2   am
    26     2     3    2
    27     2    28    1
    28    28    29    1
    29    29    30   ar
    30    30    39    1
    31    39    40    1
    32    40    41    1
    33    41    42   ar
    34    42    43   ar
    35    43    44   ar
    36    44    45    1
    37    44    46   ar
    38    46    47   ar
    39    30    31   ar
    40    31    32   ar
    41    32    33    2
    42    32    34   ar
    43    34    35   ar
    44    35    36    1
    45    36    37    1
    46    37    38    1
    47    17    12   ar
    48    35    29   ar
    49    23    18   ar
    50    47    41   ar
    51    38    34    1
@<TRIPOS>MOLECULE
*****
 47 51 0 0 0
SMALL
GASTEIGER

@<TRIPOS>ATOM
      1 N           0.2349    3.2726   19.1570 N.am    1  UNL1       -0.2724
      2 C          -0.7397    3.0649   20.2781 C.2     1  UNL1        0.2491
      3 O          -1.3124    1.7019   20.5312 O.2     1  UNL1       -0.2727
      4 C           0.8076    4.6357   18.9040 C.3     1  UNL1        0.1111
      5 C           1.8212    4.8332   17.8161 C.3     1  UNL1        0.0939
      6 N           3.2773    4.9446   18.1589 N.3     1  UNL1       -0.2712
      7 C           5.5854    3.9451   17.5084 C.3     1  UNL1        0.0188
      8 C           4.3174    4.6459   17.1201 C.3     1  UNL1        0.0722
      9 C           3.6933    5.3549   19.5404 C.3     1  UNL1        0.0722
     10 C           3.6063    6.7942   19.9536 C.3     1  UNL1        0.0188
     11 C           0.6369    2.1172   18.2890 C.3     1  UNL1        0.1202
     12 C           1.6884    1.1562   18.7590 C.ar    1  UNL1       -0.0023
     13 C           3.1148    1.3374   18.3320 C.ar    1  UNL1       -0.0026
     14 C           4.1662    0.3763   18.8020 C.ar    1  UNL1       -0.0003
     15 C           3.7911   -0.7658   19.6990 C.ar    1  UNL1       -0.0000
     16 C           2.3647   -0.9471   20.1260 C.ar    1  UNL1       -0.0003
     17 C           1.3132    0.0140   19.6560 C.ar    1  UNL1       -0.0026
     18 C           4.8426   -1.7269   20.1690 C.ar    1  UNL1       -0.0000
     19 C           6.1877   -1.7502   19.5056 C.ar    1  UNL1       -0.0001
     20 C           7.2392   -2.7113   19.9756 C.ar    1  UNL1        0.0039
     21 C           6.9455   -3.6490   21.1091 C.ar    1  UNL1        0.0714
     22 C           5.6003   -3.6256   21.7725 C.ar    1  UNL1        0.0039
     23 C           4.5489   -2.6645   21.3024 C.ar    1  UNL1       -0.0001
     24 C           7.9969   -4.6100   21.5791 C.3     1  UNL1        0.4186
     25 F           9.0483   -5.5709   22.0490 F       1  UNL1       -0.1659
     26 F           7.1888   -4.8916   22.8110 F       1  UNL1       -0.1659
     27 F           8.8050   -4.3283   20.3471 F       1  UNL1       -0.1659
     28 C          -1.1417    4.2203   21.1462 C.3     1  UNL1        0.1931
     29 N          -2.1628    4.0261   22.2277 N.ar    1  UNL1       -0.3030
     30 C          -1.7299    3.6063   23.6012 C.ar    1  UNL1        0.1747
     31 N          -2.7509    3.4121   24.6828 N.ar    1  UNL1       -0.1847
     32 C          -4.2048    3.6377   24.3909 C.ar    1  UNL1        0.2779
     33 O          -5.2258    3.4435   25.4725 O.2     1  UNL1       -0.2654
     34 C          -4.6377    4.0575   23.0175 C.ar    1  UNL1        0.0474
     35 C          -3.6167    4.2517   21.9359 C.ar    1  UNL1        0.0399
     36 C          -4.3372    4.6662   20.6873 C.3     1  UNL1        0.0440
     37 C          -5.8035    4.7281   20.9972 C.3     1  UNL1        0.0111
     38 C          -5.9893    4.3519   22.4373 C.3     1  UNL1        0.0328
     39 S          -0.2759    3.3806   23.8931 S.3     1  UNL1       -0.0724
     40 C           0.2801    1.9875   23.9009 C.3     1  UNL1        0.0913
     41 C           1.6716    1.7325   23.4022 C.ar    1  UNL1       -0.0108
     42 C           2.3100    2.6886   22.4388 C.ar    1  UNL1       -0.0011
     43 C           3.7016    2.4335   21.9401 C.ar    1  UNL1        0.0293
     44 C           4.4546    1.2223   22.4048 C.ar    1  UNL1        0.1401
     45 F           5.8461    0.9673   21.9061 F       1  UNL1       -0.2042
     46 C           3.8160    0.2662   23.3682 C.ar    1  UNL1        0.0293
     47 C           2.4246    0.5212   23.8669 C.ar    1  UNL1       -0.0011
@<TRIPOS>BOND
     1     7     8    1
     2     8     6    1
     3     6     9    1
     4     9    10    1
     5     6     5    1
     6     5     4    1
     7     4     1    1
     8     1    11    1
     9    11    12    1
    10    12    13   ar
    11    13    14   ar
    12    14    15   ar
    13    15    18    1
    14    18    19   ar
    15    19    20   ar
    16    20    21   ar
    17    21    24    1
    18    24    25    1
    19    24    26    1
    20    24    27    1
    21    21    22   ar
    22    22    23   ar
    23    15    16   ar
    24    16    17   ar
    25     1     2   am
    26     2     3    2
    27     2    28    1
    28    28    29    1
    29    29    30   ar
    30    30    39    1
    31    39    40    1
    32    40    41    1
    33    41    42   ar
    34    42    43   ar
    35    43    44   ar
    36    44    45    1
    37    44    46   ar
    38    46    47   ar
    39    30    31   ar
    40    31    32   ar
    41    32    33    2
    42    32    34   ar
    43    34    35   ar
    44    35    36    1
    45    36    37    1
    46    37    38    1
    47    17    12   ar
    48    35    29   ar
    49    23    18   ar
    50    47    41   ar
    51    38    34    1
@<TRIPOS>MOLECULE
*****
 47 51 0 0 0
SMALL
GASTEIGER

@<TRIPOS>ATOM
      1 N           5.1758   -0.9733   31.0256 N.am    1  UNL1       -0.2724
      2 C           4.3206    0.1924   31.4254 C.2     1  UNL1        0.2491
      3 O           4.4971    1.5192   30.7484 O.2     1  UNL1       -0.2727
      4 C           4.9992   -2.3000   31.7026 C.3     1  UNL1        0.1111
      5 C           6.0941   -2.8530   32.5660 C.3     1  UNL1        0.0939
      6 N           7.2586   -3.5608   31.9389 N.3     1  UNL1       -0.2712
      7 C           6.7308   -4.7424   29.6861 C.3     1  UNL1        0.0188
      8 C           7.0366   -4.8188   31.1526 C.3     1  UNL1        0.0722
      9 C           8.6449   -3.0107   32.0982 C.3     1  UNL1        0.0722
     10 C           9.3746   -2.4601   30.9089 C.3     1  UNL1        0.0188
     11 C           6.2075   -0.8121   29.9487 C.3     1  UNL1        0.1202
     12 C           5.8662   -1.1467   28.5269 C.ar    1  UNL1       -0.0023
     13 C           4.4465   -1.0474   28.0531 C.ar    1  UNL1       -0.0026
     14 C           4.1053   -1.3821   26.6312 C.ar    1  UNL1       -0.0003
     15 C           5.1838   -1.8160   25.6833 C.ar    1  UNL1       -0.0000
     16 C           6.6035   -1.9153   26.1571 C.ar    1  UNL1       -0.0003
     17 C           6.9448   -1.5807   27.5790 C.ar    1  UNL1       -0.0026
     18 C           4.8425   -2.1506   24.2615 C.ar    1  UNL1       -0.0000
     19 C           3.9498   -1.2410   23.4704 C.ar    1  UNL1       -0.0001
     20 C           3.6085   -1.5756   22.0486 C.ar    1  UNL1        0.0039
     21 C           4.1600   -2.8198   21.4178 C.ar    1  UNL1        0.0714
     22 C           5.0526   -3.7295   22.2088 C.ar    1  UNL1        0.0039
     23 C           5.3939   -3.3948   23.6307 C.ar    1  UNL1       -0.0001
     24 C           3.8187   -3.1545   19.9960 C.3     1  UNL1        0.4186
     25 F           3.4774   -3.4890   18.5742 F       1  UNL1       -0.1659
     26 F           4.9099   -4.1834   19.9762 F       1  UNL1       -0.1659
     27 F           2.7274   -2.1254   20.0158 F       1  UNL1       -0.1659
     28 C           3.2889    0.0313   32.5022 C.3     1  UNL1        0.1931
     29 N           3.2336    1.0073   33.6400 N.ar    1  UNL1       -0.3030
     30 C           2.1941    2.0887   33.6506 C.ar    1  UNL1        0.1747
     31 N           2.1388    3.0647   34.7883 N.ar    1  UNL1       -0.1847
     32 C           3.1230    2.9593   35.9154 C.ar    1  UNL1        0.2779
     33 O           3.0677    3.9353   37.0531 O.2     1  UNL1       -0.2654
     34 C           4.1624    1.8779   35.9048 C.ar    1  UNL1        0.0474
     35 C           4.2178    0.9019   34.7670 C.ar    1  UNL1        0.0399
     36 C           5.3460   -0.0514   35.0285 C.3     1  UNL1        0.0440
     37 C           5.9880    0.3355   36.3278 C.3     1  UNL1        0.0111
     38 C           5.2565    1.5278   36.8694 C.3     1  UNL1        0.0328
     39 S           1.2099    2.1941   32.5235 S.3     1  UNL1       -0.0724
     40 C           1.5677    2.9604   31.2846 C.3     1  UNL1        0.0913
     41 C           1.0886    2.4860   29.9447 C.ar    1  UNL1       -0.0108
     42 C           1.1007    1.0218   29.6192 C.ar    1  UNL1       -0.0011
     43 C           0.6216    0.5475   28.2792 C.ar    1  UNL1        0.0293
     44 C           0.1304    1.5372   27.2648 C.ar    1  UNL1        0.1401
     45 F          -0.3487    1.0628   25.9249 F       1  UNL1       -0.2042
     46 C           0.1183    3.0015   27.5904 C.ar    1  UNL1        0.0293
     47 C           0.5974    3.4758   28.9303 C.ar    1  UNL1       -0.0011
@<TRIPOS>BOND
     1     7     8    1
     2     8     6    1
     3     6     9    1
     4     9    10    1
     5     6     5    1
     6     5     4    1
     7     4     1    1
     8     1    11    1
     9    11    12    1
    10    12    13   ar
    11    13    14   ar
    12    14    15   ar
    13    15    18    1
    14    18    19   ar
    15    19    20   ar
    16    20    21   ar
    17    21    24    1
    18    24    25    1
    19    24    26    1
    20    24    27    1
    21    21    22   ar
    22    22    23   ar
    23    15    16   ar
    24    16    17   ar
    25     1     2   am
    26     2     3    2
    27     2    28    1
    28    28    29    1
    29    29    30   ar
    30    30    39    1
    31    39    40    1
    32    40    41    1
    33    41    42   ar
    34    42    43   ar
    35    43    44   ar
    36    44    45    1
    37    44    46   ar
    38    46    47   ar
    39    30    31   ar
    40    31    32   ar
    41    32    33    2
    42    32    34   ar
    43    34    35   ar
    44    35    36    1
    45    36    37    1
    46    37    38    1
    47    17    12   ar
    48    35    29   ar
    49    23    18   ar
    50    47    41   ar
    51    38    34    1
@<TRIPOS>MOLECULE
*****
 47 51 0 0 0
SMALL
GASTEIGER

@<TRIPOS>ATOM
      1 N           3.2826    1.0189   30.3238 N.am    1  UNL1       -0.2724
      2 C           3.7328   -0.1449   29.4913 C.2     1  UNL1        0.2491
      3 O           2.7250   -1.1183   28.9558 O.2     1  UNL1       -0.2727
      4 C           4.2905    1.9922   30.8593 C.3     1  UNL1        0.1111
      5 C           4.9264    1.7536   32.1967 C.3     1  UNL1        0.0939
      6 N           4.0897    1.2933   33.3536 N.3     1  UNL1       -0.2712
      7 C           4.0033    2.7408   35.5093 C.3     1  UNL1        0.0188
      8 C           3.3852    2.2980   34.2163 C.3     1  UNL1        0.0722
      9 C           3.9576   -0.1716   33.6477 C.3     1  UNL1        0.0722
     10 C           4.8370   -0.8115   34.6807 C.3     1  UNL1        0.0188
     11 C           1.8247    1.2093   30.6207 C.3     1  UNL1        0.1202
     12 C           0.8935    1.6729   29.5400 C.ar    1  UNL1       -0.0023
     13 C           0.9867    3.0773   29.0213 C.ar    1  UNL1       -0.0026
     14 C           0.0554    3.5409   27.9406 C.ar    1  UNL1       -0.0003
     15 C          -0.9689    2.6001   27.3787 C.ar    1  UNL1       -0.0000
     16 C          -1.0621    1.1958   27.8975 C.ar    1  UNL1       -0.0003
     17 C          -0.1309    0.7321   28.9782 C.ar    1  UNL1       -0.0026
     18 C          -1.9001    3.0638   26.2980 C.ar    1  UNL1       -0.0000
     19 C          -1.4506    3.0574   24.8670 C.ar    1  UNL1       -0.0001
     20 C          -2.3818    3.5211   23.7863 C.ar    1  UNL1        0.0039
     21 C          -3.7626    3.9912   24.1367 C.ar    1  UNL1        0.0714
     22 C          -4.2121    3.9976   25.5677 C.ar    1  UNL1        0.0039
     23 C          -3.2808    3.5339   26.6484 C.ar    1  UNL1       -0.0001
     24 C          -4.6938    4.4548   23.0560 C.3     1  UNL1        0.4186
     25 F          -5.6249    4.9185   21.9753 F       1  UNL1       -0.1659
     26 F          -4.9181    3.0316   22.6386 F       1  UNL1       -0.1659
     27 F          -4.4694    5.8781   23.4734 F       1  UNL1       -0.1659
     28 C           5.1907   -0.3353   29.1944 C.3     1  UNL1        0.1931
     29 N           5.7296   -1.7108   28.9339 N.ar    1  UNL1       -0.3030
     30 C           5.8273   -2.2241   27.5278 C.ar    1  UNL1        0.1747
     31 N           6.3662   -3.5994   27.2672 N.ar    1  UNL1       -0.1847
     32 C           6.8073   -4.4616   28.4127 C.ar    1  UNL1        0.2779
     33 O           7.3462   -5.8370   28.1521 O.2     1  UNL1       -0.2654
     34 C           6.7096   -3.9483   29.8187 C.ar    1  UNL1        0.0474
     35 C           6.1707   -2.5729   30.0793 C.ar    1  UNL1        0.0399
     36 C           6.1927   -2.3394   31.5609 C.3     1  UNL1        0.0440
     37 C           6.7452   -3.5706   32.2159 C.3     1  UNL1        0.0111
     38 C           7.0647   -4.5649   31.1392 C.3     1  UNL1        0.0328
     39 S           5.3862   -1.3619   26.3823 S.3     1  UNL1       -0.0724
     40 C           4.0368   -1.5720   25.7617 C.3     1  UNL1        0.0913
     41 C           3.3320   -0.4284   25.0944 C.ar    1  UNL1       -0.0108
     42 C           2.8061    0.7109   25.9163 C.ar    1  UNL1       -0.0011
     43 C           2.1012    1.8545   25.2488 C.ar    1  UNL1        0.0293
     44 C           1.9223    1.8588   23.7595 C.ar    1  UNL1        0.1401
     45 F           1.2174    3.0024   23.0922 F       1  UNL1       -0.2042
     46 C           2.4482    0.7195   22.9377 C.ar    1  UNL1        0.0293
     47 C           3.1530   -0.4240   23.6051 C.ar    1  UNL1       -0.0011
@<TRIPOS>BOND
     1     7     8    1
     2     8     6    1
     3     6     9    1
     4     9    10    1
     5     6     5    1
     6     5     4    1
     7     4     1    1
     8     1    11    1
     9    11    12    1
    10    12    13   ar
    11    13    14   ar
    12    14    15   ar
    13    15    18    1
    14    18    19   ar
    15    19    20   ar
    16    20    21   ar
    17    21    24    1
    18    24    25    1
    19    24    26    1
    20    24    27    1
    21    21    22   ar
    22    22    23   ar
    23    15    16   ar
    24    16    17   ar
    25     1     2   am
    26     2     3    2
    27     2    28    1
    28    28    29    1
    29    29    30   ar
    30    30    39    1
    31    39    40    1
    32    40    41    1
    33    41    42   ar
    34    42    43   ar
    35    43    44   ar
    36    44    45    1
    37    44    46   ar
    38    46    47   ar
    39    30    31   ar
    40    31    32   ar
    41    32    33    2
    42    32    34   ar
    43    34    35   ar
    44    35    36    1
    45    36    37    1
    46    37    38    1
    47    17    12   ar
    48    35    29   ar
    49    23    18   ar
    50    47    41   ar
    51    38    34    1
@<TRIPOS>MOLECULE
*****
 47 51 0 0 0
SMALL
GASTEIGER

@<TRIPOS>ATOM
      1 N           5.9164   -0.5824   30.5951 N.am    1  UNL1       -0.2724
      2 C           4.8541   -0.1217   31.5486 C.2     1  UNL1        0.2491
      3 O           3.6482   -0.9781   31.7987 O.2     1  UNL1       -0.2727
      4 C           7.1222    0.2741   30.3451 C.3     1  UNL1        0.1111
      5 C           6.9921    1.5380   29.5479 C.3     1  UNL1        0.0939
      6 N           6.5377    1.4803   28.1195 N.3     1  UNL1       -0.2712
      7 C           7.0798    0.9713   25.6302 C.3     1  UNL1        0.0188
      8 C           7.3903    0.8028   27.0880 C.3     1  UNL1        0.0722
      9 C           5.2307    2.1002   27.7227 C.3     1  UNL1        0.0722
     10 C           4.1850    2.3758   28.7622 C.3     1  UNL1        0.0188
     11 C           5.7730   -1.8994   29.8916 C.3     1  UNL1        0.1202
     12 C           5.4622   -1.9361   28.4246 C.ar    1  UNL1       -0.0023
     13 C           6.3796   -2.6564   27.4815 C.ar    1  UNL1       -0.0026
     14 C           6.0688   -2.6931   26.0144 C.ar    1  UNL1       -0.0003
     15 C           4.8407   -2.0095   25.4907 C.ar    1  UNL1       -0.0000
     16 C           3.9233   -1.2892   26.4338 C.ar    1  UNL1       -0.0003
     17 C           4.2340   -1.2525   27.9008 C.ar    1  UNL1       -0.0026
     18 C           4.5300   -2.0463   24.0237 C.ar    1  UNL1       -0.0000
     19 C           3.7064   -0.9565   23.4039 C.ar    1  UNL1       -0.0001
     20 C           3.3957   -0.9932   21.9369 C.ar    1  UNL1        0.0039
     21 C           3.9086   -2.1199   21.0896 C.ar    1  UNL1        0.0714
     22 C           4.7321   -3.2097   21.7093 C.ar    1  UNL1        0.0039
     23 C           5.0428   -3.1728   23.1764 C.ar    1  UNL1       -0.0001
     24 C           3.5979   -2.1566   19.6226 C.3     1  UNL1        0.4186
     25 F           3.2872   -2.1934   18.1557 F       1  UNL1       -0.1659
     26 F           3.8743   -0.6854   19.5272 F       1  UNL1       -0.1659
     27 F           3.3214   -3.6279   19.7181 F       1  UNL1       -0.1659
     28 C           4.9976    1.1953   32.2521 C.3     1  UNL1        0.1931
     29 N           4.2598    1.4450   33.5341 N.ar    1  UNL1       -0.3030
     30 C           2.9848    2.2353   33.5241 C.ar    1  UNL1        0.1747
     31 N           2.2471    2.4850   34.8059 N.ar    1  UNL1       -0.1847
     32 C           2.7843    1.9445   36.0980 C.ar    1  UNL1        0.2779
     33 O           2.0465    2.1943   37.3799 O.2     1  UNL1       -0.2654
     34 C           4.0592    1.1543   36.1081 C.ar    1  UNL1        0.0474
     35 C           4.7969    0.9045   34.8262 C.ar    1  UNL1        0.0399
     36 C           6.0199    0.0967   35.1450 C.3     1  UNL1        0.0440
     37 C           6.0380   -0.1529   36.6240 C.3     1  UNL1        0.0111
     38 C           4.8262    0.5008   37.2192 C.3     1  UNL1        0.0328
     39 S           2.4477    2.7758   32.2320 S.3     1  UNL1       -0.0724
     40 C           1.0922    2.3533   31.7480 C.3     1  UNL1        0.0913
     41 C           0.8865    2.0049   30.3036 C.ar    1  UNL1       -0.0108
     42 C           1.0659    0.5895   29.8406 C.ar    1  UNL1       -0.0011
     43 C           0.8602    0.2412   28.3961 C.ar    1  UNL1        0.0293
     44 C           0.4750    1.3082   27.4148 C.ar    1  UNL1        0.1401
     45 F           0.2693    0.9598   25.9704 F       1  UNL1       -0.2042
     46 C           0.2956    2.7236   27.8779 C.ar    1  UNL1        0.0293
     47 C           0.5013    3.0719   29.3223 C.ar    1  UNL1       -0.0011
@<TRIPOS>BOND
     1     7     8    1
     2     8     6    1
     3     6     9    1
     4     9    10    1
     5     6     5    1
     6     5     4    1
     7     4     1    1
     8     1    11    1
     9    11    12    1
    10    12    13   ar
    11    13    14   ar
    12    14    15   ar
    13    15    18    1
    14    18    19   ar
    15    19    20   ar
    16    20    21   ar
    17    21    24    1
    18    24    25    1
    19    24    26    1
    20    24    27    1
    21    21    22   ar
    22    22    23   ar
    23    15    16   ar
    24    16    17   ar
    25     1     2   am
    26     2     3    2
    27     2    28    1
    28    28    29    1
    29    29    30   ar
    30    30    39    1
    31    39    40    1
    32    40    41    1
    33    41    42   ar
    34    42    43   ar
    35    43    44   ar
    36    44    45    1
    37    44    46   ar
    38    46    47   ar
    39    30    31   ar
    40    31    32   ar
    41    32    33    2
    42    32    34   ar
    43    34    35   ar
    44    35    36    1
    45    36    37    1
    46    37    38    1
    47    17    12   ar
    48    35    29   ar
    49    23    18   ar
    50    47    41   ar
    51    38    34    1
@<TRIPOS>MOLECULE
*****
 47 51 0 0 0
SMALL
GASTEIGER

@<TRIPOS>ATOM
      1 N          -0.4509    2.1241   25.1520 N.am    1  UNL1       -0.2724
      2 C          -1.6354    3.0415   25.0784 C.2     1  UNL1        0.2491
      3 O          -2.6989    2.9793   26.1344 O.2     1  UNL1       -0.2727
      4 C           0.6126    2.1863   24.0961 C.3     1  UNL1        0.1111
      5 C           1.5425    1.0259   23.8990 C.3     1  UNL1        0.0939
      6 N           3.0073    1.1822   24.1820 N.3     1  UNL1       -0.2712
      7 C           3.2835    0.2841   26.6041 C.3     1  UNL1        0.0188
      8 C           3.4826    1.3730   25.5919 C.3     1  UNL1        0.0722
      9 C           3.9968    1.1477   23.0552 C.3     1  UNL1        0.0722
     10 C           3.7033    1.8753   21.7767 C.3     1  UNL1        0.0188
     11 C          -0.3300    1.1445   26.2815 C.3     1  UNL1        0.1202
     12 C          -0.0223    1.6311   27.6666 C.ar    1  UNL1       -0.0023
     13 C          -0.4095    0.8030   28.8558 C.ar    1  UNL1       -0.0026
     14 C          -0.1018    1.2897   30.2409 C.ar    1  UNL1       -0.0003
     15 C           0.5932    2.6044   30.4367 C.ar    1  UNL1       -0.0000
     16 C           0.9805    3.4325   29.2475 C.ar    1  UNL1       -0.0003
     17 C           0.6728    2.9459   27.8624 C.ar    1  UNL1       -0.0026
     18 C           0.9010    3.0910   31.8218 C.ar    1  UNL1       -0.0000
     19 C           0.3303    4.3917   32.3039 C.ar    1  UNL1       -0.0001
     20 C           0.6380    4.8783   33.6890 C.ar    1  UNL1        0.0039
     21 C           1.5165    4.0641   34.5921 C.ar    1  UNL1        0.0714
     22 C           2.0872    2.7634   34.1101 C.ar    1  UNL1        0.0039
     23 C           1.7794    2.2769   32.7249 C.ar    1  UNL1       -0.0001
     24 C           1.8242    4.5507   35.9772 C.3     1  UNL1        0.4186
     25 F           2.1320    5.0373   37.3623 F       1  UNL1       -0.1659
     26 F           1.5508    5.9602   35.5428 F       1  UNL1       -0.1659
     27 F           2.0977    3.1412   36.4116 F       1  UNL1       -0.1659
     28 C          -1.7563    4.0211   23.9489 C.3     1  UNL1        0.1931
     29 N          -2.7618    3.7899   22.8601 N.ar    1  UNL1       -0.3030
     30 C          -2.3095    3.3234   21.5081 C.ar    1  UNL1        0.1747
     31 N          -3.3149    3.0922   20.4194 N.ar    1  UNL1       -0.1847
     32 C          -4.7728    3.3275   20.6824 C.ar    1  UNL1        0.2779
     33 O          -5.7783    3.0962   19.5936 O.2     1  UNL1       -0.2654
     34 C          -5.2252    3.7939   22.0344 C.ar    1  UNL1        0.0474
     35 C          -4.2197    4.0251   23.1232 C.ar    1  UNL1        0.0399
     36 C          -4.9579    4.4819   24.3465 C.3     1  UNL1        0.0440
     37 C          -6.4196    4.5330   24.0137 C.3     1  UNL1        0.0111
     38 C          -6.5848    4.1078   22.5847 C.3     1  UNL1        0.0328
     39 S          -0.8515    3.0881   21.2450 S.3     1  UNL1       -0.0724
     40 C          -0.3845    2.7488   19.8605 C.3     1  UNL1        0.0913
     41 C           0.5665    1.6083   19.6483 C.ar    1  UNL1       -0.0108
     42 C           0.4272    0.3546   20.4600 C.ar    1  UNL1       -0.0011
     43 C           1.3783   -0.7858   20.2476 C.ar    1  UNL1        0.0293
     44 C           2.4685   -0.6725   19.2237 C.ar    1  UNL1        0.1401
     45 F           3.4194   -1.8130   19.0114 F       1  UNL1       -0.2042
     46 C           2.6077    0.5812   18.4120 C.ar    1  UNL1        0.0293
     47 C           1.6567    1.7216   18.6243 C.ar    1  UNL1       -0.0011
@<TRIPOS>BOND
     1     7     8    1
     2     8     6    1
     3     6     9    1
     4     9    10    1
     5     6     5    1
     6     5     4    1
     7     4     1    1
     8     1    11    1
     9    11    12    1
    10    12    13   ar
    11    13    14   ar
    12    14    15   ar
    13    15    18    1
    14    18    19   ar
    15    19    20   ar
    16    20    21   ar
    17    21    24    1
    18    24    25    1
    19    24    26    1
    20    24    27    1
    21    21    22   ar
    22    22    23   ar
    23    15    16   ar
    24    16    17   ar
    25     1     2   am
    26     2     3    2
    27     2    28    1
    28    28    29    1
    29    29    30   ar
    30    30    39    1
    31    39    40    1
    32    40    41    1
    33    41    42   ar
    34    42    43   ar
    35    43    44   ar
    36    44    45    1
    37    44    46   ar
    38    46    47   ar
    39    30    31   ar
    40    31    32   ar
    41    32    33    2
    42    32    34   ar
    43    34    35   ar
    44    35    36    1
    45    36    37    1
    46    37    38    1
    47    17    12   ar
    48    35    29   ar
    49    23    18   ar
    50    47    41   ar
    51    38    34    1
