@<TRIPOS>MOLECULE
*****
 29 30 0 0 0
SMALL
GASTEIGER

@<TRIPOS>ATOM
      1 C          -9.7161  -18.2765   21.7756 C.3     1  UNL1        0.1020
      2 C         -10.2966  -17.0728   22.4571 C.3     1  UNL1        0.1697
      3 O         -10.8593  -15.9473   21.6407 O.3     1  UNL1       -0.3793
      4 H         -10.7700  -16.1559   20.6976 H       1  UNL1        0.2106
      5 C         -10.3143  -16.9947   23.9549 C.3     1  UNL1        0.2358
      6 O          -9.8150  -15.7615   24.6476 O.3     1  UNL1       -0.4721
      7 C          -8.4031  -15.7036   25.1509 C.ar    1  UNL1        0.1490
      8 C          -8.1154  -15.9317   26.6053 C.ar    1  UNL1        0.0377
      9 C          -6.7036  -15.8738   27.1086 C.ar    1  UNL1        0.0040
     10 C          -5.5795  -15.5878   26.1576 C.ar    1  UNL1        0.0123
     11 C          -5.8672  -15.3597   24.7032 C.ar    1  UNL1        0.0702
     12 CL         -4.7429  -15.0737   23.7522 Cl      1  UNL1       -0.0814
     13 C          -7.2790  -15.4176   24.1999 C.ar    1  UNL1        0.1128
     14 C          -7.5666  -15.1895   22.7455 C.1     1  UNL1        0.1043
     15 N          -7.8543  -14.9614   21.2911 N.1     1  UNL1       -0.1907
     16 N          -8.5307  -18.1261   20.8689 N.3     1  UNL1       -0.2972
     17 H          -8.8921  -18.0854   19.9160 H       1  UNL1        0.1233
     18 C          -7.4447  -19.1609   20.8763 C.3     1  UNL1        0.0461
     19 C          -7.8916  -19.6394   19.5268 C.3     1  UNL1        0.0161
     20 C          -6.9978  -18.6824   22.2258 C.3     1  UNL1        0.0161
     21 C          -6.3588  -20.1956   20.8836 C.3     1  UNL1        0.0408
     22 C          -2.0525  -18.9407   20.5220 C.ar    1  UNL1        0.1387
     23 C          -3.0079  -18.6760   19.3964 C.ar    1  UNL1        0.0366
     24 C          -4.4433  -19.0943   19.5169 C.ar    1  UNL1       -0.0011
     25 C          -4.9234  -19.7773   20.7631 C.ar    1  UNL1       -0.0207
     26 C          -3.9680  -20.0421   21.8887 C.ar    1  UNL1       -0.0011
     27 C          -2.5325  -19.6238   21.7682 C.ar    1  UNL1        0.0366
     28 C          -0.2759  -17.1034   20.0551 C.3     1  UNL1        0.2525
     29 O          -0.6170  -18.5224   20.4015 O.3     1  UNL1       -0.4714
@<TRIPOS>BOND
     1    28    29    1
     2    29    22    1
     3    22    23   ar
     4    23    24   ar
     5    24    25   ar
     6    25    21    1
     7    21    18    1
     8    18    19    1
     9    18    20    1
    10    18    16    1
    11    16     1    1
    12     1     2    1
    13     2     3    1
    14     2     5    1
    15     5     6    1
    16     6     7    1
    17     7     8   ar
    18     8     9   ar
    19     9    10   ar
    20    10    11   ar
    21    11    12    1
    22    11    13   ar
    23    13    14    1
    24    14    15    3
    25    25    26   ar
    26    26    27   ar
    27    27    22   ar
    28    13     7   ar
    29    16    17    1
    30     3     4    1
@<TRIPOS>MOLECULE
*****
 29 30 0 0 0
SMALL
GASTEIGER

@<TRIPOS>ATOM
      1 C          -6.9304  -16.4217   23.4686 C.3     1  UNL1        0.1020
      2 C          -7.9482  -15.4713   24.0264 C.3     1  UNL1        0.1697
      3 O          -7.6301  -14.0093   24.1327 O.3     1  UNL1       -0.3793
      4 H          -6.7331  -13.8486   23.8003 H       1  UNL1        0.2106
      5 C          -9.2839  -15.9830   24.4778 C.3     1  UNL1        0.2358
      6 O         -10.3880  -16.1785   23.4814 O.3     1  UNL1       -0.4721
      7 C         -10.6041  -17.5246   22.8559 C.ar    1  UNL1        0.1490
      8 C         -10.6297  -18.7548   23.7138 C.ar    1  UNL1        0.0377
      9 C         -10.8459  -20.1010   23.0884 C.ar    1  UNL1        0.0040
     10 C         -11.0364  -20.2169   21.6051 C.ar    1  UNL1        0.0123
     11 C         -11.0108  -18.9867   20.7472 C.ar    1  UNL1        0.0702
     12 CL        -11.2014  -19.1027   19.2638 Cl      1  UNL1       -0.0814
     13 C         -10.7947  -17.6406   21.3726 C.ar    1  UNL1        0.1128
     14 C         -10.7691  -16.4104   20.5147 C.1     1  UNL1        0.1043
     15 N         -10.7435  -15.1802   19.6568 N.1     1  UNL1       -0.1907
     16 N          -7.3422  -17.4573   22.4647 N.3     1  UNL1       -0.2972
     17 H          -8.1832  -17.9038   22.8303 H       1  UNL1        0.1233
     18 C          -6.3946  -18.5586   22.0914 C.3     1  UNL1        0.0461
     19 C          -7.4565  -19.1818   21.2347 C.3     1  UNL1        0.0161
     20 C          -5.3327  -17.9353   22.9480 C.3     1  UNL1        0.0161
     21 C          -5.4471  -19.6598   21.7180 C.3     1  UNL1        0.0408
     22 C          -1.4529  -18.6704   19.8967 C.ar    1  UNL1        0.1387
     23 C          -2.6999  -18.5708   19.0691 C.ar    1  UNL1        0.0366
     24 C          -4.0313  -18.9006   19.6762 C.ar    1  UNL1       -0.0011
     25 C          -4.1157  -19.3300   21.1109 C.ar    1  UNL1       -0.0207
     26 C          -2.8686  -19.4296   21.9385 C.ar    1  UNL1       -0.0011
     27 C          -1.5372  -19.0998   21.3314 C.ar    1  UNL1        0.0366
     28 C           0.8628  -17.5025   20.0503 C.3     1  UNL1        0.2525
     29 O          -0.1214  -18.3406   19.2896 O.3     1  UNL1       -0.4714
@<TRIPOS>BOND
     1    28    29    1
     2    29    22    1
     3    22    23   ar
     4    23    24   ar
     5    24    25   ar
     6    25    21    1
     7    21    18    1
     8    18    19    1
     9    18    20    1
    10    18    16    1
    11    16     1    1
    12     1     2    1
    13     2     3    1
    14     2     5    1
    15     5     6    1
    16     6     7    1
    17     7     8   ar
    18     8     9   ar
    19     9    10   ar
    20    10    11   ar
    21    11    12    1
    22    11    13   ar
    23    13    14    1
    24    14    15    3
    25    25    26   ar
    26    26    27   ar
    27    27    22   ar
    28    13     7   ar
    29    16    17    1
    30     3     4    1
@<TRIPOS>MOLECULE
*****
 29 30 0 0 0
SMALL
GASTEIGER

@<TRIPOS>ATOM
      1 C          -6.9182  -16.2623   23.0440 C.3     1  UNL1        0.1020
      2 C          -7.8334  -15.4860   23.9440 C.3     1  UNL1        0.1697
      3 O          -7.6563  -14.0043   24.0963 O.3     1  UNL1       -0.3793
      4 H          -6.9114  -13.7099   23.5491 H       1  UNL1        0.2106
      5 C          -8.9258  -16.1915   24.6917 C.3     1  UNL1        0.2358
      6 O         -10.3359  -16.1421   24.1827 O.3     1  UNL1       -0.4721
      7 C         -10.6876  -16.8026   22.8826 C.ar    1  UNL1        0.1490
      8 C         -11.0310  -15.9666   21.6855 C.ar    1  UNL1        0.0377
      9 C         -11.3827  -16.6270   20.3854 C.ar    1  UNL1        0.0040
     10 C         -11.3909  -18.1234   20.2826 C.ar    1  UNL1        0.0123
     11 C         -11.0475  -18.9594   21.4797 C.ar    1  UNL1        0.0702
     12 CL        -11.0558  -20.4559   21.3768 Cl      1  UNL1       -0.0814
     13 C         -10.6958  -18.2990   22.7797 C.ar    1  UNL1        0.1128
     14 C         -10.3524  -19.1350   23.9769 C.1     1  UNL1        0.1043
     15 N         -10.0090  -19.9710   25.1740 N.1     1  UNL1       -0.1907
     16 N          -7.4227  -17.4836   22.3344 N.3     1  UNL1       -0.2972
     17 H          -8.1317  -17.9022   22.9365 H       1  UNL1        0.1233
     18 C          -6.4704  -18.5804   21.9597 C.3     1  UNL1        0.0461
     19 C          -7.4793  -19.1262   20.9932 C.3     1  UNL1        0.0161
     20 C          -5.4614  -18.0346   22.9261 C.3     1  UNL1        0.0161
     21 C          -5.5181  -19.6771   21.5849 C.3     1  UNL1        0.0408
     22 C          -1.4843  -18.6649   19.8664 C.ar    1  UNL1        0.1387
     23 C          -1.5978  -19.1372   21.2855 C.ar    1  UNL1        0.0366
     24 C          -2.9425  -19.4746   21.8584 C.ar    1  UNL1       -0.0011
     25 C          -4.1735  -19.3397   21.0121 C.ar    1  UNL1       -0.0207
     26 C          -4.0600  -18.8674   19.5930 C.ar    1  UNL1       -0.0011
     27 C          -2.7153  -18.5300   19.0201 C.ar    1  UNL1        0.0366
     28 C           0.8358  -17.5185   20.0959 C.3     1  UNL1        0.2525
     29 O          -0.1397  -18.3275   19.2935 O.3     1  UNL1       -0.4714
@<TRIPOS>BOND
     1    28    29    1
     2    29    22    1
     3    22    23   ar
     4    23    24   ar
     5    24    25   ar
     6    25    21    1
     7    21    18    1
     8    18    19    1
     9    18    20    1
    10    18    16    1
    11    16     1    1
    12     1     2    1
    13     2     3    1
    14     2     5    1
    15     5     6    1
    16     6     7    1
    17     7     8   ar
    18     8     9   ar
    19     9    10   ar
    20    10    11   ar
    21    11    12    1
    22    11    13   ar
    23    13    14    1
    24    14    15    3
    25    25    26   ar
    26    26    27   ar
    27    27    22   ar
    28    13     7   ar
    29    16    17    1
    30     3     4    1
@<TRIPOS>MOLECULE
*****
 29 30 0 0 0
SMALL
GASTEIGER

@<TRIPOS>ATOM
      1 C          -4.3394  -19.0622   22.4431 C.3     1  UNL1        0.1020
      2 C          -3.2038  -18.1049   22.6539 C.3     1  UNL1        0.1697
      3 O          -1.8049  -18.5101   22.2949 O.3     1  UNL1       -0.3793
      4 H          -1.8104  -19.4139   21.9427 H       1  UNL1        0.2106
      5 C          -3.4673  -16.7426   23.2237 C.3     1  UNL1        0.2358
      6 O          -4.8276  -16.1247   23.0916 O.3     1  UNL1       -0.4721
      7 C          -5.6772  -15.9140   24.3098 C.ar    1  UNL1        0.1490
      8 C          -5.0385  -15.8308   25.6644 C.ar    1  UNL1        0.0377
      9 C          -5.8880  -15.6201   26.8826 C.ar    1  UNL1        0.0040
     10 C          -7.3763  -15.4927   26.7460 C.ar    1  UNL1        0.0123
     11 C          -8.0151  -15.5760   25.3914 C.ar    1  UNL1        0.0702
     12 CL         -9.5035  -15.4486   25.2550 Cl      1  UNL1       -0.0814
     13 C          -7.1655  -15.7867   24.1733 C.ar    1  UNL1        0.1128
     14 C          -7.8043  -15.8699   22.8187 C.1     1  UNL1        0.1043
     15 N          -8.4431  -15.9532   21.4640 N.1     1  UNL1       -0.1907
     16 N          -4.5508  -19.6903   21.0975 N.3     1  UNL1       -0.2972
     17 H          -4.0030  -19.1475   20.4298 H       1  UNL1        0.1233
     18 C          -5.9354  -19.8027   20.5315 C.3     1  UNL1        0.0461
     19 C          -6.0670  -18.3087   20.5566 C.3     1  UNL1        0.0161
     20 C          -5.8038  -21.2967   20.5063 C.3     1  UNL1        0.0161
     21 C          -7.3200  -19.9151   19.9655 C.3     1  UNL1        0.0408
     22 C         -10.8869  -18.9667   22.5398 C.ar    1  UNL1        0.1387
     23 C          -9.5765  -19.3243   23.1762 C.ar    1  UNL1        0.0366
     24 C          -8.3876  -19.6404   22.3181 C.ar    1  UNL1       -0.0011
     25 C          -8.5089  -19.5990   20.8236 C.ar    1  UNL1       -0.0207
     26 C          -9.8193  -19.2414   20.1872 C.ar    1  UNL1       -0.0011
     27 C         -11.0083  -18.9253   21.0454 C.ar    1  UNL1        0.0366
     28 C         -12.9813  -17.5112   23.0347 C.3     1  UNL1        0.2525
     29 O         -12.0759  -18.6506   23.3979 O.3     1  UNL1       -0.4714
@<TRIPOS>BOND
     1    28    29    1
     2    29    22    1
     3    22    23   ar
     4    23    24   ar
     5    24    25   ar
     6    25    21    1
     7    21    18    1
     8    18    19    1
     9    18    20    1
    10    18    16    1
    11    16     1    1
    12     1     2    1
    13     2     3    1
    14     2     5    1
    15     5     6    1
    16     6     7    1
    17     7     8   ar
    18     8     9   ar
    19     9    10   ar
    20    10    11   ar
    21    11    12    1
    22    11    13   ar
    23    13    14    1
    24    14    15    3
    25    25    26   ar
    26    26    27   ar
    27    27    22   ar
    28    13     7   ar
    29    16    17    1
    30     3     4    1
@<TRIPOS>MOLECULE
*****
 29 30 0 0 0
SMALL
GASTEIGER

@<TRIPOS>ATOM
      1 C          -7.8268  -19.6609   19.4748 C.3     1  UNL1        0.1020
      2 C          -9.1666  -19.9675   18.8741 C.3     1  UNL1        0.1697
      3 O          -9.2726  -20.9319   17.7301 O.3     1  UNL1       -0.3793
      4 H          -8.3896  -21.2634   17.5037 H       1  UNL1        0.2106
      5 C         -10.4004  -19.3098   19.4173 C.3     1  UNL1        0.2358
      6 O         -10.2857  -18.0498   20.2230 O.3     1  UNL1       -0.4721
      7 C         -10.3544  -18.1081   21.7204 C.ar    1  UNL1        0.1490
      8 C         -11.1128  -19.2132   22.3939 C.ar    1  UNL1        0.0377
      9 C         -11.1815  -19.2715   23.8911 C.ar    1  UNL1        0.0040
     10 C         -10.4919  -18.2247   24.7149 C.ar    1  UNL1        0.0123
     11 C          -9.7335  -17.1196   24.0414 C.ar    1  UNL1        0.0702
     12 CL         -9.0438  -16.0728   24.8652 Cl      1  UNL1       -0.0814
     13 C          -9.6648  -17.0613   22.5441 C.ar    1  UNL1        0.1128
     14 C          -8.9064  -15.9562   21.8706 C.1     1  UNL1        0.1043
     15 N          -8.1480  -14.8511   21.1971 N.1     1  UNL1       -0.1907
     16 N          -7.6618  -19.6331   20.9654 N.3     1  UNL1       -0.2972
     17 H          -8.0182  -18.7322   21.2844 H       1  UNL1        0.1233
     18 C          -6.3003  -19.7997   21.5726 C.3     1  UNL1        0.0461
     19 C          -6.5254  -18.5776   22.4127 C.3     1  UNL1        0.0161
     20 C          -6.0751  -21.0217   20.7325 C.3     1  UNL1        0.0161
     21 C          -4.9388  -19.9662   22.1798 C.3     1  UNL1        0.0408
     22 C          -1.4838  -17.5136   20.6640 C.ar    1  UNL1        0.1387
     23 C          -2.0227  -17.2778   22.0439 C.ar    1  UNL1        0.0366
     24 C          -3.1743  -18.0954   22.5491 C.ar    1  UNL1       -0.0011
     25 C          -3.7872  -19.1487   21.6745 C.ar    1  UNL1       -0.0207
     26 C          -3.2483  -19.3844   20.2947 C.ar    1  UNL1       -0.0011
     27 C          -2.0967  -18.5668   19.7894 C.ar    1  UNL1        0.0366
     28 C           1.0439  -17.2906   20.1066 C.3     1  UNL1        0.2525
     29 O          -0.3322  -16.6960   20.1588 O.3     1  UNL1       -0.4714
@<TRIPOS>BOND
     1    28    29    1
     2    29    22    1
     3    22    23   ar
     4    23    24   ar
     5    24    25   ar
     6    25    21    1
     7    21    18    1
     8    18    19    1
     9    18    20    1
    10    18    16    1
    11    16     1    1
    12     1     2    1
    13     2     3    1
    14     2     5    1
    15     5     6    1
    16     6     7    1
    17     7     8   ar
    18     8     9   ar
    19     9    10   ar
    20    10    11   ar
    21    11    12    1
    22    11    13   ar
    23    13    14    1
    24    14    15    3
    25    25    26   ar
    26    26    27   ar
    27    27    22   ar
    28    13     7   ar
    29    16    17    1
    30     3     4    1
@<TRIPOS>MOLECULE
*****
 29 30 0 0 0
SMALL
GASTEIGER

@<TRIPOS>ATOM
      1 C          -7.9825  -14.9243   24.3726 C.3     1  UNL1        0.1020
      2 C          -8.6059  -15.8718   25.3542 C.3     1  UNL1        0.1697
      3 O          -8.3440  -15.7105   26.8223 O.3     1  UNL1       -0.3793
      4 H          -7.7564  -14.9519   26.9645 H       1  UNL1        0.2106
      5 C          -9.4913  -16.9806   24.8677 C.3     1  UNL1        0.2358
      6 O          -8.9757  -17.9646   23.8599 O.3     1  UNL1       -0.4721
      7 C          -9.6246  -18.0666   22.5113 C.ar    1  UNL1        0.1490
      8 C         -10.8764  -17.2930   22.2209 C.ar    1  UNL1        0.0377
      9 C         -11.5253  -17.3949   20.8724 C.ar    1  UNL1        0.0040
     10 C         -10.9224  -18.2706   19.8143 C.ar    1  UNL1        0.0123
     11 C          -9.6705  -19.0442   20.1047 C.ar    1  UNL1        0.0702
     12 CL         -9.0676  -19.9199   19.0465 Cl      1  UNL1       -0.0814
     13 C          -9.0216  -18.9423   21.4532 C.ar    1  UNL1        0.1128
     14 C          -7.7698  -19.7159   21.7436 C.1     1  UNL1        0.1043
     15 N          -6.5179  -20.4896   22.0339 N.1     1  UNL1       -0.1907
     16 N          -6.5001  -14.6956   24.3886 N.3     1  UNL1       -0.2972
     17 H          -6.2772  -14.1507   23.5557 H       1  UNL1        0.1233
     18 C          -5.5610  -15.8652   24.4051 C.3     1  UNL1        0.0461
     19 C          -6.1900  -16.3879   23.1477 C.3     1  UNL1        0.0161
     20 C          -4.9319  -15.3425   25.6624 C.3     1  UNL1        0.0161
     21 C          -4.6219  -17.0347   24.4214 C.3     1  UNL1        0.0408
     22 C          -1.9947  -17.8609   20.8626 C.ar    1  UNL1        0.1387
     23 C          -2.8038  -18.9679   21.4706 C.ar    1  UNL1        0.0366
     24 C          -3.6796  -18.6925   22.6569 C.ar    1  UNL1       -0.0011
     25 C          -3.7462  -17.3101   23.2352 C.ar    1  UNL1       -0.0207
     26 C          -2.9370  -16.2031   22.6272 C.ar    1  UNL1       -0.0011
     27 C          -2.0613  -16.4785   21.4409 C.ar    1  UNL1        0.0366
     28 C          -1.6352  -17.8900   18.2897 C.3     1  UNL1        0.2525
     29 O          -1.1190  -18.1363   19.6763 O.3     1  UNL1       -0.4714
@<TRIPOS>BOND
     1    28    29    1
     2    29    22    1
     3    22    23   ar
     4    23    24   ar
     5    24    25   ar
     6    25    21    1
     7    21    18    1
     8    18    19    1
     9    18    20    1
    10    18    16    1
    11    16     1    1
    12     1     2    1
    13     2     3    1
    14     2     5    1
    15     5     6    1
    16     6     7    1
    17     7     8   ar
    18     8     9   ar
    19     9    10   ar
    20    10    11   ar
    21    11    12    1
    22    11    13   ar
    23    13    14    1
    24    14    15    3
    25    25    26   ar
    26    26    27   ar
    27    27    22   ar
    28    13     7   ar
    29    16    17    1
    30     3     4    1
@<TRIPOS>MOLECULE
*****
 29 30 0 0 0
SMALL
GASTEIGER

@<TRIPOS>ATOM
      1 C          -6.0257  -15.1492   25.5328 C.3     1  UNL1        0.1020
      2 C          -5.4779  -15.5538   24.1962 C.3     1  UNL1        0.1697
      3 O          -5.2100  -14.5135   23.1494 O.3     1  UNL1       -0.3793
      4 H          -5.4436  -13.6382   23.4961 H       1  UNL1        0.2106
      5 C          -5.1981  -16.9987   23.9066 C.3     1  UNL1        0.2358
      6 O          -3.7822  -17.4786   23.7850 O.3     1  UNL1       -0.4721
      7 C          -3.1390  -17.5828   22.4339 C.ar    1  UNL1        0.1490
      8 C          -2.0102  -16.6653   22.0678 C.ar    1  UNL1        0.0377
      9 C          -1.3670  -16.7695   20.7167 C.ar    1  UNL1        0.0040
     10 C          -1.8526  -17.7912   19.7317 C.ar    1  UNL1        0.0123
     11 C          -2.9814  -18.7087   20.0978 C.ar    1  UNL1        0.0702
     12 CL         -3.4670  -19.7305   19.1127 Cl      1  UNL1       -0.0814
     13 C          -3.6246  -18.6046   21.4489 C.ar    1  UNL1        0.1128
     14 C          -4.7534  -19.5221   21.8149 C.1     1  UNL1        0.1043
     15 N          -5.8822  -20.4396   22.1810 N.1     1  UNL1       -0.1907
     16 N          -7.4970  -14.9091   25.6988 N.3     1  UNL1       -0.2972
     17 H          -7.6172  -14.4193   26.5854 H       1  UNL1        0.1233
     18 C          -8.4493  -16.0681   25.7118 C.3     1  UNL1        0.0461
     19 C          -8.9999  -15.6305   24.3870 C.3     1  UNL1        0.0161
     20 C          -7.8987  -16.5057   27.0367 C.3     1  UNL1        0.0161
     21 C          -9.4015  -17.2270   25.7248 C.3     1  UNL1        0.0408
     22 C         -10.5628  -19.2281   21.8652 C.ar    1  UNL1        0.1387
     23 C          -9.1148  -19.0155   22.1936 C.ar    1  UNL1        0.0366
     24 C          -8.7277  -18.3484   23.4802 C.ar    1  UNL1       -0.0011
     25 C          -9.7886  -17.8940   24.4382 C.ar    1  UNL1       -0.0207
     26 C         -11.2366  -18.1067   24.1098 C.ar    1  UNL1       -0.0011
     27 C         -11.6237  -18.7738   22.8232 C.ar    1  UNL1        0.0366
     28 C         -10.1302  -19.6729   19.3423 C.3     1  UNL1        0.2525
     29 O         -10.9499  -19.8952   20.5786 O.3     1  UNL1       -0.4714
@<TRIPOS>BOND
     1    28    29    1
     2    29    22    1
     3    22    23   ar
     4    23    24   ar
     5    24    25   ar
     6    25    21    1
     7    21    18    1
     8    18    19    1
     9    18    20    1
    10    18    16    1
    11    16     1    1
    12     1     2    1
    13     2     3    1
    14     2     5    1
    15     5     6    1
    16     6     7    1
    17     7     8   ar
    18     8     9   ar
    19     9    10   ar
    20    10    11   ar
    21    11    12    1
    22    11    13   ar
    23    13    14    1
    24    14    15    3
    25    25    26   ar
    26    26    27   ar
    27    27    22   ar
    28    13     7   ar
    29    16    17    1
    30     3     4    1
@<TRIPOS>MOLECULE
*****
 29 30 0 0 0
SMALL
GASTEIGER

@<TRIPOS>ATOM
      1 C          -8.0311  -14.8124   24.4337 C.3     1  UNL1        0.1020
      2 C          -8.6112  -15.7387   25.4611 C.3     1  UNL1        0.1697
      3 O          -8.5394  -15.3837   26.9167 O.3     1  UNL1       -0.3793
      4 H          -8.0902  -14.5301   27.0195 H       1  UNL1        0.2106
      5 C          -9.2631  -17.0199   25.0329 C.3     1  UNL1        0.2358
      6 O          -9.9216  -17.1135   23.6885 O.3     1  UNL1       -0.4721
      7 C          -9.3419  -18.0040   22.6297 C.ar    1  UNL1        0.1490
      8 C          -8.0199  -18.6757   22.8559 C.ar    1  UNL1        0.0377
      9 C          -7.4402  -19.5662   21.7972 C.ar    1  UNL1        0.0040
     10 C          -8.1824  -19.7849   20.5122 C.ar    1  UNL1        0.0123
     11 C          -9.5044  -19.1132   20.2860 C.ar    1  UNL1        0.0702
     12 CL        -10.2466  -19.3319   19.0009 Cl      1  UNL1       -0.0814
     13 C         -10.0841  -18.2227   21.3447 C.ar    1  UNL1        0.1128
     14 C         -11.4061  -17.5510   21.1185 C.1     1  UNL1        0.1043
     15 N         -12.7281  -16.8793   20.8922 N.1     1  UNL1       -0.1907
     16 N          -6.5476  -14.6004   24.3674 N.3     1  UNL1       -0.2972
     17 H          -6.3551  -14.1427   23.4765 H       1  UNL1        0.1233
     18 C          -5.6174  -15.7735   24.4614 C.3     1  UNL1        0.0461
     19 C          -5.1011  -15.2589   25.7724 C.3     1  UNL1        0.0161
     20 C          -6.1336  -16.2880   23.1505 C.3     1  UNL1        0.0161
     21 C          -4.6872  -16.9464   24.5555 C.3     1  UNL1        0.0408
     22 C          -2.2010  -18.1374   20.9988 C.ar    1  UNL1        0.1387
     23 C          -3.0725  -19.1517   21.6781 C.ar    1  UNL1        0.0366
     24 C          -3.9012  -18.7547   22.8637 C.ar    1  UNL1       -0.0011
     25 C          -3.8585  -17.3434   23.3699 C.ar    1  UNL1       -0.0207
     26 C          -2.9869  -16.3291   22.6906 C.ar    1  UNL1       -0.0011
     27 C          -2.1582  -16.7260   21.5050 C.ar    1  UNL1        0.0366
     28 C           0.0268  -18.0133   19.6677 C.3     1  UNL1        0.2525
     29 O          -1.3722  -18.5343   19.8132 O.3     1  UNL1       -0.4714
@<TRIPOS>BOND
     1    28    29    1
     2    29    22    1
     3    22    23   ar
     4    23    24   ar
     5    24    25   ar
     6    25    21    1
     7    21    18    1
     8    18    19    1
     9    18    20    1
    10    18    16    1
    11    16     1    1
    12     1     2    1
    13     2     3    1
    14     2     5    1
    15     5     6    1
    16     6     7    1
    17     7     8   ar
    18     8     9   ar
    19     9    10   ar
    20    10    11   ar
    21    11    12    1
    22    11    13   ar
    23    13    14    1
    24    14    15    3
    25    25    26   ar
    26    26    27   ar
    27    27    22   ar
    28    13     7   ar
    29    16    17    1
    30     3     4    1
@<TRIPOS>MOLECULE
*****
 29 30 0 0 0
SMALL
GASTEIGER

@<TRIPOS>ATOM
      1 C          -5.5373  -15.3816   25.6058 C.3     1  UNL1        0.1020
      2 C          -4.9580  -15.6799   24.2546 C.3     1  UNL1        0.1697
      3 O          -5.0956  -14.6824   23.1429 O.3     1  UNL1       -0.3793
      4 H          -5.5814  -13.9063   23.4630 H       1  UNL1        0.2106
      5 C          -4.2412  -16.9756   24.0153 C.3     1  UNL1        0.2358
      6 O          -3.8017  -17.3447   22.6295 O.3     1  UNL1       -0.4721
      7 C          -4.4589  -18.4874   21.9136 C.ar    1  UNL1        0.1490
      8 C          -5.8893  -18.8320   22.2054 C.ar    1  UNL1        0.0377
      9 C          -6.5466  -19.9746   21.4895 C.ar    1  UNL1        0.0040
     10 C          -5.7734  -20.7725   20.4818 C.ar    1  UNL1        0.0123
     11 C          -4.3430  -20.4278   20.1900 C.ar    1  UNL1        0.0702
     12 CL         -3.5698  -21.2258   19.1822 Cl      1  UNL1       -0.0814
     13 C          -3.6858  -19.2853   20.9059 C.ar    1  UNL1        0.1128
     14 C          -2.2554  -18.9406   20.6141 C.1     1  UNL1        0.1043
     15 N          -0.8250  -18.5959   20.3222 N.1     1  UNL1       -0.1907
     16 N          -6.9365  -14.8538   25.7221 N.3     1  UNL1       -0.2972
     17 H          -6.9897  -14.3536   26.6094 H       1  UNL1        0.1233
     18 C          -8.1002  -15.7996   25.6877 C.3     1  UNL1        0.0461
     19 C          -8.3584  -15.4299   24.2571 C.3     1  UNL1        0.0161
     20 C          -7.8420  -16.1694   27.1182 C.3     1  UNL1        0.0161
     21 C          -9.2639  -16.7454   25.6533 C.3     1  UNL1        0.0408
     22 C         -10.6435  -18.4737   21.7341 C.ar    1  UNL1        0.1387
     23 C          -9.6972  -19.2475   22.6034 C.ar    1  UNL1        0.0366
     24 C          -9.2374  -18.6714   23.9098 C.ar    1  UNL1       -0.0011
     25 C          -9.7238  -17.3215   24.3469 C.ar    1  UNL1       -0.0207
     26 C         -10.6701  -16.5477   23.4776 C.ar    1  UNL1       -0.0011
     27 C         -11.1300  -17.1238   22.1712 C.ar    1  UNL1        0.0366
     28 C         -10.1062  -19.6428   19.4770 C.3     1  UNL1        0.2525
     29 O         -11.1034  -19.0499   20.4278 O.3     1  UNL1       -0.4714
@<TRIPOS>BOND
     1    28    29    1
     2    29    22    1
     3    22    23   ar
     4    23    24   ar
     5    24    25   ar
     6    25    21    1
     7    21    18    1
     8    18    19    1
     9    18    20    1
    10    18    16    1
    11    16     1    1
    12     1     2    1
    13     2     3    1
    14     2     5    1
    15     5     6    1
    16     6     7    1
    17     7     8   ar
    18     8     9   ar
    19     9    10   ar
    20    10    11   ar
    21    11    12    1
    22    11    13   ar
    23    13    14    1
    24    14    15    3
    25    25    26   ar
    26    26    27   ar
    27    27    22   ar
    28    13     7   ar
    29    16    17    1
    30     3     4    1
