@<TRIPOS>MOLECULE
*****
 25 27 0 0 0
SMALL
GASTEIGER

@<TRIPOS>ATOM
      1 C          -6.9434  -19.6473   20.1777 C.2     1  UNL1        0.2461
      2 O          -7.3030  -20.9543   19.5356 O.2     1  UNL1       -0.2701
      3 N          -8.0071  -18.6228   20.4403 N.am    1  UNL1       -0.2969
      4 H          -7.7710  -17.7650   20.8617 H       1  UNL1        0.1501
      5 N           0.5856  -17.4841   19.6684 N.pl3   1  UNL1       -0.3375
      6 C          -0.7896  -17.9535   20.0410 C.ar    1  UNL1        0.1567
      7 N          -1.2216  -18.4299   21.3961 N.ar    1  UNL1       -0.2245
      8 C          -2.6731  -18.7997   21.3164 C.ar    1  UNL1        0.0892
      9 C          -3.6314  -19.3301   22.3412 C.ar    1  UNL1        0.0198
     10 C          -5.0548  -19.6126   21.9616 C.ar    1  UNL1        0.0061
     11 C          -5.5199  -19.3647   20.5573 C.ar    1  UNL1        0.0540
     12 C          -4.5616  -18.8343   19.5325 C.ar    1  UNL1        0.0126
     13 C          -3.1382  -18.5518   19.9120 C.ar    1  UNL1        0.0498
     14 S          -1.9741  -18.0288   19.1238 S.2     1  UNL1       -0.0520
     15 H           1.3012  -17.4710   20.3444 H       1  UNL1        0.1442
     16 H           0.7725  -17.1892   18.7479 H       1  UNL1        0.1442
     17 C          -9.4305  -18.9054   20.0607 C.3     1  UNL1        0.1166
     18 C         -10.5343  -18.6454   21.0426 C.ar    1  UNL1       -0.0017
     19 C         -11.7830  -17.9428   20.5986 C.ar    1  UNL1       -0.0017
     20 C         -12.8867  -17.6827   21.5804 C.ar    1  UNL1        0.0120
     21 C         -12.7418  -18.1253   23.0063 C.ar    1  UNL1        0.0682
     22 CL        -13.8456  -17.8653   23.9882 Cl      1  UNL1       -0.0814
     23 C         -11.4932  -18.8279   23.4503 C.ar    1  UNL1        0.0679
     24 CL        -11.3482  -19.2705   24.8762 Cl      1  UNL1       -0.0814
     25 C         -10.3894  -19.0880   22.4684 C.ar    1  UNL1        0.0096
@<TRIPOS>BOND
     1     5     6    1
     2     6     7   ar
     3     7     8   ar
     4     8     9   ar
     5     9    10   ar
     6    10    11   ar
     7    11     1    1
     8     1     2    2
     9     1     3   am
    10     3    17    1
    11    17    18    1
    12    18    19   ar
    13    19    20   ar
    14    20    21   ar
    15    21    22    1
    16    21    23   ar
    17    23    24    1
    18    23    25   ar
    19    11    12   ar
    20    12    13   ar
    21    13    14   ar
    22    14     6   ar
    23    13     8   ar
    24    25    18   ar
    25     5    15    1
    26     5    16    1
    27     3     4    1
@<TRIPOS>MOLECULE
*****
 25 27 0 0 0
SMALL
GASTEIGER

@<TRIPOS>ATOM
      1 C          -8.1483  -19.4342   20.4656 C.2     1  UNL1        0.2461
      2 O          -7.8501  -19.1622   19.0209 O.2     1  UNL1       -0.2701
      3 N          -7.1284  -20.1194   21.3258 N.am    1  UNL1       -0.2969
      4 H          -7.3241  -20.2980   22.2740 H       1  UNL1        0.1501
      5 N         -13.9795  -18.3686   25.6120 N.pl3   1  UNL1       -0.3375
      6 C         -13.0412  -18.4388   24.4438 C.ar    1  UNL1        0.1567
      7 N         -13.3078  -17.9098   23.0657 N.ar    1  UNL1       -0.2245
      8 C         -12.1030  -18.1944   22.2188 C.ar    1  UNL1        0.0892
      9 C         -11.7961  -17.9027   20.7798 C.ar    1  UNL1        0.0198
     10 C         -10.4779  -18.3160   20.1954 C.ar    1  UNL1        0.0061
     11 C          -9.4666  -19.0209   21.0500 C.ar    1  UNL1        0.0540
     12 C          -9.7735  -19.3126   22.4890 C.ar    1  UNL1        0.0126
     13 C         -11.0917  -18.8993   23.0734 C.ar    1  UNL1        0.0498
     14 S         -11.6716  -19.0504   24.4485 S.2     1  UNL1       -0.0520
     15 H         -14.8622  -17.9449   25.5096 H       1  UNL1        0.1442
     16 H         -13.7126  -18.7463   26.4811 H       1  UNL1        0.1442
     17 C          -5.8101  -20.5327   20.7414 C.3     1  UNL1        0.1166
     18 C          -4.6563  -19.5742   20.7411 C.ar    1  UNL1       -0.0017
     19 C          -4.0745  -19.1013   19.4419 C.ar    1  UNL1       -0.0017
     20 C          -2.9207  -18.1428   19.4416 C.ar    1  UNL1        0.0120
     21 C          -2.3487  -17.6572   20.7405 C.ar    1  UNL1        0.0682
     22 CL         -1.1949  -16.6987   20.7403 Cl      1  UNL1       -0.0814
     23 C          -2.9305  -18.1301   22.0397 C.ar    1  UNL1        0.0679
     24 CL         -2.3586  -17.6446   23.3386 Cl      1  UNL1       -0.0814
     25 C          -4.0844  -19.0887   22.0399 C.ar    1  UNL1        0.0096
@<TRIPOS>BOND
     1     5     6    1
     2     6     7   ar
     3     7     8   ar
     4     8     9   ar
     5     9    10   ar
     6    10    11   ar
     7    11     1    1
     8     1     2    2
     9     1     3   am
    10     3    17    1
    11    17    18    1
    12    18    19   ar
    13    19    20   ar
    14    20    21   ar
    15    21    22    1
    16    21    23   ar
    17    23    24    1
    18    23    25   ar
    19    11    12   ar
    20    12    13   ar
    21    13    14   ar
    22    14     6   ar
    23    13     8   ar
    24    25    18   ar
    25     5    15    1
    26     5    16    1
    27     3     4    1
@<TRIPOS>MOLECULE
*****
 25 27 0 0 0
SMALL
GASTEIGER

@<TRIPOS>ATOM
      1 C          -6.9865  -19.6308   21.4560 C.2     1  UNL1        0.2461
      2 O          -6.0402  -19.1317   22.5074 O.2     1  UNL1       -0.2701
      3 N          -6.4867  -20.5258   20.3610 N.am    1  UNL1       -0.2969
      4 H          -7.1078  -20.8534   19.6710 H       1  UNL1        0.1501
      5 N         -14.1045  -17.8111   24.2212 N.pl3   1  UNL1       -0.3375
      6 C         -12.8634  -18.1130   23.4347 C.ar    1  UNL1        0.1567
      7 N         -12.7347  -18.0726   21.9407 N.ar    1  UNL1       -0.2245
      8 C         -11.3249  -18.4428   21.5867 C.ar    1  UNL1        0.0892
      9 C         -10.6214  -18.5696   20.2680 C.ar    1  UNL1        0.0198
     10 C          -9.1753  -18.9655   20.2245 C.ar    1  UNL1        0.0061
     11 C          -8.4327  -19.2348   21.4996 C.ar    1  UNL1        0.0540
     12 C          -9.1361  -19.1080   22.8183 C.ar    1  UNL1        0.0126
     13 C         -10.5822  -18.7120   22.8619 C.ar    1  UNL1        0.0498
     14 S         -11.5331  -18.5082   24.0039 S.2     1  UNL1       -0.0520
     15 H         -14.9339  -17.5591   23.7545 H       1  UNL1        0.1442
     16 H         -14.0897  -17.8651   25.2041 H       1  UNL1        0.1442
     17 C          -5.0405  -20.9218   20.3174 C.3     1  UNL1        0.1166
     18 C          -3.9737  -19.8674   20.3230 C.ar    1  UNL1       -0.0017
     19 C          -2.9517  -19.8403   21.4206 C.ar    1  UNL1       -0.0017
     20 C          -1.8849  -18.7859   21.4262 C.ar    1  UNL1        0.0120
     21 C          -1.8400  -17.7586   20.3341 C.ar    1  UNL1        0.0682
     22 CL         -0.7732  -16.7042   20.3397 Cl      1  UNL1       -0.0814
     23 C          -2.8620  -17.7857   19.2365 C.ar    1  UNL1        0.0679
     24 CL         -2.8171  -16.7584   18.1444 Cl      1  UNL1       -0.0814
     25 C          -3.9288  -18.8402   19.2310 C.ar    1  UNL1        0.0096
@<TRIPOS>BOND
     1     5     6    1
     2     6     7   ar
     3     7     8   ar
     4     8     9   ar
     5     9    10   ar
     6    10    11   ar
     7    11     1    1
     8     1     2    2
     9     1     3   am
    10     3    17    1
    11    17    18    1
    12    18    19   ar
    13    19    20   ar
    14    20    21   ar
    15    21    22    1
    16    21    23   ar
    17    23    24    1
    18    23    25   ar
    19    11    12   ar
    20    12    13   ar
    21    13    14   ar
    22    14     6   ar
    23    13     8   ar
    24    25    18   ar
    25     5    15    1
    26     5    16    1
    27     3     4    1
@<TRIPOS>MOLECULE
*****
 25 27 0 0 0
SMALL
GASTEIGER

@<TRIPOS>ATOM
      1 C          -6.8313  -17.7535   22.7854 C.2     1  UNL1        0.2461
      2 O          -5.8763  -16.6522   23.1391 O.2     1  UNL1       -0.2701
      3 N          -6.3121  -19.1273   22.4805 N.am    1  UNL1       -0.2969
      4 H          -6.9389  -19.8502   22.2484 H       1  UNL1        0.1501
      5 N         -14.5243  -18.2468   24.2676 N.pl3   1  UNL1       -0.3375
      6 C         -13.1309  -17.9418   23.8036 C.ar    1  UNL1        0.1567
      7 N         -12.7445  -16.8942   22.8021 N.ar    1  UNL1       -0.2245
      8 C         -11.2539  -16.9358   22.6393 C.ar    1  UNL1        0.0892
      9 C         -10.3146  -16.1349   21.7871 C.ar    1  UNL1        0.0198
     10 C          -8.8404  -16.4075   21.8358 C.ar    1  UNL1        0.0061
     11 C          -8.3056  -17.4810   22.7367 C.ar    1  UNL1        0.0540
     12 C          -9.2449  -18.2818   23.5889 C.ar    1  UNL1        0.0126
     13 C         -10.7191  -18.0092   23.5402 C.ar    1  UNL1        0.0498
     14 S         -11.8791  -18.6310   24.2598 S.2     1  UNL1       -0.0520
     15 H         -15.2857  -17.7368   23.9077 H       1  UNL1        0.1442
     16 H         -14.6776  -18.9570   24.9319 H       1  UNL1        0.1442
     17 C          -4.8378  -19.3999   22.5292 C.3     1  UNL1        0.1166
     18 C          -3.9582  -18.9727   21.3918 C.ar    1  UNL1       -0.0017
     19 C          -4.1462  -19.5751   20.0310 C.ar    1  UNL1       -0.0017
     20 C          -3.2666  -19.1479   18.8936 C.ar    1  UNL1        0.0120
     21 C          -2.1988  -18.1183   19.1170 C.ar    1  UNL1        0.0682
     22 CL         -1.3191  -17.6911   17.9797 Cl      1  UNL1       -0.0814
     23 C          -2.0107  -17.5159   20.4779 C.ar    1  UNL1        0.0679
     24 CL         -0.9430  -16.4864   20.7013 Cl      1  UNL1       -0.0814
     25 C          -2.8905  -17.9432   21.6153 C.ar    1  UNL1        0.0096
@<TRIPOS>BOND
     1     5     6    1
     2     6     7   ar
     3     7     8   ar
     4     8     9   ar
     5     9    10   ar
     6    10    11   ar
     7    11     1    1
     8     1     2    2
     9     1     3   am
    10     3    17    1
    11    17    18    1
    12    18    19   ar
    13    19    20   ar
    14    20    21   ar
    15    21    22    1
    16    21    23   ar
    17    23    24    1
    18    23    25   ar
    19    11    12   ar
    20    12    13   ar
    21    13    14   ar
    22    14     6   ar
    23    13     8   ar
    24    25    18   ar
    25     5    15    1
    26     5    16    1
    27     3     4    1
@<TRIPOS>MOLECULE
*****
 25 27 0 0 0
SMALL
GASTEIGER

@<TRIPOS>ATOM
      1 C          -6.5115  -18.7154   22.0740 C.2     1  UNL1        0.2461
      2 O          -6.9606  -17.3700   22.5623 O.2     1  UNL1       -0.2701
      3 N          -7.4458  -19.8870   22.1392 N.am    1  UNL1       -0.2969
      4 H          -7.1511  -20.7700   21.8187 H       1  UNL1        0.1501
      5 N           0.9427  -17.2215   20.1181 N.pl3   1  UNL1       -0.3375
      6 C          -0.4340  -17.7622   20.3675 C.ar    1  UNL1        0.1567
      7 N          -0.9342  -19.1188   19.9681 N.ar    1  UNL1       -0.2245
      8 C          -2.3616  -19.2364   20.4138 C.ar    1  UNL1        0.0892
      9 C          -3.3628  -20.3467   20.2923 C.ar    1  UNL1        0.0198
     10 C          -4.7461  -20.1730   20.8457 C.ar    1  UNL1        0.0061
     11 C          -5.1282  -18.8890   21.5206 C.ar    1  UNL1        0.0540
     12 C          -4.1270  -17.7787   21.6421 C.ar    1  UNL1        0.0126
     13 C          -2.7437  -17.9524   21.0887 C.ar    1  UNL1        0.0498
     14 S          -1.5524  -17.0414   21.0600 S.2     1  UNL1       -0.0520
     15 H           1.6117  -17.7738   19.6526 H       1  UNL1        0.1442
     16 H           1.1773  -16.3142   20.4198 H       1  UNL1        0.1442
     17 C          -8.8292  -19.7134   22.6926 C.3     1  UNL1        0.1166
     18 C          -9.8063  -18.8106   21.9997 C.ar    1  UNL1       -0.0017
     19 C         -10.0391  -18.9487   20.5243 C.ar    1  UNL1       -0.0017
     20 C         -11.0162  -18.0459   19.8315 C.ar    1  UNL1        0.0120
     21 C         -11.7606  -17.0049   20.6140 C.ar    1  UNL1        0.0682
     22 CL        -12.7377  -16.1020   19.9211 Cl      1  UNL1       -0.0814
     23 C         -11.5278  -16.8667   22.0893 C.ar    1  UNL1        0.0679
     24 CL        -12.2721  -15.8258   22.8718 Cl      1  UNL1       -0.0814
     25 C         -10.5506  -17.7696   22.7822 C.ar    1  UNL1        0.0096
@<TRIPOS>BOND
     1     5     6    1
     2     6     7   ar
     3     7     8   ar
     4     8     9   ar
     5     9    10   ar
     6    10    11   ar
     7    11     1    1
     8     1     2    2
     9     1     3   am
    10     3    17    1
    11    17    18    1
    12    18    19   ar
    13    19    20   ar
    14    20    21   ar
    15    21    22    1
    16    21    23   ar
    17    23    24    1
    18    23    25   ar
    19    11    12   ar
    20    12    13   ar
    21    13    14   ar
    22    14     6   ar
    23    13     8   ar
    24    25    18   ar
    25     5    15    1
    26     5    16    1
    27     3     4    1
@<TRIPOS>MOLECULE
*****
 25 27 0 0 0
SMALL
GASTEIGER

@<TRIPOS>ATOM
      1 C          -6.8994  -16.3440   23.8109 C.2     1  UNL1        0.2461
      2 O          -6.5510  -15.5261   25.0191 O.2     1  UNL1       -0.2701
      3 N          -5.8222  -17.0689   23.0598 N.am    1  UNL1       -0.2969
      4 H          -6.0508  -17.6056   22.2668 H       1  UNL1        0.1501
      5 N         -13.3043  -15.7623   19.3096 N.pl3   1  UNL1       -0.3375
      6 C         -12.2606  -15.9877   20.3631 C.ar    1  UNL1        0.1567
      7 N         -12.4913  -16.5866   21.7189 N.ar    1  UNL1       -0.2245
      8 C         -11.1762  -16.6229   22.4395 C.ar    1  UNL1        0.0892
      9 C         -10.7941  -17.1063   23.8070 C.ar    1  UNL1        0.0198
     10 C          -9.3685  -17.0133   24.2641 C.ar    1  UNL1        0.0061
     11 C          -8.3250  -16.4369   23.3537 C.ar    1  UNL1        0.0540
     12 C          -8.7072  -15.9535   21.9862 C.ar    1  UNL1        0.0126
     13 C         -10.1328  -16.0465   21.5291 C.ar    1  UNL1        0.0498
     14 S         -10.8030  -15.6539   20.2458 S.2     1  UNL1       -0.0520
     15 H         -14.2400  -16.0159   19.4814 H       1  UNL1        0.1442
     16 H         -13.0537  -15.3607   18.4464 H       1  UNL1        0.1442
     17 C          -4.3965  -16.9759   23.5170 C.3     1  UNL1        0.1166
     18 C          -3.2803  -17.2467   22.5522 C.ar    1  UNL1       -0.0017
     19 C          -2.3715  -16.1325   22.1249 C.ar    1  UNL1       -0.0017
     20 C          -1.2554  -16.4033   21.1601 C.ar    1  UNL1        0.0120
     21 C          -1.0480  -17.7883   20.6226 C.ar    1  UNL1        0.0682
     22 CL          0.0682  -18.0591   19.6579 Cl      1  UNL1       -0.0814
     23 C          -1.9568  -18.9025   21.0500 C.ar    1  UNL1        0.0679
     24 CL         -1.7495  -20.2874   20.5126 Cl      1  UNL1       -0.0814
     25 C          -3.0730  -18.6316   22.0148 C.ar    1  UNL1        0.0096
@<TRIPOS>BOND
     1     5     6    1
     2     6     7   ar
     3     7     8   ar
     4     8     9   ar
     5     9    10   ar
     6    10    11   ar
     7    11     1    1
     8     1     2    2
     9     1     3   am
    10     3    17    1
    11    17    18    1
    12    18    19   ar
    13    19    20   ar
    14    20    21   ar
    15    21    22    1
    16    21    23   ar
    17    23    24    1
    18    23    25   ar
    19    11    12   ar
    20    12    13   ar
    21    13    14   ar
    22    14     6   ar
    23    13     8   ar
    24    25    18   ar
    25     5    15    1
    26     5    16    1
    27     3     4    1
@<TRIPOS>MOLECULE
*****
 25 27 0 0 0
SMALL
GASTEIGER

@<TRIPOS>ATOM
      1 C         -13.1226   -7.4352   17.9425 C.2     1  UNL1        0.2461
      2 O         -12.8776   -6.8470   16.5846 O.2     1  UNL1       -0.2701
      3 N         -12.0311   -7.4272   18.9714 N.am    1  UNL1       -0.2969
      4 H         -12.1919   -7.8133   19.8626 H       1  UNL1        0.1501
      5 N         -20.4604   -8.1786   20.6307 N.pl3   1  UNL1       -0.3375
      6 C         -19.0904   -8.3106   20.0344 C.ar    1  UNL1        0.1567
      7 N         -18.5277   -9.5378   19.3809 N.ar    1  UNL1       -0.2245
      8 C         -17.1320   -9.2242   18.9296 C.ar    1  UNL1        0.0892
      9 C         -16.0954  -10.0490   18.2259 C.ar    1  UNL1        0.0198
     10 C         -14.7590   -9.4527   17.8969 C.ar    1  UNL1        0.0061
     11 C         -14.4591   -8.0315   18.2716 C.ar    1  UNL1        0.0540
     12 C         -15.4956   -7.2067   18.9752 C.ar    1  UNL1        0.0126
     13 C         -16.8320   -7.8030   19.3042 C.ar    1  UNL1        0.0498
     14 S         -18.0424   -7.2384   19.9871 S.2     1  UNL1       -0.0520
     15 H         -21.0805   -8.9431   20.6134 H       1  UNL1        0.1442
     16 H         -20.7396   -7.3275   21.0393 H       1  UNL1        0.1442
     17 C         -10.6946   -6.8309   18.6423 C.3     1  UNL1        0.1166
     18 C         -10.5987   -5.3980   18.2092 C.ar    1  UNL1       -0.0017
     19 C          -9.7098   -5.0191   17.0619 C.ar    1  UNL1       -0.0017
     20 C          -9.6140   -3.5862   16.6288 C.ar    1  UNL1        0.0120
     21 C         -10.4071   -2.5322   17.3430 C.ar    1  UNL1        0.0682
     22 CL        -10.3113   -1.0993   16.9099 Cl      1  UNL1       -0.0814
     23 C         -11.2960   -2.9111   18.4903 C.ar    1  UNL1        0.0679
     24 CL        -12.0891   -1.8571   19.2045 Cl      1  UNL1       -0.0814
     25 C         -11.3918   -4.3440   18.9234 C.ar    1  UNL1        0.0096
@<TRIPOS>BOND
     1     5     6    1
     2     6     7   ar
     3     7     8   ar
     4     8     9   ar
     5     9    10   ar
     6    10    11   ar
     7    11     1    1
     8     1     2    2
     9     1     3   am
    10     3    17    1
    11    17    18    1
    12    18    19   ar
    13    19    20   ar
    14    20    21   ar
    15    21    22    1
    16    21    23   ar
    17    23    24    1
    18    23    25   ar
    19    11    12   ar
    20    12    13   ar
    21    13    14   ar
    22    14     6   ar
    23    13     8   ar
    24    25    18   ar
    25     5    15    1
    26     5    16    1
    27     3     4    1
@<TRIPOS>MOLECULE
*****
 25 27 0 0 0
SMALL
GASTEIGER

@<TRIPOS>ATOM
      1 C         -14.2365   -6.4942   19.5208 C.2     1  UNL1        0.2461
      2 O         -14.0195   -5.2961   20.3968 O.2     1  UNL1       -0.2701
      3 N         -13.0666   -7.1645   18.8635 N.am    1  UNL1       -0.2969
      4 H         -13.2090   -7.9509   18.2886 H       1  UNL1        0.1501
      5 N         -20.1379  -11.4085   17.8939 N.pl3   1  UNL1       -0.3375
      6 C         -19.2194  -10.2752   18.2433 C.ar    1  UNL1        0.1567
      7 N         -19.6363   -8.8753   18.5844 N.ar    1  UNL1       -0.2245
      8 C         -18.3972   -8.0778   18.8648 C.ar    1  UNL1        0.0892
      9 C         -18.1932   -6.6429   19.2512 C.ar    1  UNL1        0.0198
     10 C         -16.8063   -6.1151   19.4699 C.ar    1  UNL1        0.0061
     11 C         -15.6234   -7.0221   19.3021 C.ar    1  UNL1        0.0540
     12 C         -15.8275   -8.4570   18.9157 C.ar    1  UNL1        0.0126
     13 C         -17.2144   -8.9849   18.6970 C.ar    1  UNL1        0.0498
     14 S         -17.7225  -10.3429   18.3129 S.2     1  UNL1       -0.0520
     15 H         -21.1117  -11.2648   17.8746 H       1  UNL1        0.1442
     16 H         -19.7670  -12.2959   17.6840 H       1  UNL1        0.1442
     17 C         -11.6796   -6.6366   19.0822 C.3     1  UNL1        0.1166
     18 C         -11.2054   -5.4354   18.3193 C.ar    1  UNL1       -0.0017
     19 C         -10.5074   -5.6103   17.0031 C.ar    1  UNL1       -0.0017
     20 C         -10.0332   -4.4091   16.2402 C.ar    1  UNL1        0.0120
     21 C         -10.2569   -3.0329   16.7933 C.ar    1  UNL1        0.0682
     22 CL         -9.7827   -1.8317   16.0304 Cl      1  UNL1       -0.0814
     23 C         -10.9549   -2.8579   18.1095 C.ar    1  UNL1        0.0679
     24 CL        -11.1786   -1.4817   18.6626 Cl      1  UNL1       -0.0814
     25 C         -11.4291   -4.0592   18.8724 C.ar    1  UNL1        0.0096
@<TRIPOS>BOND
     1     5     6    1
     2     6     7   ar
     3     7     8   ar
     4     8     9   ar
     5     9    10   ar
     6    10    11   ar
     7    11     1    1
     8     1     2    2
     9     1     3   am
    10     3    17    1
    11    17    18    1
    12    18    19   ar
    13    19    20   ar
    14    20    21   ar
    15    21    22    1
    16    21    23   ar
    17    23    24    1
    18    23    25   ar
    19    11    12   ar
    20    12    13   ar
    21    13    14   ar
    22    14     6   ar
    23    13     8   ar
    24    25    18   ar
    25     5    15    1
    26     5    16    1
    27     3     4    1
@<TRIPOS>MOLECULE
*****
 25 27 0 0 0
SMALL
GASTEIGER

@<TRIPOS>ATOM
      1 C         -13.3269   -6.5232   18.3886 C.2     1  UNL1        0.2461
      2 O         -12.5556   -6.4209   17.1062 O.2     1  UNL1       -0.2701
      3 N         -12.9655   -5.6493   19.5530 N.am    1  UNL1       -0.2969
      4 H         -13.4717   -5.7165   20.3947 H       1  UNL1        0.1501
      5 N         -20.2676   -9.6426   20.3172 N.pl3   1  UNL1       -0.3375
      6 C         -18.8945   -9.2999   19.8202 C.ar    1  UNL1        0.1567
      7 N         -17.9959  -10.1979   19.0225 N.ar    1  UNL1       -0.2245
      8 C         -16.7249   -9.4520   18.7429 C.ar    1  UNL1        0.0892
      9 C         -15.4793   -9.8348   18.0000 C.ar    1  UNL1        0.0198
     10 C         -14.3466   -8.8585   17.8820 C.ar    1  UNL1        0.0061
     11 C         -14.4596   -7.4995   18.5067 C.ar    1  UNL1        0.0540
     12 C         -15.7053   -7.1168   19.2496 C.ar    1  UNL1        0.0126
     13 C         -16.8379   -8.0930   19.3676 C.ar    1  UNL1        0.0498
     14 S         -18.1788   -7.9990   20.0334 S.2     1  UNL1       -0.0520
     15 H         -20.6540  -10.5275   20.1252 H       1  UNL1        0.1442
     16 H         -20.7825   -8.9826   20.8355 H       1  UNL1        0.1442
     17 C         -11.8328   -4.6731   19.4349 C.3     1  UNL1        0.1166
     18 C         -12.1039   -3.2556   19.0261 C.ar    1  UNL1       -0.0017
     19 C         -13.4146   -2.6131   19.3714 C.ar    1  UNL1       -0.0017
     20 C         -13.6858   -1.1956   18.9626 C.ar    1  UNL1        0.0120
     21 C         -12.6461   -0.4205   18.2086 C.ar    1  UNL1        0.0682
     22 CL        -12.9173    0.9970   17.7999 Cl      1  UNL1       -0.0814
     23 C         -11.3354   -1.0629   17.8634 C.ar    1  UNL1        0.0679
     24 CL        -10.2958   -0.2879   17.1094 Cl      1  UNL1       -0.0814
     25 C         -11.0643   -2.4805   18.2721 C.ar    1  UNL1        0.0096
@<TRIPOS>BOND
     1     5     6    1
     2     6     7   ar
     3     7     8   ar
     4     8     9   ar
     5     9    10   ar
     6    10    11   ar
     7    11     1    1
     8     1     2    2
     9     1     3   am
    10     3    17    1
    11    17    18    1
    12    18    19   ar
    13    19    20   ar
    14    20    21   ar
    15    21    22    1
    16    21    23   ar
    17    23    24    1
    18    23    25   ar
    19    11    12   ar
    20    12    13   ar
    21    13    14   ar
    22    14     6   ar
    23    13     8   ar
    24    25    18   ar
    25     5    15    1
    26     5    16    1
    27     3     4    1
