@<TRIPOS>MOLECULE
*****
 38 41 0 0 0
SMALL
GASTEIGER

@<TRIPOS>ATOM
      1 C           2.5450    0.2173   20.3982 C.3     1  UNL1        0.3254
      2 F           1.6279   -0.9669   20.3163 F       1  UNL1       -0.1949
      3 F           3.3497    1.4080   20.8281 F       1  UNL1       -0.1949
      4 C           2.1933    0.3895   21.8463 C.ar    1  UNL1        0.1218
      5 C           1.0150    1.2315   22.2369 C.ar    1  UNL1        0.0202
      6 C           0.6633    1.4037   23.6849 C.ar    1  UNL1        0.0029
      7 C           1.4900    0.7339   24.7423 C.ar    1  UNL1        0.0192
      8 C           2.6683   -0.1081   24.3516 C.ar    1  UNL1        0.0986
      9 N           3.0199   -0.2803   22.9036 N.ar    1  UNL1       -0.2427
     10 C           1.1383    0.9061   26.1902 C.ar    1  UNL1        0.0017
     11 C          -0.2574    1.2910   26.5824 C.ar    1  UNL1        0.0032
     12 C          -0.6091    1.4632   28.0304 C.ar    1  UNL1        0.0369
     13 C           0.4350    1.2504   29.0862 C.ar    1  UNL1        0.1390
     14 C           1.8307    0.8655   28.6940 C.ar    1  UNL1        0.0369
     15 C           2.1823    0.6933   27.2460 C.ar    1  UNL1        0.0032
     16 O           0.0833    1.4226   30.5342 O.3     1  UNL1       -0.4666
     17 C           0.6942    2.5401   31.3266 C.3     1  UNL1        0.3081
     18 C           1.3600    2.2519   32.6395 C.3     1  UNL1        0.4380
     19 F           2.0258    1.9638   33.9524 F       1  UNL1       -0.1663
     20 F           1.9657    1.0083   32.0594 F       1  UNL1       -0.1663
     21 F           0.7543    3.4955   33.2196 F       1  UNL1       -0.1663
     22 O           3.2483   -0.1271   17.5023 O.3     1  UNL1       -0.3755
     23 C           2.8967    0.0451   18.9503 C.3     1  UNL1        0.1932
     24 H           2.5963    0.3366   16.9539 H       1  UNL1        0.2110
     25 C           2.2862    1.3804   18.6432 C.ar    1  UNL1        0.0368
     26 C           0.7945    1.5267   18.5813 C.ar    1  UNL1        0.0028
     27 C           0.1841    2.8620   18.2742 C.ar    1  UNL1        0.0295
     28 C           1.0651    4.0509   18.0290 C.ar    1  UNL1        0.1424
     29 F           0.4546    5.3862   17.7219 F       1  UNL1       -0.2041
     30 C           2.5566    3.9046   18.0908 C.ar    1  UNL1        0.0590
     31 C           3.1672    2.5693   18.3979 C.ar    1  UNL1        0.1408
     32 F           4.6587    2.4230   18.4598 F       1  UNL1       -0.2043
     33 C           3.5072   -1.2902   19.2573 C.3     1  UNL1        0.1679
     34 N           4.9154   -1.5862   18.8340 N.ar    1  UNL1       -0.2078
     35 C           6.1411   -1.4428   19.6868 C.ar    1  UNL1        0.2216
     36 N           7.3284   -1.8455   18.8634 N.ar    1  UNL1       -0.1048
     37 N           6.8366   -2.2379   17.5017 N.ar    1  UNL1       -0.0226
     38 N           5.3453   -2.0776   17.4836 N.ar    1  UNL1       -0.0428
@<TRIPOS>BOND
     1    22    23    1
     2    23    33    1
     3    33    34    1
     4    34    35   ar
     5    35    36   ar
     6    36    37   ar
     7    37    38   ar
     8    23    25    1
     9    25    26   ar
    10    26    27   ar
    11    27    28   ar
    12    28    29    1
    13    28    30   ar
    14    30    31   ar
    15    31    32    1
    16    23     1    1
    17     1     2    1
    18     1     3    1
    19     1     4    1
    20     4     5   ar
    21     5     6   ar
    22     6     7   ar
    23     7    10    1
    24    10    11   ar
    25    11    12   ar
    26    12    13   ar
    27    13    16    1
    28    16    17    1
    29    17    18    1
    30    18    19    1
    31    18    20    1
    32    18    21    1
    33    13    14   ar
    34    14    15   ar
    35     7     8   ar
    36     8     9   ar
    37    38    34   ar
    38    31    25   ar
    39     9     4   ar
    40    15    10   ar
    41    22    24    1
@<TRIPOS>MOLECULE
*****
 38 41 0 0 0
SMALL
GASTEIGER

@<TRIPOS>ATOM
      1 C          -2.7664    4.5084   20.0907 C.3     1  UNL1        0.3254
      2 F          -1.7874    5.6329   19.9263 F       1  UNL1       -0.1949
      3 F          -3.4494    3.1772   20.1972 F       1  UNL1       -0.1949
      4 C          -1.6633    3.5159   19.8713 C.ar    1  UNL1        0.1218
      5 C          -0.8577    3.5573   18.6066 C.ar    1  UNL1        0.0202
      6 C           0.2454    2.5648   18.3872 C.ar    1  UNL1        0.0029
      7 C           0.5430    1.5309   19.4324 C.ar    1  UNL1        0.0192
      8 C          -0.2627    1.4895   20.6971 C.ar    1  UNL1        0.0986
      9 N          -1.3657    2.4820   20.9165 N.ar    1  UNL1       -0.2427
     10 C           1.6460    0.5385   19.2130 C.ar    1  UNL1        0.0017
     11 C           2.6965    0.8020   18.1752 C.ar    1  UNL1        0.0032
     12 C           3.7997   -0.1905   17.9558 C.ar    1  UNL1        0.0369
     13 C           3.8523   -1.4465   18.7742 C.ar    1  UNL1        0.1390
     14 C           2.8017   -1.7100   19.8120 C.ar    1  UNL1        0.0369
     15 C           1.6987   -0.7175   20.0314 C.ar    1  UNL1        0.0032
     16 O           4.9554   -2.4390   18.5548 O.3     1  UNL1       -0.4666
     17 C           5.2268   -3.4978   19.5820 C.3     1  UNL1        0.3081
     18 C           4.3332   -4.6990   19.6752 C.3     1  UNL1        0.4380
     19 F           3.4396   -5.9001   19.7684 F       1  UNL1       -0.1663
     20 F           4.1074   -4.4180   21.1313 F       1  UNL1       -0.1663
     21 F           4.5590   -4.9799   18.2192 F       1  UNL1       -0.1663
     22 O          -4.9725    6.4934   20.5296 O.3     1  UNL1       -0.3755
     23 C          -3.8695    5.5009   20.3101 C.3     1  UNL1        0.1932
     24 H          -5.6154    6.1286   21.1577 H       1  UNL1        0.2110
     25 C          -4.0569    4.9840   21.7057 C.ar    1  UNL1        0.0368
     26 C          -3.0452    5.3037   22.7661 C.ar    1  UNL1        0.0028
     27 C          -3.2326    4.7869   24.1617 C.ar    1  UNL1        0.0295
     28 C          -4.4317    3.9504   24.4970 C.ar    1  UNL1        0.1424
     29 F          -4.6191    3.4335   25.8926 F       1  UNL1       -0.2041
     30 C          -5.4434    3.6307   23.4367 C.ar    1  UNL1        0.0590
     31 C          -5.2560    4.1476   22.0410 C.ar    1  UNL1        0.1408
     32 F          -6.2677    3.8279   20.9808 F       1  UNL1       -0.2043
     33 C          -3.6821    6.0178   18.9145 C.3     1  UNL1        0.1679
     34 N          -4.8157    5.9578   17.9340 N.ar    1  UNL1       -0.2078
     35 C          -4.9065    6.7174   16.6437 C.ar    1  UNL1        0.2216
     36 N          -6.2044    6.3568   15.9839 N.ar    1  UNL1       -0.1048
     37 N          -6.9157    5.3743   16.8664 N.ar    1  UNL1       -0.0226
     38 N          -6.0574    5.1278   18.0716 N.ar    1  UNL1       -0.0428
@<TRIPOS>BOND
     1    22    23    1
     2    23    33    1
     3    33    34    1
     4    34    35   ar
     5    35    36   ar
     6    36    37   ar
     7    37    38   ar
     8    23    25    1
     9    25    26   ar
    10    26    27   ar
    11    27    28   ar
    12    28    29    1
    13    28    30   ar
    14    30    31   ar
    15    31    32    1
    16    23     1    1
    17     1     2    1
    18     1     3    1
    19     1     4    1
    20     4     5   ar
    21     5     6   ar
    22     6     7   ar
    23     7    10    1
    24    10    11   ar
    25    11    12   ar
    26    12    13   ar
    27    13    16    1
    28    16    17    1
    29    17    18    1
    30    18    19    1
    31    18    20    1
    32    18    21    1
    33    13    14   ar
    34    14    15   ar
    35     7     8   ar
    36     8     9   ar
    37    38    34   ar
    38    31    25   ar
    39     9     4   ar
    40    15    10   ar
    41    22    24    1
@<TRIPOS>MOLECULE
*****
 38 41 0 0 0
SMALL
GASTEIGER

@<TRIPOS>ATOM
      1 C           4.7140   -0.8809   18.7438 C.3     1  UNL1        0.3254
      2 F           3.7272   -1.3486   17.7154 F       1  UNL1       -0.1949
      3 F           5.4067   -0.2486   19.9144 F       1  UNL1       -0.1949
      4 C           3.6202   -0.1435   19.4580 C.ar    1  UNL1        0.1218
      5 C           2.3831   -0.8726   19.8915 C.ar    1  UNL1        0.0202
      6 C           1.2894   -0.1353   20.6057 C.ar    1  UNL1        0.0029
      7 C           1.4327    1.3312   20.8863 C.ar    1  UNL1        0.0192
      8 C           2.6699    2.0604   20.4528 C.ar    1  UNL1        0.0986
      9 N           3.7636    1.3230   19.7387 N.ar    1  UNL1       -0.2427
     10 C           0.3390    2.0686   21.6005 C.ar    1  UNL1        0.0017
     11 C          -0.8077    2.6451   20.8242 C.ar    1  UNL1        0.0032
     12 C          -1.9015    3.3825   21.5384 C.ar    1  UNL1        0.0369
     13 C          -1.8485    3.5434   23.0288 C.ar    1  UNL1        0.1390
     14 C          -0.7017    2.9668   23.8050 C.ar    1  UNL1        0.0369
     15 C           0.3920    2.2295   23.0909 C.ar    1  UNL1        0.0032
     16 O          -2.9422    4.2808   23.7429 O.3     1  UNL1       -0.4666
     17 C          -4.0193    3.5182   24.4559 C.3     1  UNL1        0.3081
     18 C          -4.2982    3.7910   25.9043 C.3     1  UNL1        0.4380
     19 F          -4.5771    4.0639   27.3526 F       1  UNL1       -0.1663
     20 F          -2.8979    3.3799   26.2514 F       1  UNL1       -0.1663
     21 F          -5.6983    4.2021   25.5572 F       1  UNL1       -0.1663
     22 O           6.9014   -2.3555   17.3154 O.3     1  UNL1       -0.3755
     23 C           5.8077   -1.6182   18.0296 C.3     1  UNL1        0.1932
     24 H           7.2446   -1.8054   16.5940 H       1  UNL1        0.2110
     25 C           6.4686   -0.3139   17.6951 C.ar    1  UNL1        0.0368
     26 C           5.8671    0.5875   16.6579 C.ar    1  UNL1        0.0028
     27 C           6.5281    1.8918   16.3234 C.ar    1  UNL1        0.0295
     28 C           7.7905    2.2948   17.0262 C.ar    1  UNL1        0.1424
     29 F           8.4514    3.5991   16.6917 F       1  UNL1       -0.2041
     30 C           8.3920    1.3935   18.0634 C.ar    1  UNL1        0.0590
     31 C           7.7310    0.0892   18.3979 C.ar    1  UNL1        0.1408
     32 F           8.3325   -0.8121   19.4351 F       1  UNL1       -0.2043
     33 C           5.1468   -2.9226   18.3641 C.3     1  UNL1        0.1679
     34 N           5.2209   -3.4645   19.7608 N.ar    1  UNL1       -0.2078
     35 C           6.4604   -3.5778   20.5979 C.ar    1  UNL1        0.2216
     36 N           6.0741   -4.1716   21.9201 N.ar    1  UNL1       -0.1048
     37 N           4.5958   -4.4253   21.9001 N.ar    1  UNL1       -0.0226
     38 N           4.0685   -3.9883   20.5655 N.ar    1  UNL1       -0.0428
@<TRIPOS>BOND
     1    22    23    1
     2    23    33    1
     3    33    34    1
     4    34    35   ar
     5    35    36   ar
     6    36    37   ar
     7    37    38   ar
     8    23    25    1
     9    25    26   ar
    10    26    27   ar
    11    27    28   ar
    12    28    29    1
    13    28    30   ar
    14    30    31   ar
    15    31    32    1
    16    23     1    1
    17     1     2    1
    18     1     3    1
    19     1     4    1
    20     4     5   ar
    21     5     6   ar
    22     6     7   ar
    23     7    10    1
    24    10    11   ar
    25    11    12   ar
    26    12    13   ar
    27    13    16    1
    28    16    17    1
    29    17    18    1
    30    18    19    1
    31    18    20    1
    32    18    21    1
    33    13    14   ar
    34    14    15   ar
    35     7     8   ar
    36     8     9   ar
    37    38    34   ar
    38    31    25   ar
    39     9     4   ar
    40    15    10   ar
    41    22    24    1
@<TRIPOS>MOLECULE
*****
 38 41 0 0 0
SMALL
GASTEIGER

@<TRIPOS>ATOM
      1 C           4.0843   -1.8973   20.8295 C.3     1  UNL1        0.3254
      2 F           3.6168   -3.3137   20.9892 F       1  UNL1       -0.1949
      3 F           4.5588   -0.4894   21.0354 F       1  UNL1       -0.1949
      4 C           4.1707   -1.7578   22.3206 C.ar    1  UNL1        0.1218
      5 C           3.2280   -0.8424   23.0440 C.ar    1  UNL1        0.0202
      6 C           3.3143   -0.7028   24.5350 C.ar    1  UNL1        0.0029
      7 C           4.3434   -1.4786   25.3026 C.ar    1  UNL1        0.0192
      8 C           5.2862   -2.3940   24.5790 C.ar    1  UNL1        0.0986
      9 N           5.1998   -2.5335   23.0881 N.ar    1  UNL1       -0.2427
     10 C           4.4298   -1.3391   26.7935 C.ar    1  UNL1        0.0017
     11 C           3.2490   -0.8355   27.5693 C.ar    1  UNL1        0.0032
     12 C           3.3353   -0.6959   29.0603 C.ar    1  UNL1        0.0369
     13 C           4.6026   -1.0599   29.7755 C.ar    1  UNL1        0.1390
     14 C           5.7835   -1.5636   28.9997 C.ar    1  UNL1        0.0369
     15 C           5.6971   -1.7031   27.5087 C.ar    1  UNL1        0.0032
     16 O           4.6890   -0.9204   31.2665 O.3     1  UNL1       -0.4666
     17 C           5.9050   -1.4089   31.9962 C.3     1  UNL1        0.3081
     18 C           6.0221   -2.8559   32.3741 C.3     1  UNL1        0.4380
     19 F           6.1392   -4.3028   32.7520 F       1  UNL1       -0.1663
     20 F           4.6154   -2.8338   32.8945 F       1  UNL1       -0.1663
     21 F           7.4287   -2.8779   31.8538 F       1  UNL1       -0.1663
     22 O           3.9116   -2.1766   17.8476 O.3     1  UNL1       -0.3755
     23 C           3.9980   -2.0370   19.3386 C.3     1  UNL1        0.1932
     24 H           3.0312   -1.9013   17.5475 H       1  UNL1        0.2110
     25 C           3.0251   -0.8964   19.2881 C.ar    1  UNL1        0.0368
     26 C           1.6696   -1.0384   19.9146 C.ar    1  UNL1        0.0028
     27 C           0.6968    0.1022   19.8642 C.ar    1  UNL1        0.0295
     28 C           1.0794    1.3849   19.1872 C.ar    1  UNL1        0.1424
     29 F           0.1066    2.5255   19.1367 F       1  UNL1       -0.2041
     30 C           2.4349    1.5270   18.5607 C.ar    1  UNL1        0.0590
     31 C           3.4078    0.3863   18.6111 C.ar    1  UNL1        0.1408
     32 F           4.7632    0.5284   17.9846 F       1  UNL1       -0.2043
     33 C           4.9708   -3.1776   19.3890 C.3     1  UNL1        0.1679
     34 N           6.4433   -2.9129   19.2810 N.ar    1  UNL1       -0.2078
     35 C           7.4827   -3.2842   20.2968 C.ar    1  UNL1        0.2216
     36 N           8.8167   -2.8311   19.7819 N.ar    1  UNL1       -0.1048
     37 N           8.6017   -2.1796   18.4479 N.ar    1  UNL1       -0.0226
     38 N           7.1349   -2.2302   18.1384 N.ar    1  UNL1       -0.0428
@<TRIPOS>BOND
     1    22    23    1
     2    23    33    1
     3    33    34    1
     4    34    35   ar
     5    35    36   ar
     6    36    37   ar
     7    37    38   ar
     8    23    25    1
     9    25    26   ar
    10    26    27   ar
    11    27    28   ar
    12    28    29    1
    13    28    30   ar
    14    30    31   ar
    15    31    32    1
    16    23     1    1
    17     1     2    1
    18     1     3    1
    19     1     4    1
    20     4     5   ar
    21     5     6   ar
    22     6     7   ar
    23     7    10    1
    24    10    11   ar
    25    11    12   ar
    26    12    13   ar
    27    13    16    1
    28    16    17    1
    29    17    18    1
    30    18    19    1
    31    18    20    1
    32    18    21    1
    33    13    14   ar
    34    14    15   ar
    35     7     8   ar
    36     8     9   ar
    37    38    34   ar
    38    31    25   ar
    39     9     4   ar
    40    15    10   ar
    41    22    24    1
@<TRIPOS>MOLECULE
*****
 38 41 0 0 0
SMALL
GASTEIGER

@<TRIPOS>ATOM
      1 C           4.5633   -0.5247   18.1269 C.3     1  UNL1        0.3254
      2 F           3.9648   -0.8458   16.7894 F       1  UNL1       -0.1949
      3 F           4.8541   -0.0099   19.5055 F       1  UNL1       -0.1949
      4 C           3.3658    0.3148   18.4611 C.ar    1  UNL1        0.1218
      5 C           3.4178    1.8025   18.2767 C.ar    1  UNL1        0.0202
      6 C           2.2204    2.6419   18.6109 C.ar    1  UNL1        0.0029
      7 C           0.9711    1.9936   19.1295 C.ar    1  UNL1        0.0192
      8 C           0.9192    0.5059   19.3139 C.ar    1  UNL1        0.0986
      9 N           2.1165   -0.3335   18.9797 N.ar    1  UNL1       -0.2427
     10 C          -0.2263    2.8330   19.4637 C.ar    1  UNL1        0.0017
     11 C          -0.7530    3.8197   18.4642 C.ar    1  UNL1        0.0032
     12 C          -1.9505    4.6591   18.7984 C.ar    1  UNL1        0.0369
     13 C          -2.6211    4.5118   20.1320 C.ar    1  UNL1        0.1390
     14 C          -2.0942    3.5251   21.1315 C.ar    1  UNL1        0.0369
     15 C          -0.8969    2.6857   20.7973 C.ar    1  UNL1        0.0032
     16 O          -3.8184    5.3512   20.4662 O.3     1  UNL1       -0.4666
     17 C          -5.0416    5.2914   19.6001 C.3     1  UNL1        0.3081
     18 C          -5.6175    3.9634   19.2062 C.3     1  UNL1        0.4380
     19 F          -6.1934    2.6356   18.8125 F       1  UNL1       -0.1663
     20 F          -5.1536    4.1804   17.7963 F       1  UNL1       -0.1663
     21 F          -6.0814    3.7465   20.6161 F       1  UNL1       -0.1663
     22 O           6.9579   -2.2035   17.4585 O.3     1  UNL1       -0.3755
     23 C           5.7606   -1.3641   17.7927 C.3     1  UNL1        0.1932
     24 H           7.5261   -1.7230   16.8363 H       1  UNL1        0.2110
     25 C           6.5758   -0.1212   17.5915 C.ar    1  UNL1        0.0368
     26 C           6.3904    0.7052   16.3535 C.ar    1  UNL1        0.0028
     27 C           7.2056    1.9481   16.1523 C.ar    1  UNL1        0.0295
     28 C           8.2063    2.3647   17.1891 C.ar    1  UNL1        0.1424
     29 F           9.0215    3.6076   16.9880 F       1  UNL1       -0.2041
     30 C           8.3917    1.5384   18.4272 C.ar    1  UNL1        0.0590
     31 C           7.5765    0.2954   18.6284 C.ar    1  UNL1        0.1408
     32 F           7.7619   -0.5309   19.8664 F       1  UNL1       -0.2043
     33 C           4.9453   -2.6071   17.9939 C.3     1  UNL1        0.1679
     34 N           4.9808   -3.3221   19.3120 N.ar    1  UNL1       -0.2078
     35 C           3.9040   -4.2091   19.8632 C.ar    1  UNL1        0.2216
     36 N           4.3569   -4.7109   21.2022 N.ar    1  UNL1       -0.1048
     37 N           5.7138   -4.1340   21.4786 N.ar    1  UNL1       -0.0226
     38 N           6.0993   -3.2757   20.3104 N.ar    1  UNL1       -0.0428
@<TRIPOS>BOND
     1    22    23    1
     2    23    33    1
     3    33    34    1
     4    34    35   ar
     5    35    36   ar
     6    36    37   ar
     7    37    38   ar
     8    23    25    1
     9    25    26   ar
    10    26    27   ar
    11    27    28   ar
    12    28    29    1
    13    28    30   ar
    14    30    31   ar
    15    31    32    1
    16    23     1    1
    17     1     2    1
    18     1     3    1
    19     1     4    1
    20     4     5   ar
    21     5     6   ar
    22     6     7   ar
    23     7    10    1
    24    10    11   ar
    25    11    12   ar
    26    12    13   ar
    27    13    16    1
    28    16    17    1
    29    17    18    1
    30    18    19    1
    31    18    20    1
    32    18    21    1
    33    13    14   ar
    34    14    15   ar
    35     7     8   ar
    36     8     9   ar
    37    38    34   ar
    38    31    25   ar
    39     9     4   ar
    40    15    10   ar
    41    22    24    1
@<TRIPOS>MOLECULE
*****
 38 41 0 0 0
SMALL
GASTEIGER

@<TRIPOS>ATOM
      1 C           5.1230   -2.7682   21.5495 C.3     1  UNL1        0.3254
      2 F           4.0742   -3.8388   21.4873 F       1  UNL1       -0.1949
      3 F           5.8895   -1.4896   21.7154 F       1  UNL1       -0.1949
      4 C           4.0853   -1.7769   21.9861 C.ar    1  UNL1        0.1218
      5 C           3.9748   -1.3947   23.4323 C.ar    1  UNL1        0.0202
      6 C           2.9370   -0.4034   23.8690 C.ar    1  UNL1        0.0029
      7 C           2.0098    0.2055   22.8593 C.ar    1  UNL1        0.0192
      8 C           2.1204   -0.1768   21.4130 C.ar    1  UNL1        0.0986
      9 N           3.1581   -1.1680   20.9764 N.ar    1  UNL1       -0.2427
     10 C           0.9721    1.1968   23.2958 C.ar    1  UNL1        0.0017
     11 C           0.3587    2.1303   22.2948 C.ar    1  UNL1        0.0032
     12 C          -0.6791    3.1216   22.7313 C.ar    1  UNL1        0.0369
     13 C          -1.1033    3.1793   24.1689 C.ar    1  UNL1        0.1390
     14 C          -0.4898    2.2457   25.1700 C.ar    1  UNL1        0.0369
     15 C           0.5479    1.2545   24.7334 C.ar    1  UNL1        0.0032
     16 O          -2.1410    4.1705   24.6055 O.3     1  UNL1       -0.4666
     17 C          -3.0524    3.8463   25.7518 C.3     1  UNL1        0.3081
     18 C          -4.5399    3.8929   25.5638 C.3     1  UNL1        0.4380
     19 F          -6.0273    3.9394   25.3757 F       1  UNL1       -0.1663
     20 F          -4.3576    3.7356   24.0831 F       1  UNL1       -0.1663
     21 F          -4.7221    4.0501   27.0443 F       1  UNL1       -0.1663
     22 O           7.1983   -4.7507   20.6763 O.3     1  UNL1       -0.3755
     23 C           6.1607   -3.7595   21.1129 C.3     1  UNL1        0.1932
     24 H           8.0371   -4.5592   21.1242 H       1  UNL1        0.2110
     25 C           6.8344   -3.6421   22.4479 C.ar    1  UNL1        0.0368
     26 C           6.2071   -4.2614   23.6616 C.ar    1  UNL1        0.0028
     27 C           6.8809   -4.1441   24.9966 C.ar    1  UNL1        0.0295
     28 C           8.1820   -3.4076   25.1179 C.ar    1  UNL1        0.1424
     29 F           8.8557   -3.2902   26.4529 F       1  UNL1       -0.2041
     30 C           8.8093   -2.7883   23.9043 C.ar    1  UNL1        0.0590
     31 C           8.1355   -2.9056   22.5692 C.ar    1  UNL1        0.1408
     32 F           8.7628   -2.2864   21.3555 F       1  UNL1       -0.2043
     33 C           5.4869   -3.8768   19.7778 C.3     1  UNL1        0.1679
     34 N           5.6475   -2.7882   18.7584 N.ar    1  UNL1       -0.2078
     35 C           6.9454   -2.1847   18.3101 C.ar    1  UNL1        0.2216
     36 N           6.6384   -1.1355   17.2829 N.ar    1  UNL1       -0.1048
     37 N           5.1507   -1.0907   17.0965 N.ar    1  UNL1       -0.0226
     38 N           4.5383   -2.1121   18.0084 N.ar    1  UNL1       -0.0428
@<TRIPOS>BOND
     1    22    23    1
     2    23    33    1
     3    33    34    1
     4    34    35   ar
     5    35    36   ar
     6    36    37   ar
     7    37    38   ar
     8    23    25    1
     9    25    26   ar
    10    26    27   ar
    11    27    28   ar
    12    28    29    1
    13    28    30   ar
    14    30    31   ar
    15    31    32    1
    16    23     1    1
    17     1     2    1
    18     1     3    1
    19     1     4    1
    20     4     5   ar
    21     5     6   ar
    22     6     7   ar
    23     7    10    1
    24    10    11   ar
    25    11    12   ar
    26    12    13   ar
    27    13    16    1
    28    16    17    1
    29    17    18    1
    30    18    19    1
    31    18    20    1
    32    18    21    1
    33    13    14   ar
    34    14    15   ar
    35     7     8   ar
    36     8     9   ar
    37    38    34   ar
    38    31    25   ar
    39     9     4   ar
    40    15    10   ar
    41    22    24    1
@<TRIPOS>MOLECULE
*****
 38 41 0 0 0
SMALL
GASTEIGER

@<TRIPOS>ATOM
      1 C           7.4215   -3.7953   27.0175 C.3     1  UNL1        0.3254
      2 F           8.6076   -3.1966   26.3210 F       1  UNL1       -0.1949
      3 F           6.0537   -4.2525   27.4298 F       1  UNL1       -0.1949
      4 C           6.5246   -3.2845   25.9290 C.ar    1  UNL1        0.1218
      5 C           6.4944   -3.9733   24.5970 C.ar    1  UNL1        0.0202
      6 C           5.5975   -3.4625   23.5085 C.ar    1  UNL1        0.0029
      7 C           4.7307   -2.2628   23.7523 C.ar    1  UNL1        0.0192
      8 C           4.7609   -1.5739   25.0844 C.ar    1  UNL1        0.0986
      9 N           5.6578   -2.0847   26.1728 N.ar    1  UNL1       -0.2427
     10 C           3.8338   -1.7520   22.6639 C.ar    1  UNL1        0.0017
     11 C           2.9204   -0.5918   22.9276 C.ar    1  UNL1        0.0032
     12 C           2.0234   -0.0809   21.8392 C.ar    1  UNL1        0.0369
     13 C           2.0399   -0.7303   20.4872 C.ar    1  UNL1        0.1390
     14 C           2.9534   -1.8905   20.2235 C.ar    1  UNL1        0.0369
     15 C           3.8503   -2.4014   21.3119 C.ar    1  UNL1        0.0032
     16 O           1.1430   -0.2194   19.3988 O.3     1  UNL1       -0.4666
     17 C           1.6841    0.7152   18.3579 C.3     1  UNL1        0.3081
     18 C           3.1435    1.0622   18.3474 C.3     1  UNL1        0.4380
     19 F           4.6027    1.4093   18.3370 F       1  UNL1       -0.1663
     20 F           3.4053   -0.0675   17.3959 F       1  UNL1       -0.1663
     21 F           2.8816    2.1918   19.2989 F       1  UNL1       -0.1663
     22 O           9.2154   -4.8168   29.1942 O.3     1  UNL1       -0.3755
     23 C           8.3185   -4.3060   28.1058 C.3     1  UNL1        0.1932
     24 H           9.4034   -4.1007   29.8209 H       1  UNL1        0.2110
     25 C           7.7062   -3.3315   29.0678 C.ar    1  UNL1        0.0368
     26 C           8.0346   -1.8713   28.9670 C.ar    1  UNL1        0.0028
     27 C           7.4223   -0.8968   29.9289 C.ar    1  UNL1        0.0295
     28 C           6.4817   -1.3824   30.9917 C.ar    1  UNL1        0.1424
     29 F           5.8694   -0.4078   31.9536 F       1  UNL1       -0.2041
     30 C           6.1533   -2.8425   31.0925 C.ar    1  UNL1        0.0590
     31 C           6.7656   -3.8171   30.1305 C.ar    1  UNL1        0.1408
     32 F           6.4372   -5.2772   30.2313 F       1  UNL1       -0.2043
     33 C           8.9308   -5.2806   27.1439 C.3     1  UNL1        0.1679
     34 N           8.4672   -6.7070   27.1244 N.ar    1  UNL1       -0.2078
     35 C           7.4884   -7.3029   26.1564 C.ar    1  UNL1        0.2216
     36 N           7.3173   -8.7521   26.5032 N.ar    1  UNL1       -0.1048
     37 N           8.1903   -9.0520   27.6856 N.ar    1  UNL1       -0.0226
     38 N           8.9010   -7.7881   28.0694 N.ar    1  UNL1       -0.0428
@<TRIPOS>BOND
     1    22    23    1
     2    23    33    1
     3    33    34    1
     4    34    35   ar
     5    35    36   ar
     6    36    37   ar
     7    37    38   ar
     8    23    25    1
     9    25    26   ar
    10    26    27   ar
    11    27    28   ar
    12    28    29    1
    13    28    30   ar
    14    30    31   ar
    15    31    32    1
    16    23     1    1
    17     1     2    1
    18     1     3    1
    19     1     4    1
    20     4     5   ar
    21     5     6   ar
    22     6     7   ar
    23     7    10    1
    24    10    11   ar
    25    11    12   ar
    26    12    13   ar
    27    13    16    1
    28    16    17    1
    29    17    18    1
    30    18    19    1
    31    18    20    1
    32    18    21    1
    33    13    14   ar
    34    14    15   ar
    35     7     8   ar
    36     8     9   ar
    37    38    34   ar
    38    31    25   ar
    39     9     4   ar
    40    15    10   ar
    41    22    24    1
@<TRIPOS>MOLECULE
*****
 38 41 0 0 0
SMALL
GASTEIGER

@<TRIPOS>ATOM
      1 C           3.0866    2.3300   35.1662 C.3     1  UNL1        0.3254
      2 F           2.6751    3.7585   35.3668 F       1  UNL1       -0.1949
      3 F           3.3287    0.9447   34.6445 F       1  UNL1       -0.1949
      4 C           2.4373    2.3328   33.8140 C.ar    1  UNL1        0.1218
      5 C           2.7902    1.2754   32.8104 C.ar    1  UNL1        0.0202
      6 C           2.1409    1.2782   31.4582 C.ar    1  UNL1        0.0029
      7 C           1.1387    2.3384   31.1096 C.ar    1  UNL1        0.0192
      8 C           0.7858    3.3959   32.1133 C.ar    1  UNL1        0.0986
      9 N           1.4351    3.3931   33.4654 N.ar    1  UNL1       -0.2427
     10 C           0.4894    2.3412   29.7575 C.ar    1  UNL1        0.0017
     11 C           0.4388    3.6058   28.9524 C.ar    1  UNL1        0.0032
     12 C          -0.2105    3.6087   27.6002 C.ar    1  UNL1        0.0369
     13 C          -0.8092    2.3469   27.0531 C.ar    1  UNL1        0.1390
     14 C          -0.7587    1.0822   27.8582 C.ar    1  UNL1        0.0369
     15 C          -0.1094    1.0794   29.2103 C.ar    1  UNL1        0.0032
     16 O          -1.4585    2.3497   25.7009 O.3     1  UNL1       -0.4666
     17 C          -2.2778    3.5281   25.2649 C.3     1  UNL1        0.3081
     18 C          -3.7750    3.4360   25.2491 C.3     1  UNL1        0.4380
     19 F          -5.2720    3.3439   25.2332 F       1  UNL1       -0.1663
     20 F          -3.8007    3.5989   26.7400 F       1  UNL1       -0.1663
     21 F          -3.7492    3.2731   23.7582 F       1  UNL1       -0.1663
     22 O           4.3851    2.3246   37.8706 O.3     1  UNL1       -0.3755
     23 C           3.7358    2.3273   36.5184 C.3     1  UNL1        0.1932
     24 H           5.1145    1.6852   37.8777 H       1  UNL1        0.2110
     25 C           5.0469    1.9616   35.8881 C.ar    1  UNL1        0.0368
     26 C           5.8087    2.9822   35.0956 C.ar    1  UNL1        0.0028
     27 C           7.1198    2.6165   34.4653 C.ar    1  UNL1        0.0295
     28 C           7.6691    1.2301   34.6276 C.ar    1  UNL1        0.1424
     29 F           8.9802    0.8644   33.9973 F       1  UNL1       -0.2041
     30 C           6.9074    0.2096   35.4201 C.ar    1  UNL1        0.0590
     31 C           5.5963    0.5753   36.0504 C.ar    1  UNL1        0.1408
     32 F           4.8346   -0.4453   36.8429 F       1  UNL1       -0.2043
     33 C           2.4247    2.6931   37.1487 C.3     1  UNL1        0.1679
     34 N           1.9445    1.9548   38.3630 N.ar    1  UNL1       -0.2078
     35 C           0.9972    2.4835   39.3989 C.ar    1  UNL1        0.2216
     36 N           0.7944    1.4138   40.4307 N.ar    1  UNL1       -0.1048
     37 N           1.6164    0.2239   40.0323 N.ar    1  UNL1       -0.0226
     38 N           2.3272    0.5583   38.7544 N.ar    1  UNL1       -0.0428
@<TRIPOS>BOND
     1    22    23    1
     2    23    33    1
     3    33    34    1
     4    34    35   ar
     5    35    36   ar
     6    36    37   ar
     7    37    38   ar
     8    23    25    1
     9    25    26   ar
    10    26    27   ar
    11    27    28   ar
    12    28    29    1
    13    28    30   ar
    14    30    31   ar
    15    31    32    1
    16    23     1    1
    17     1     2    1
    18     1     3    1
    19     1     4    1
    20     4     5   ar
    21     5     6   ar
    22     6     7   ar
    23     7    10    1
    24    10    11   ar
    25    11    12   ar
    26    12    13   ar
    27    13    16    1
    28    16    17    1
    29    17    18    1
    30    18    19    1
    31    18    20    1
    32    18    21    1
    33    13    14   ar
    34    14    15   ar
    35     7     8   ar
    36     8     9   ar
    37    38    34   ar
    38    31    25   ar
    39     9     4   ar
    40    15    10   ar
    41    22    24    1
@<TRIPOS>MOLECULE
*****
 38 41 0 0 0
SMALL
GASTEIGER

@<TRIPOS>ATOM
      1 C           2.9590   -0.4647   20.3338 C.3     1  UNL1        0.3254
      2 F           2.1105   -1.6769   20.0872 F       1  UNL1       -0.1949
      3 F           3.9800    0.5242   20.8130 F       1  UNL1       -0.1949
      4 C           3.7761   -1.2384   21.3257 C.ar    1  UNL1        0.1218
      5 C           4.6798   -2.3398   20.8564 C.ar    1  UNL1        0.0202
      6 C           5.4969   -3.1135   21.8483 C.ar    1  UNL1        0.0029
      7 C           5.4102   -2.7858   23.3095 C.ar    1  UNL1        0.0192
      8 C           4.5065   -1.6844   23.7788 C.ar    1  UNL1        0.0986
      9 N           3.6895   -0.9107   22.7869 N.ar    1  UNL1       -0.2427
     10 C           6.2273   -3.5594   24.3014 C.ar    1  UNL1        0.0017
     11 C           6.9769   -4.7828   23.8638 C.ar    1  UNL1        0.0032
     12 C           7.7940   -5.5565   24.8557 C.ar    1  UNL1        0.0369
     13 C           7.8614   -5.1068   26.2851 C.ar    1  UNL1        0.1390
     14 C           7.1117   -3.8835   26.7227 C.ar    1  UNL1        0.0369
     15 C           6.2946   -3.1098   25.7308 C.ar    1  UNL1        0.0032
     16 O           8.6784   -5.8805   27.2770 O.3     1  UNL1       -0.4666
     17 C           8.0505   -6.9970   28.0575 C.3     1  UNL1        0.3081
     18 C           8.4674   -8.4157   27.8049 C.3     1  UNL1        0.4380
     19 F           8.8843   -9.8342   27.5523 F       1  UNL1       -0.1663
     20 F           7.5262   -8.4846   26.6388 F       1  UNL1       -0.1663
     21 F           9.4085   -8.3467   28.9708 F       1  UNL1       -0.1663
     22 O           1.3249    1.0826   18.3501 O.3     1  UNL1       -0.3755
     23 C           2.1420    0.3090   19.3419 C.3     1  UNL1        0.1932
     24 H           1.8600    1.8034   17.9826 H       1  UNL1        0.2110
     25 C           3.3870    0.6374   18.5725 C.ar    1  UNL1        0.0368
     26 C           3.9538    2.0254   18.6199 C.ar    1  UNL1        0.0028
     27 C           5.1988    2.3538   17.8504 C.ar    1  UNL1        0.0295
     28 C           5.8770    1.2942   17.0335 C.ar    1  UNL1        0.1424
     29 F           7.1220    1.6226   16.2641 F       1  UNL1       -0.2041
     30 C           5.3103   -0.0938   16.9861 C.ar    1  UNL1        0.0590
     31 C           4.0652   -0.4222   17.7556 C.ar    1  UNL1        0.1408
     32 F           3.4984   -1.8102   17.7082 F       1  UNL1       -0.2043
     33 C           0.8969   -0.0194   20.1114 C.3     1  UNL1        0.1679
     34 N           0.2446    1.0276   20.9648 N.ar    1  UNL1       -0.2078
     35 C           0.6229    1.3784   22.3733 C.ar    1  UNL1        0.2216
     36 N          -0.2885    2.4752   22.8385 N.ar    1  UNL1       -0.1048
     37 N          -1.2300    2.8022   21.7175 N.ar    1  UNL1       -0.0226
     38 N          -0.9006    1.9075   20.5595 N.ar    1  UNL1       -0.0428
@<TRIPOS>BOND
     1    22    23    1
     2    23    33    1
     3    33    34    1
     4    34    35   ar
     5    35    36   ar
     6    36    37   ar
     7    37    38   ar
     8    23    25    1
     9    25    26   ar
    10    26    27   ar
    11    27    28   ar
    12    28    29    1
    13    28    30   ar
    14    30    31   ar
    15    31    32    1
    16    23     1    1
    17     1     2    1
    18     1     3    1
    19     1     4    1
    20     4     5   ar
    21     5     6   ar
    22     6     7   ar
    23     7    10    1
    24    10    11   ar
    25    11    12   ar
    26    12    13   ar
    27    13    16    1
    28    16    17    1
    29    17    18    1
    30    18    19    1
    31    18    20    1
    32    18    21    1
    33    13    14   ar
    34    14    15   ar
    35     7     8   ar
    36     8     9   ar
    37    38    34   ar
    38    31    25   ar
    39     9     4   ar
    40    15    10   ar
    41    22    24    1
