@<TRIPOS>MOLECULE
*****
 39 44 0 0 0
SMALL
GASTEIGER

@<TRIPOS>ATOM
      1 O           6.4863   -5.5631   32.3937 O.2     1  UNL1       -0.2749
      2 C           6.5633   -4.2596   31.6557 C.2     1  UNL1        0.2252
      3 N           6.7249   -4.2504   30.1644 N.am    1  UNL1       -0.2794
      4 C           6.8095   -5.5449   29.4113 C.3     1  UNL1        0.0953
      5 C           6.9710   -5.5358   27.9200 C.3     1  UNL1        0.0442
      6 C           7.0480   -4.2321   27.1819 C.3     1  UNL1        0.0933
      7 C           6.9635   -2.9378   27.9351 C.3     1  UNL1        0.0442
      8 C           6.8019   -2.9469   29.4263 C.3     1  UNL1        0.0953
      9 N           7.2096   -4.2230   25.6906 N.ar    1  UNL1       -0.2817
     10 C           6.7731   -3.1279   24.7632 C.ar    1  UNL1        0.3317
     11 O           6.0983   -1.8497   25.1641 O.2     1  UNL1       -0.2463
     12 N           7.1298   -3.5355   23.3644 N.ar    1  UNL1       -0.2757
     13 C           7.7868   -4.8825   23.4274 C.ar    1  UNL1        0.0800
     14 C           8.3465   -5.7770   22.3613 C.ar    1  UNL1        0.0188
     15 C           8.9555   -7.0965   22.7330 C.ar    1  UNL1        0.0016
     16 C           9.0049   -7.5213   24.1707 C.ar    1  UNL1        0.0016
     17 C           8.4452   -6.6268   25.2368 C.ar    1  UNL1        0.0188
     18 C           7.8362   -5.3074   24.8651 C.ar    1  UNL1        0.0796
     19 C           6.8744   -2.7365   22.1209 C.3     1  UNL1        0.1381
     20 C           5.9441   -3.2634   21.0687 C.ar    1  UNL1        0.0111
     21 C           4.7025   -4.0042   21.4681 C.ar    1  UNL1       -0.0016
     22 C           3.7723   -4.5311   20.4160 C.ar    1  UNL1       -0.0002
     23 C           4.0837   -4.3171   18.9643 C.ar    1  UNL1        0.0008
     24 C           5.3254   -3.5763   18.5649 C.ar    1  UNL1        0.0111
     25 C           6.2556   -3.0494   19.6170 C.ar    1  UNL1        0.0555
     26 CL          7.4972   -2.3086   19.2176 Cl      1  UNL1       -0.0825
     27 C           6.4787   -2.9651   32.4088 C.3     1  UNL1        0.0795
     28 C           7.7287   -2.1991   32.7264 C.3     1  UNL1        0.0264
     29 C           7.6441   -0.9047   33.4796 C.3     1  UNL1        0.0729
     30 N           6.3096   -0.3762   33.9152 N.3     1  UNL1       -0.2689
     31 C           5.0595   -1.1423   33.5976 C.3     1  UNL1        0.0729
     32 C           5.1441   -2.4367   32.8444 C.3     1  UNL1        0.0264
     33 C           6.2250    0.9182   34.6683 C.3     1  UNL1        0.0992
     34 C           5.0003    1.2394   35.4726 C.ar    1  UNL1       -0.0031
     35 C           4.7976    0.6043   36.8163 C.ar    1  UNL1        0.0178
     36 C           3.5729    0.9254   37.6206 C.ar    1  UNL1        0.0986
     37 N           2.5509    1.8816   37.0812 N.ar    1  UNL1       -0.2423
     38 C           2.7535    2.5168   35.7375 C.ar    1  UNL1        0.0986
     39 C           3.9782    2.1956   34.9332 C.ar    1  UNL1        0.0178
@<TRIPOS>BOND
     1     1     2    2
     2     2    27    1
     3    27    28    1
     4    28    29    1
     5    29    30    1
     6    30    33    1
     7    33    34    1
     8    34    35   ar
     9    35    36   ar
    10    36    37   ar
    11    37    38   ar
    12    38    39   ar
    13    30    31    1
    14    31    32    1
    15     2     3   am
    16     3     4    1
    17     4     5    1
    18     5     6    1
    19     6     9    1
    20     9    10   ar
    21    10    11    2
    22    10    12   ar
    23    12    19    1
    24    19    20    1
    25    20    21   ar
    26    21    22   ar
    27    22    23   ar
    28    23    24   ar
    29    24    25   ar
    30    25    26    1
    31    12    13   ar
    32    13    14   ar
    33    14    15   ar
    34    15    16   ar
    35    16    17   ar
    36    17    18   ar
    37     6     7    1
    38     7     8    1
    39    32    27    1
    40     8     3    1
    41    39    34   ar
    42    18     9   ar
    43    25    20   ar
    44    18    13   ar
@<TRIPOS>MOLECULE
*****
 39 44 0 0 0
SMALL
GASTEIGER

@<TRIPOS>ATOM
      1 O           1.7237    0.1559   30.5860 O.2     1  UNL1       -0.2749
      2 C           3.1585   -0.2791   30.6311 C.2     1  UNL1        0.2252
      3 N           3.8197   -0.8124   29.3948 N.am    1  UNL1       -0.2794
      4 C           3.0461   -0.9107   28.1135 C.3     1  UNL1        0.0953
      5 C           3.7072   -1.4440   26.8771 C.3     1  UNL1        0.0442
      6 C           5.1422   -1.8790   26.9222 C.3     1  UNL1        0.0933
      7 C           5.9157   -1.7807   28.2035 C.3     1  UNL1        0.0442
      8 C           5.2545   -1.2474   29.4398 C.3     1  UNL1        0.0953
      9 N           5.8033   -2.4123   25.6859 N.ar    1  UNL1       -0.2817
     10 C           5.8963   -1.7108   24.3633 C.ar    1  UNL1        0.3317
     11 O           5.3445   -0.3529   24.0448 O.2     1  UNL1       -0.2463
     12 N           6.6381   -2.6058   23.4152 N.ar    1  UNL1       -0.2757
     13 C           7.0035   -3.8603   24.1517 C.ar    1  UNL1        0.0800
     14 C           7.7393   -5.0961   23.7259 C.ar    1  UNL1        0.0188
     15 C           7.9593   -6.2123   24.7034 C.ar    1  UNL1        0.0016
     16 C           7.4434   -6.0927   26.1068 C.ar    1  UNL1        0.0016
     17 C           6.7075   -4.8570   26.5327 C.ar    1  UNL1        0.0188
     18 C           6.4876   -3.7408   25.5552 C.ar    1  UNL1        0.0796
     19 C           6.9582   -2.2998   21.9820 C.3     1  UNL1        0.1381
     20 C           6.1047   -2.8653   20.8856 C.ar    1  UNL1        0.0111
     21 C           4.9280   -3.7323   21.2227 C.ar    1  UNL1       -0.0016
     22 C           4.0745   -4.2978   20.1265 C.ar    1  UNL1       -0.0002
     23 C           4.3977   -3.9961   18.6931 C.ar    1  UNL1        0.0008
     24 C           5.5744   -3.1291   18.3560 C.ar    1  UNL1        0.0111
     25 C           6.4279   -2.5636   19.4523 C.ar    1  UNL1        0.0555
     26 CL          7.6046   -1.6966   19.1152 Cl      1  UNL1       -0.0825
     27 C           3.9322   -0.1808   31.9124 C.3     1  UNL1        0.0795
     28 C           4.0832   -1.3866   32.7917 C.3     1  UNL1        0.0264
     29 C           4.8569   -1.2883   34.0730 C.3     1  UNL1        0.0729
     30 N           5.4795    0.0158   34.4750 N.3     1  UNL1       -0.2689
     31 C           5.3284    1.2217   33.5957 C.3     1  UNL1        0.0729
     32 C           4.5548    1.1234   32.3144 C.3     1  UNL1        0.0264
     33 C           6.2531    0.1141   35.7564 C.3     1  UNL1        0.0992
     34 C           5.6497    0.7998   36.9461 C.ar    1  UNL1       -0.0031
     35 C           6.4661    1.7719   37.7453 C.ar    1  UNL1        0.0178
     36 C           5.8628    2.4578   38.9351 C.ar    1  UNL1        0.0986
     37 N           4.4431    2.1715   39.3257 N.ar    1  UNL1       -0.2423
     38 C           3.6268    1.1994   38.5266 C.ar    1  UNL1        0.0986
     39 C           4.2301    0.5136   37.3368 C.ar    1  UNL1        0.0178
@<TRIPOS>BOND
     1     1     2    2
     2     2    27    1
     3    27    28    1
     4    28    29    1
     5    29    30    1
     6    30    33    1
     7    33    34    1
     8    34    35   ar
     9    35    36   ar
    10    36    37   ar
    11    37    38   ar
    12    38    39   ar
    13    30    31    1
    14    31    32    1
    15     2     3   am
    16     3     4    1
    17     4     5    1
    18     5     6    1
    19     6     9    1
    20     9    10   ar
    21    10    11    2
    22    10    12   ar
    23    12    19    1
    24    19    20    1
    25    20    21   ar
    26    21    22   ar
    27    22    23   ar
    28    23    24   ar
    29    24    25   ar
    30    25    26    1
    31    12    13   ar
    32    13    14   ar
    33    14    15   ar
    34    15    16   ar
    35    16    17   ar
    36    17    18   ar
    37     6     7    1
    38     7     8    1
    39    32    27    1
    40     8     3    1
    41    39    34   ar
    42    18     9   ar
    43    25    20   ar
    44    18    13   ar
@<TRIPOS>MOLECULE
*****
 39 44 0 0 0
SMALL
GASTEIGER

@<TRIPOS>ATOM
      1 O           9.3793   -7.4623   26.7002 O.2     1  UNL1       -0.2749
      2 C           8.5851   -6.1917   26.7675 C.2     1  UNL1        0.2252
      3 N           8.1455   -5.5142   25.5035 N.am    1  UNL1       -0.2794
      4 C           8.5000   -6.1074   24.1722 C.3     1  UNL1        0.0953
      5 C           8.0603   -5.4300   22.9082 C.3     1  UNL1        0.0442
      6 C           7.2661   -4.1592   22.9755 C.3     1  UNL1        0.0933
      7 C           6.9116   -3.5661   24.3068 C.3     1  UNL1        0.0442
      8 C           7.3513   -4.2435   25.5708 C.3     1  UNL1        0.0953
      9 N           6.8264   -3.4817   21.7115 N.ar    1  UNL1       -0.2817
     10 C           5.5175   -3.6897   21.0090 C.ar    1  UNL1        0.3317
     11 O           4.4184   -4.6116   21.4472 O.2     1  UNL1       -0.2463
     12 N           5.5006   -2.8138   19.7914 N.ar    1  UNL1       -0.2757
     13 C           6.7991   -2.0646   19.7413 C.ar    1  UNL1        0.0800
     14 C           7.3413   -1.0598   18.7685 C.ar    1  UNL1        0.0188
     15 C           8.7028   -0.4678   18.9824 C.ar    1  UNL1        0.0016
     16 C           9.5222   -0.8806   20.1691 C.ar    1  UNL1        0.0016
     17 C           8.9800   -1.8854   21.1419 C.ar    1  UNL1        0.0188
     18 C           7.6185   -2.4774   20.9280 C.ar    1  UNL1        0.0796
     19 C           4.3817   -2.7061   18.7982 C.3     1  UNL1        0.1381
     20 C           3.3519   -1.6250   18.9428 C.ar    1  UNL1        0.0111
     21 C           2.4227   -1.6270   20.1203 C.ar    1  UNL1       -0.0016
     22 C           1.3929   -0.5460   20.2649 C.ar    1  UNL1       -0.0002
     23 C           1.2925    0.5371   19.2321 C.ar    1  UNL1        0.0008
     24 C           2.2218    0.5391   18.0546 C.ar    1  UNL1        0.0111
     25 C           3.2515   -0.5419   17.9100 C.ar    1  UNL1        0.0555
     26 CL          4.1808   -0.5399   16.7325 Cl      1  UNL1       -0.0825
     27 C           8.2306   -5.5984   28.0988 C.3     1  UNL1        0.0795
     28 C           6.8912   -5.8801   28.7126 C.3     1  UNL1        0.0264
     29 C           6.5367   -5.2868   30.0439 C.3     1  UNL1        0.0729
     30 N           7.5215   -4.4120   30.7614 N.3     1  UNL1       -0.2689
     31 C           8.8609   -4.1304   30.1476 C.3     1  UNL1        0.0729
     32 C           9.2155   -4.7236   28.8163 C.3     1  UNL1        0.0264
     33 C           7.1670   -3.8188   32.0927 C.3     1  UNL1        0.0992
     34 C           6.1972   -2.6771   32.1708 C.ar    1  UNL1       -0.0031
     35 C           6.2950   -1.5420   31.1951 C.ar    1  UNL1        0.0178
     36 C           5.3252   -0.4003   31.2732 C.ar    1  UNL1        0.0986
     37 N           4.2577   -0.3937   32.3269 N.ar    1  UNL1       -0.2423
     38 C           4.1599   -1.5288   33.3026 C.ar    1  UNL1        0.0986
     39 C           5.1297   -2.6705   33.2246 C.ar    1  UNL1        0.0178
@<TRIPOS>BOND
     1     1     2    2
     2     2    27    1
     3    27    28    1
     4    28    29    1
     5    29    30    1
     6    30    33    1
     7    33    34    1
     8    34    35   ar
     9    35    36   ar
    10    36    37   ar
    11    37    38   ar
    12    38    39   ar
    13    30    31    1
    14    31    32    1
    15     2     3   am
    16     3     4    1
    17     4     5    1
    18     5     6    1
    19     6     9    1
    20     9    10   ar
    21    10    11    2
    22    10    12   ar
    23    12    19    1
    24    19    20    1
    25    20    21   ar
    26    21    22   ar
    27    22    23   ar
    28    23    24   ar
    29    24    25   ar
    30    25    26    1
    31    12    13   ar
    32    13    14   ar
    33    14    15   ar
    34    15    16   ar
    35    16    17   ar
    36    17    18   ar
    37     6     7    1
    38     7     8    1
    39    32    27    1
    40     8     3    1
    41    39    34   ar
    42    18     9   ar
    43    25    20   ar
    44    18    13   ar
@<TRIPOS>MOLECULE
*****
 39 44 0 0 0
SMALL
GASTEIGER

@<TRIPOS>ATOM
      1 O          -3.8573    4.9091   18.6121 O.2     1  UNL1       -0.2749
      2 C          -3.1312    4.2823   19.7652 C.2     1  UNL1        0.2252
      3 N          -1.7987    3.6290   19.5465 N.am    1  UNL1       -0.2794
      4 C          -1.1925    3.6025   18.1747 C.3     1  UNL1        0.0953
      5 C           0.1399    2.9492   17.9560 C.3     1  UNL1        0.0442
      6 C           0.8662    2.3224   19.1092 C.3     1  UNL1        0.0933
      7 C           0.2600    2.3489   20.4809 C.3     1  UNL1        0.0442
      8 C          -1.0725    3.0022   20.6996 C.3     1  UNL1        0.0953
      9 N           2.1986    1.6690   18.8905 N.ar    1  UNL1       -0.2817
     10 C           2.5319    0.2326   19.1651 C.ar    1  UNL1        0.3317
     11 O           1.5913   -0.8029   19.7066 O.2     1  UNL1       -0.2463
     12 N           3.9710    0.0133   18.8031 N.ar    1  UNL1       -0.2757
     13 C           4.5271    1.3143   18.3048 C.ar    1  UNL1        0.0800
     14 C           5.8893    1.6993   17.8089 C.ar    1  UNL1        0.0188
     15 C           6.1561    3.1076   17.3670 C.ar    1  UNL1        0.0016
     16 C           5.0608    4.1309   17.4210 C.ar    1  UNL1        0.0016
     17 C           3.6985    3.7459   17.9169 C.ar    1  UNL1        0.0188
     18 C           3.4317    2.3376   18.3588 C.ar    1  UNL1        0.0796
     19 C           4.7221   -1.2799   18.9190 C.3     1  UNL1        0.1381
     20 C           4.8306   -1.9677   20.2477 C.ar    1  UNL1        0.0111
     21 C           5.5420   -1.2955   21.3844 C.ar    1  UNL1       -0.0016
     22 C           5.6505   -1.9832   22.7130 C.ar    1  UNL1       -0.0002
     23 C           5.0477   -3.3432   22.9049 C.ar    1  UNL1        0.0008
     24 C           4.3363   -4.0155   21.7682 C.ar    1  UNL1        0.0111
     25 C           4.2278   -3.3278   20.4396 C.ar    1  UNL1        0.0555
     26 CL          3.5164   -4.0000   19.3029 Cl      1  UNL1       -0.0825
     27 C          -3.7373    4.3088   21.1370 C.3     1  UNL1        0.0795
     28 C          -4.6504    3.2022   21.5750 C.3     1  UNL1        0.0264
     29 C          -5.2565    3.2287   22.9468 C.3     1  UNL1        0.0729
     30 N          -4.9497    4.3618   23.8806 N.3     1  UNL1       -0.2689
     31 C          -4.0366    5.4684   23.4426 C.3     1  UNL1        0.0729
     32 C          -3.4304    5.4419   22.0708 C.3     1  UNL1        0.0264
     33 C          -5.5558    4.3883   25.2524 C.3     1  UNL1        0.0992
     34 C          -6.6397    5.3739   25.5746 C.ar    1  UNL1       -0.0031
     35 C          -7.7617    5.5984   24.6047 C.ar    1  UNL1        0.0178
     36 C          -8.8456    6.5840   24.9268 C.ar    1  UNL1        0.0986
     37 N          -8.8075    7.3451   26.2188 N.ar    1  UNL1       -0.2423
     38 C          -7.6854    7.1206   27.1887 C.ar    1  UNL1        0.0986
     39 C          -6.6015    6.1350   26.8666 C.ar    1  UNL1        0.0178
@<TRIPOS>BOND
     1     1     2    2
     2     2    27    1
     3    27    28    1
     4    28    29    1
     5    29    30    1
     6    30    33    1
     7    33    34    1
     8    34    35   ar
     9    35    36   ar
    10    36    37   ar
    11    37    38   ar
    12    38    39   ar
    13    30    31    1
    14    31    32    1
    15     2     3   am
    16     3     4    1
    17     4     5    1
    18     5     6    1
    19     6     9    1
    20     9    10   ar
    21    10    11    2
    22    10    12   ar
    23    12    19    1
    24    19    20    1
    25    20    21   ar
    26    21    22   ar
    27    22    23   ar
    28    23    24   ar
    29    24    25   ar
    30    25    26    1
    31    12    13   ar
    32    13    14   ar
    33    14    15   ar
    34    15    16   ar
    35    16    17   ar
    36    17    18   ar
    37     6     7    1
    38     7     8    1
    39    32    27    1
    40     8     3    1
    41    39    34   ar
    42    18     9   ar
    43    25    20   ar
    44    18    13   ar
@<TRIPOS>MOLECULE
*****
 39 44 0 0 0
SMALL
GASTEIGER

@<TRIPOS>ATOM
      1 O           5.4808   -2.9682   17.8407 O.2     1  UNL1       -0.2749
      2 C           5.2775   -2.2290   19.1299 C.2     1  UNL1        0.2252
      3 N           4.3166   -1.0788   19.1914 N.am    1  UNL1       -0.2794
      4 C           3.5591   -0.6679   17.9636 C.3     1  UNL1        0.0953
      5 C           2.5983    0.4823   18.0251 C.3     1  UNL1        0.0442
      6 C           2.3949    1.2216   19.3144 C.3     1  UNL1        0.0933
      7 C           3.1524    0.8107   20.5420 C.3     1  UNL1        0.0442
      8 C           4.1133   -0.3395   20.4806 C.3     1  UNL1        0.0953
      9 N           1.4340    2.3718   19.3759 N.ar    1  UNL1       -0.2817
     10 C           0.1314    2.3937   20.1193 C.ar    1  UNL1        0.3317
     11 O          -0.4391    1.2692   20.9317 O.2     1  UNL1       -0.2463
     12 N          -0.5006    3.7375   19.9075 N.ar    1  UNL1       -0.2757
     13 C           0.4115    4.5461   19.0333 C.ar    1  UNL1        0.0800
     14 C           0.3077    5.9419   18.4940 C.ar    1  UNL1        0.0188
     15 C           1.3996    6.4937   17.6261 C.ar    1  UNL1        0.0016
     16 C           2.5953    5.6497   17.2975 C.ar    1  UNL1        0.0016
     17 C           2.6990    4.2539   17.8368 C.ar    1  UNL1        0.0188
     18 C           1.6071    3.7021   18.7047 C.ar    1  UNL1        0.0796
     19 C          -1.8140    4.1928   20.4711 C.3     1  UNL1        0.1381
     20 C          -3.0803    3.9661   19.6994 C.ar    1  UNL1        0.0111
     21 C          -3.1017    4.1777   18.2145 C.ar    1  UNL1       -0.0016
     22 C          -4.3678    3.9511   17.4428 C.ar    1  UNL1       -0.0002
     23 C          -5.6125    3.5130   18.1560 C.ar    1  UNL1        0.0008
     24 C          -5.5911    3.3015   19.6409 C.ar    1  UNL1        0.0111
     25 C          -4.3250    3.5280   20.4126 C.ar    1  UNL1        0.0555
     26 CL         -4.3036    3.3165   21.8974 Cl      1  UNL1       -0.0825
     27 C           6.0350   -2.6399   20.3576 C.3     1  UNL1        0.0795
     28 C           7.4413   -2.1616   20.5663 C.3     1  UNL1        0.0264
     29 C           8.1988   -2.5726   21.7941 C.3     1  UNL1        0.0729
     30 N           7.5500   -3.4618   22.8131 N.3     1  UNL1       -0.2689
     31 C           6.1436   -3.9401   22.6043 C.3     1  UNL1        0.0729
     32 C           5.3861   -3.5292   21.3766 C.3     1  UNL1        0.0264
     33 C           8.3075   -3.8727   24.0408 C.3     1  UNL1        0.0992
     34 C           7.9296   -5.1277   24.7703 C.ar    1  UNL1       -0.0031
     35 C           8.3772   -6.4613   24.2497 C.ar    1  UNL1        0.0178
     36 C           7.9994   -7.7164   24.9792 C.ar    1  UNL1        0.0986
     37 N           7.1739   -7.6378   26.2291 N.ar    1  UNL1       -0.2423
     38 C           6.7263   -6.3041   26.7497 C.ar    1  UNL1        0.0986
     39 C           7.1042   -5.0490   26.0203 C.ar    1  UNL1        0.0178
@<TRIPOS>BOND
     1     1     2    2
     2     2    27    1
     3    27    28    1
     4    28    29    1
     5    29    30    1
     6    30    33    1
     7    33    34    1
     8    34    35   ar
     9    35    36   ar
    10    36    37   ar
    11    37    38   ar
    12    38    39   ar
    13    30    31    1
    14    31    32    1
    15     2     3   am
    16     3     4    1
    17     4     5    1
    18     5     6    1
    19     6     9    1
    20     9    10   ar
    21    10    11    2
    22    10    12   ar
    23    12    19    1
    24    19    20    1
    25    20    21   ar
    26    21    22   ar
    27    22    23   ar
    28    23    24   ar
    29    24    25   ar
    30    25    26    1
    31    12    13   ar
    32    13    14   ar
    33    14    15   ar
    34    15    16   ar
    35    16    17   ar
    36    17    18   ar
    37     6     7    1
    38     7     8    1
    39    32    27    1
    40     8     3    1
    41    39    34   ar
    42    18     9   ar
    43    25    20   ar
    44    18    13   ar
@<TRIPOS>MOLECULE
*****
 39 44 0 0 0
SMALL
GASTEIGER

@<TRIPOS>ATOM
      1 O           7.0537   -5.7792   31.0437 O.2     1  UNL1       -0.2749
      2 C           6.9097   -4.4371   30.3894 C.2     1  UNL1        0.2252
      3 N           6.2524   -3.3093   31.1282 N.am    1  UNL1       -0.2794
      4 C           5.7391   -3.5235   32.5213 C.3     1  UNL1        0.0953
      5 C           5.0817   -2.3956   33.2601 C.3     1  UNL1        0.0442
      6 C           4.9377   -1.0534   32.6058 C.3     1  UNL1        0.0933
      7 C           5.4510   -0.8393   31.2128 C.3     1  UNL1        0.0442
      8 C           6.1084   -1.9672   30.4740 C.3     1  UNL1        0.0953
      9 N           4.2804    0.0744   33.3446 N.ar    1  UNL1       -0.2817
     10 C           4.6317    0.5484   34.7237 C.ar    1  UNL1        0.3317
     11 O           5.7021   -0.0223   35.6062 O.2     1  UNL1       -0.2463
     12 N           3.7248    1.6932   35.0654 N.ar    1  UNL1       -0.2757
     13 C           2.8129    1.9268   33.8975 C.ar    1  UNL1        0.0800
     14 C           1.7143    2.9212   33.6651 C.ar    1  UNL1        0.0188
     15 C           0.9590    2.9152   32.3692 C.ar    1  UNL1        0.0016
     16 C           1.3024    1.9147   31.3056 C.ar    1  UNL1        0.0016
     17 C           2.4011    0.9202   31.5381 C.ar    1  UNL1        0.0188
     18 C           3.1563    0.9263   32.8340 C.ar    1  UNL1        0.0796
     19 C           3.7289    2.4684   36.3496 C.3     1  UNL1        0.1381
     20 C           2.7397    2.1385   37.4280 C.ar    1  UNL1        0.0111
     21 C           2.8382    0.8345   38.1627 C.ar    1  UNL1       -0.0016
     22 C           1.8491    0.5047   39.2411 C.ar    1  UNL1       -0.0002
     23 C           0.7615    1.4789   39.5846 C.ar    1  UNL1        0.0008
     24 C           0.6630    2.7829   38.8499 C.ar    1  UNL1        0.0111
     25 C           1.6521    3.1127   37.7716 C.ar    1  UNL1        0.0555
     26 CL          1.5536    4.4167   37.0368 Cl      1  UNL1       -0.0825
     27 C           7.4231   -4.2229   28.9964 C.3     1  UNL1        0.0795
     28 C           6.5441   -4.5236   27.8187 C.3     1  UNL1        0.0264
     29 C           7.0574   -4.3094   26.4256 C.3     1  UNL1        0.0729
     30 N           8.4497   -3.7944   26.2103 N.3     1  UNL1       -0.2689
     31 C           9.3287   -3.4937   27.3881 C.3     1  UNL1        0.0729
     32 C           8.8154   -3.7079   28.7811 C.3     1  UNL1        0.0264
     33 C           8.9630   -3.5802   24.8172 C.3     1  UNL1        0.0992
     34 C           8.0170   -3.1877   23.7214 C.ar    1  UNL1       -0.0031
     35 C           7.4687   -1.7926   23.6680 C.ar    1  UNL1        0.0178
     36 C           6.5226   -1.4000   22.5721 C.ar    1  UNL1        0.0986
     37 N           6.1250   -2.4025   21.5297 N.ar    1  UNL1       -0.2423
     38 C           6.6734   -3.7977   21.5831 C.ar    1  UNL1        0.0986
     39 C           7.6194   -4.1903   22.6789 C.ar    1  UNL1        0.0178
@<TRIPOS>BOND
     1     1     2    2
     2     2    27    1
     3    27    28    1
     4    28    29    1
     5    29    30    1
     6    30    33    1
     7    33    34    1
     8    34    35   ar
     9    35    36   ar
    10    36    37   ar
    11    37    38   ar
    12    38    39   ar
    13    30    31    1
    14    31    32    1
    15     2     3   am
    16     3     4    1
    17     4     5    1
    18     5     6    1
    19     6     9    1
    20     9    10   ar
    21    10    11    2
    22    10    12   ar
    23    12    19    1
    24    19    20    1
    25    20    21   ar
    26    21    22   ar
    27    22    23   ar
    28    23    24   ar
    29    24    25   ar
    30    25    26    1
    31    12    13   ar
    32    13    14   ar
    33    14    15   ar
    34    15    16   ar
    35    16    17   ar
    36    17    18   ar
    37     6     7    1
    38     7     8    1
    39    32    27    1
    40     8     3    1
    41    39    34   ar
    42    18     9   ar
    43    25    20   ar
    44    18    13   ar
@<TRIPOS>MOLECULE
*****
 39 44 0 0 0
SMALL
GASTEIGER

@<TRIPOS>ATOM
      1 O           5.9626   -2.8233   17.8022 O.2     1  UNL1       -0.2749
      2 C           5.6008   -2.1838   19.1099 C.2     1  UNL1        0.2252
      3 N           4.5407   -1.1237   19.1584 N.am    1  UNL1       -0.2794
      4 C           3.8425   -0.7031   17.8992 C.3     1  UNL1        0.0953
      5 C           2.7824    0.3570   17.9476 C.3     1  UNL1        0.0442
      6 C           2.4205    0.9966   19.2553 C.3     1  UNL1        0.0933
      7 C           3.1187    0.5760   20.5145 C.3     1  UNL1        0.0442
      8 C           4.1788   -0.4841   20.4660 C.3     1  UNL1        0.0953
      9 N           1.3604    2.0567   19.3038 N.ar    1  UNL1       -0.2817
     10 C          -0.0005    1.9153   19.9185 C.ar    1  UNL1        0.3317
     11 O          -0.5403    0.6889   20.5928 O.2     1  UNL1       -0.2463
     12 N          -0.7268    3.2156   19.7406 N.ar    1  UNL1       -0.2757
     13 C           0.1852    4.1607   19.0160 C.ar    1  UNL1        0.0800
     14 C           0.0076    5.5808   18.5671 C.ar    1  UNL1        0.0188
     15 C           1.1201    6.2848   17.8482 C.ar    1  UNL1        0.0016
     16 C           2.4101    5.5685   17.5782 C.ar    1  UNL1        0.0016
     17 C           2.5876    4.1484   18.0271 C.ar    1  UNL1        0.0188
     18 C           1.4752    3.4444   18.7460 C.ar    1  UNL1        0.0796
     19 C          -2.1205    3.5178   20.2058 C.3     1  UNL1        0.1381
     20 C          -2.4369    3.5248   21.6721 C.ar    1  UNL1        0.0111
     21 C          -1.3325    3.6679   22.6770 C.ar    1  UNL1       -0.0016
     22 C          -1.6488    3.6749   24.1432 C.ar    1  UNL1       -0.0002
     23 C          -3.0696    3.5386   24.6045 C.ar    1  UNL1        0.0008
     24 C          -4.1739    3.3954   23.5997 C.ar    1  UNL1        0.0111
     25 C          -3.8577    3.3885   22.1334 C.ar    1  UNL1        0.0555
     26 CL         -4.9621    3.2453   21.1286 Cl      1  UNL1       -0.0825
     27 C           6.2990   -2.6044   20.3691 C.3     1  UNL1        0.0795
     28 C           7.6779   -2.0952   20.6680 C.3     1  UNL1        0.0264
     29 C           8.3760   -2.5158   21.9272 C.3     1  UNL1        0.0729
     30 N           7.6953   -3.4456   22.8875 N.3     1  UNL1       -0.2689
     31 C           6.3164   -3.9548   22.5886 C.3     1  UNL1        0.0729
     32 C           5.6182   -3.5342   21.3294 C.3     1  UNL1        0.0264
     33 C           8.3935   -3.8661   24.1468 C.3     1  UNL1        0.0992
     34 C           7.9783   -5.1241   24.8503 C.ar    1  UNL1       -0.0031
     35 C           7.1176   -5.0485   26.0764 C.ar    1  UNL1        0.0178
     36 C           6.7023   -6.3065   26.7800 C.ar    1  UNL1        0.0986
     37 N           7.1478   -7.6401   26.2574 N.ar    1  UNL1       -0.2423
     38 C           8.0086   -7.7157   25.0313 C.ar    1  UNL1        0.0986
     39 C           8.4238   -6.4577   24.3277 C.ar    1  UNL1        0.0178
@<TRIPOS>BOND
     1     1     2    2
     2     2    27    1
     3    27    28    1
     4    28    29    1
     5    29    30    1
     6    30    33    1
     7    33    34    1
     8    34    35   ar
     9    35    36   ar
    10    36    37   ar
    11    37    38   ar
    12    38    39   ar
    13    30    31    1
    14    31    32    1
    15     2     3   am
    16     3     4    1
    17     4     5    1
    18     5     6    1
    19     6     9    1
    20     9    10   ar
    21    10    11    2
    22    10    12   ar
    23    12    19    1
    24    19    20    1
    25    20    21   ar
    26    21    22   ar
    27    22    23   ar
    28    23    24   ar
    29    24    25   ar
    30    25    26    1
    31    12    13   ar
    32    13    14   ar
    33    14    15   ar
    34    15    16   ar
    35    16    17   ar
    36    17    18   ar
    37     6     7    1
    38     7     8    1
    39    32    27    1
    40     8     3    1
    41    39    34   ar
    42    18     9   ar
    43    25    20   ar
    44    18    13   ar
@<TRIPOS>MOLECULE
*****
 39 44 0 0 0
SMALL
GASTEIGER

@<TRIPOS>ATOM
      1 O           9.1512   -2.7858   18.7414 O.2     1  UNL1       -0.2749
      2 C           8.0147   -2.5354   19.6878 C.2     1  UNL1        0.2252
      3 N           8.1424   -2.9211   21.1317 N.am    1  UNL1       -0.2794
      4 C           9.4065   -3.5572   21.6292 C.3     1  UNL1        0.0953
      5 C           9.5341   -3.9429   23.0731 C.3     1  UNL1        0.0442
      6 C           8.3977   -3.6924   24.0196 C.3     1  UNL1        0.0933
      7 C           7.1337   -3.0564   23.5221 C.3     1  UNL1        0.0442
      8 C           7.0060   -2.6707   22.0782 C.3     1  UNL1        0.0953
      9 N           8.5253   -4.0781   25.4636 N.ar    1  UNL1       -0.2817
     10 C           8.8624   -3.1545   26.5964 C.ar    1  UNL1        0.3317
     11 O           9.1311   -1.6830   26.4842 O.2     1  UNL1       -0.2463
     12 N           8.8837   -3.9608   27.8611 N.ar    1  UNL1       -0.2757
     13 C           8.5598   -5.3827   27.5099 C.ar    1  UNL1        0.0800
     14 C           8.4379   -6.6207   28.3480 C.ar    1  UNL1        0.0188
     15 C           8.0945   -7.9313   27.7043 C.ar    1  UNL1        0.0016
     16 C           7.8730   -8.0038   26.2225 C.ar    1  UNL1        0.0016
     17 C           7.9949   -6.7658   25.3844 C.ar    1  UNL1        0.0188
     18 C           8.3383   -5.4552   26.0282 C.ar    1  UNL1        0.0796
     19 C           9.1774   -3.4371   29.2357 C.3     1  UNL1        0.1381
     20 C           8.0642   -3.2644   30.2262 C.ar    1  UNL1        0.0111
     21 C           7.7009   -4.3892   31.1498 C.ar    1  UNL1       -0.0016
     22 C           6.5878   -4.2166   32.1403 C.ar    1  UNL1       -0.0002
     23 C           5.8379   -2.9192   32.2072 C.ar    1  UNL1        0.0008
     24 C           6.2011   -1.7945   31.2836 C.ar    1  UNL1        0.0111
     25 C           7.3143   -1.9671   30.2931 C.ar    1  UNL1        0.0555
     26 CL          7.6775   -0.8424   29.3695 Cl      1  UNL1       -0.0825
     27 C           6.7507   -1.8993   19.1903 C.3     1  UNL1        0.0795
     28 C           5.6655   -2.7495   18.5992 C.3     1  UNL1        0.0264
     29 C           4.4014   -2.1134   18.1017 C.3     1  UNL1        0.0729
     30 N           4.2225   -0.6271   18.1954 N.3     1  UNL1       -0.2689
     31 C           5.3078    0.2232   18.7866 C.3     1  UNL1        0.0729
     32 C           6.5718   -0.4129   19.2840 C.3     1  UNL1        0.0264
     33 C           2.9584    0.0090   17.6980 C.3     1  UNL1        0.0992
     34 C           1.8954    0.4258   18.6706 C.ar    1  UNL1       -0.0031
     35 C           1.2252    1.7596   18.5231 C.ar    1  UNL1        0.0178
     36 C           0.1621    2.1765   19.4957 C.ar    1  UNL1        0.0986
     37 N          -0.2308    1.2596   20.6159 N.ar    1  UNL1       -0.2423
     38 C           0.4394   -0.0743   20.7634 C.ar    1  UNL1        0.0986
     39 C           1.5024   -0.4911   19.7908 C.ar    1  UNL1        0.0178
@<TRIPOS>BOND
     1     1     2    2
     2     2    27    1
     3    27    28    1
     4    28    29    1
     5    29    30    1
     6    30    33    1
     7    33    34    1
     8    34    35   ar
     9    35    36   ar
    10    36    37   ar
    11    37    38   ar
    12    38    39   ar
    13    30    31    1
    14    31    32    1
    15     2     3   am
    16     3     4    1
    17     4     5    1
    18     5     6    1
    19     6     9    1
    20     9    10   ar
    21    10    11    2
    22    10    12   ar
    23    12    19    1
    24    19    20    1
    25    20    21   ar
    26    21    22   ar
    27    22    23   ar
    28    23    24   ar
    29    24    25   ar
    30    25    26    1
    31    12    13   ar
    32    13    14   ar
    33    14    15   ar
    34    15    16   ar
    35    16    17   ar
    36    17    18   ar
    37     6     7    1
    38     7     8    1
    39    32    27    1
    40     8     3    1
    41    39    34   ar
    42    18     9   ar
    43    25    20   ar
    44    18    13   ar
@<TRIPOS>MOLECULE
*****
 39 44 0 0 0
SMALL
GASTEIGER

@<TRIPOS>ATOM
      1 O           2.5063   -1.3829   27.8073 O.2     1  UNL1       -0.2749
      2 C           2.2487   -0.0668   28.4792 C.2     1  UNL1        0.2252
      3 N           2.7829    0.1889   29.8573 N.am    1  UNL1       -0.2794
      4 C           3.5748   -0.8714   30.5634 C.3     1  UNL1        0.0953
      5 C           4.1091   -0.6156   31.9415 C.3     1  UNL1        0.0442
      6 C           3.8515    0.7006   32.6135 C.3     1  UNL1        0.0933
      7 C           3.0596    1.7608   31.9073 C.3     1  UNL1        0.0442
      8 C           2.5254    1.5050   30.5292 C.3     1  UNL1        0.0953
      9 N           4.3858    0.9563   33.9916 N.ar    1  UNL1       -0.2817
     10 C           3.6523    1.6363   35.1094 C.ar    1  UNL1        0.3317
     11 O           2.2557    2.1798   35.0455 O.2     1  UNL1       -0.2463
     12 N           4.5606    1.6772   36.3024 N.ar    1  UNL1       -0.2757
     13 C           5.8554    1.0226   35.9219 C.ar    1  UNL1        0.0800
     14 C           7.1189    0.7746   36.6914 C.ar    1  UNL1        0.0188
     15 C           8.2743    0.0811   36.0326 C.ar    1  UNL1        0.0016
     16 C           8.1663   -0.3644   34.6044 C.ar    1  UNL1        0.0016
     17 C           6.9028   -0.1164   33.8349 C.ar    1  UNL1        0.0188
     18 C           5.7474    0.5770   34.4937 C.ar    1  UNL1        0.0796
     19 C           4.2318    2.2689   37.6410 C.3     1  UNL1        0.1381
     20 C           2.9125    1.9701   38.2895 C.ar    1  UNL1        0.0111
     21 C           2.6687    0.6259   38.9091 C.ar    1  UNL1       -0.0016
     22 C           1.3496    0.3271   39.5575 C.ar    1  UNL1       -0.0002
     23 C           0.2742    1.3725   39.5864 C.ar    1  UNL1        0.0008
     24 C           0.5180    2.7166   38.9669 C.ar    1  UNL1        0.0111
     25 C           1.8371    3.0154   38.3184 C.ar    1  UNL1        0.0555
     26 CL          2.0810    4.3596   37.6988 Cl      1  UNL1       -0.0825
     27 C           1.4568    0.9935   27.7730 C.3     1  UNL1        0.0795
     28 C          -0.0424    0.9544   27.8025 C.3     1  UNL1        0.0264
     29 C          -0.8343    2.0147   27.0963 C.3     1  UNL1        0.0729
     30 N          -0.1270    3.1141   26.3608 N.3     1  UNL1       -0.2689
     31 C           1.3723    3.1532   26.3313 C.3     1  UNL1        0.0729
     32 C           2.1642    2.0928   27.0375 C.3     1  UNL1        0.0264
     33 C          -0.9189    4.1744   25.6546 C.3     1  UNL1        0.0992
     34 C          -2.4159    4.0900   25.6133 C.ar    1  UNL1       -0.0031
     35 C          -3.2287    4.6197   26.7573 C.ar    1  UNL1        0.0178
     36 C          -4.7258    4.5353   26.7161 C.ar    1  UNL1        0.0986
     37 N          -5.4100    3.9211   25.5309 N.ar    1  UNL1       -0.2423
     38 C          -4.5971    3.3914   24.3869 C.ar    1  UNL1        0.0986
     39 C          -3.1001    3.4758   24.4281 C.ar    1  UNL1        0.0178
@<TRIPOS>BOND
     1     1     2    2
     2     2    27    1
     3    27    28    1
     4    28    29    1
     5    29    30    1
     6    30    33    1
     7    33    34    1
     8    34    35   ar
     9    35    36   ar
    10    36    37   ar
    11    37    38   ar
    12    38    39   ar
    13    30    31    1
    14    31    32    1
    15     2     3   am
    16     3     4    1
    17     4     5    1
    18     5     6    1
    19     6     9    1
    20     9    10   ar
    21    10    11    2
    22    10    12   ar
    23    12    19    1
    24    19    20    1
    25    20    21   ar
    26    21    22   ar
    27    22    23   ar
    28    23    24   ar
    29    24    25   ar
    30    25    26    1
    31    12    13   ar
    32    13    14   ar
    33    14    15   ar
    34    15    16   ar
    35    16    17   ar
    36    17    18   ar
    37     6     7    1
    38     7     8    1
    39    32    27    1
    40     8     3    1
    41    39    34   ar
    42    18     9   ar
    43    25    20   ar
    44    18    13   ar
