@<TRIPOS>MOLECULE
*****
 34 38 0 0 0
SMALL
GASTEIGER

@<TRIPOS>ATOM
      1 N           0.6418    1.5350   27.1971 N.3     1  UNL1       -0.1541
      2 C           1.0619    2.0204   25.8415 C.3     1  UNL1        0.0963
      3 C          -0.1311    2.6480   25.1837 C.3     1  UNL1        0.0264
      4 C          -1.2886    2.5505   26.1327 C.3     1  UNL1        0.0264
      5 C          -0.8109    1.8625   27.3772 C.3     1  UNL1        0.0963
      6 C          -1.4705    3.1982   24.7921 C.3     1  UNL1        0.0562
      7 C          -2.9218    3.5680   24.8763 C.ar    1  UNL1        0.0600
      8 C          -3.5054    4.0228   26.1811 C.ar    1  UNL1        0.0148
      9 C          -4.9566    4.3926   26.2653 C.ar    1  UNL1        0.0028
     10 C          -5.8243    4.3076   25.0446 C.ar    1  UNL1        0.0207
     11 C          -5.2406    3.8529   23.7399 C.ar    1  UNL1        0.0984
     12 N          -3.7895    3.4831   23.6557 N.ar    1  UNL1       -0.2481
     13 S           1.5201    0.8433   28.1972 S.O2    1  UNL1        0.0814
     14 O           0.4006   -0.0983   28.5292 O.2     1  UNL1       -0.1513
     15 O           2.6396    1.7849   27.8653 O.2     1  UNL1       -0.1513
     16 C           5.6726   -1.5117   30.4536 C.3     1  UNL1        0.1321
     17 N           4.3071   -0.9308   30.2345 N.ar    1  UNL1       -0.3047
     18 C           3.1929   -0.8944   31.2381 C.ar    1  UNL1        0.1800
     19 N           2.0134   -0.2254   30.5971 N.ar    1  UNL1       -0.2042
     20 C           2.3984    0.1517   29.1974 C.ar    1  UNL1        0.2217
     21 C           3.8160   -0.2843   28.9732 C.ar    1  UNL1        0.1172
     22 C          -1.1484    3.7175   23.4222 C.3     1  UNL1        0.0952
     23 N          -0.1708    2.9839   22.5527 N.am    1  UNL1       -0.3005
     24 C          -0.6217    2.3944   21.2492 C.2     1  UNL1        0.2467
     25 O          -2.0503    2.5387   20.8152 O.2     1  UNL1       -0.2701
     26 H           0.7668    2.8892   22.8376 H       1  UNL1        0.1498
     27 C           0.3558    1.6608   20.3797 C.ar    1  UNL1        0.0640
     28 C           0.5660    0.1872   20.5654 C.ar    1  UNL1        0.0062
     29 C           1.5436   -0.5464   19.6959 C.ar    1  UNL1        0.0116
     30 C           2.3111    0.1934   18.6406 C.ar    1  UNL1        0.0585
     31 CL          3.2886   -0.5402   17.7711 Cl      1  UNL1       -0.0822
     32 C           2.1009    1.6670   18.4549 C.ar    1  UNL1        0.0229
     33 C           1.1233    2.4007   19.3244 C.ar    1  UNL1        0.0629
     34 CL          0.9131    3.8742   19.1386 Cl      1  UNL1       -0.0821
@<TRIPOS>BOND
     1    16    17    1
     2    17    18   ar
     3    18    19   ar
     4    19    20   ar
     5    20    13    1
     6    13    14    2
     7    13    15    2
     8    13     1    1
     9     1     2    1
    10     3     2    1
    11     3     4    1
    12     4     5    1
    13     4     6    1
    14     6    22    1
    15    22    23    1
    16    23    24   am
    17    24    25    2
    18    24    27    1
    19    27    28   ar
    20    28    29   ar
    21    29    30   ar
    22    30    31    1
    23    30    32   ar
    24    32    33   ar
    25    33    34    1
    26     6     7    1
    27     7     8   ar
    28     8     9   ar
    29     9    10   ar
    30    10    11   ar
    31    11    12   ar
    32    20    21   ar
    33    21    17   ar
    34     5     1    1
    35    33    27   ar
    36    12     7   ar
    37     6     3    1
    38    23    26    1
@<TRIPOS>MOLECULE
*****
 34 38 0 0 0
SMALL
GASTEIGER

@<TRIPOS>ATOM
      1 N           2.2370    0.4452   30.4700 N.3     1  UNL1       -0.1541
      2 C           2.8283   -0.9128   30.7074 C.3     1  UNL1        0.0963
      3 C           3.4707   -0.9080   32.0629 C.3     1  UNL1        0.0264
      4 C           3.2764    0.4528   32.6632 C.3     1  UNL1        0.0264
      5 C           2.5139    1.2892   31.6787 C.3     1  UNL1        0.0963
      6 C           4.0131   -0.6062   33.4284 C.3     1  UNL1        0.0562
      7 C           4.3390    0.1552   34.6790 C.ar    1  UNL1        0.0600
      8 C           5.2439   -0.4497   35.7112 C.ar    1  UNL1        0.0148
      9 C           5.5698    0.3117   36.9618 C.ar    1  UNL1        0.0028
     10 C           4.9907    1.6782   37.1802 C.ar    1  UNL1        0.0207
     11 C           4.0859    2.2831   36.1481 C.ar    1  UNL1        0.0984
     12 N           3.7601    1.5216   34.8975 N.ar    1  UNL1       -0.2481
     13 S           1.4985    0.8824   29.2398 S.O2    1  UNL1        0.0814
     14 O           0.4526   -0.1618   29.4966 O.2     1  UNL1       -0.1513
     15 O           2.5443    1.9266   28.9831 O.2     1  UNL1       -0.1513
     16 C           0.3025    1.9142   24.2013 C.3     1  UNL1        0.1321
     17 N           0.2102    1.7939   25.6937 N.ar    1  UNL1       -0.3047
     18 C          -0.9633    2.1910   26.5394 C.ar    1  UNL1        0.1800
     19 N          -0.6235    1.8979   27.9706 N.ar    1  UNL1       -0.2042
     20 C           0.7599    1.3197   28.0096 C.ar    1  UNL1        0.2217
     21 C           1.2752    1.2553   26.6024 C.ar    1  UNL1        0.1172
     22 C           4.6367   -1.9298   33.7593 C.3     1  UNL1        0.0952
     23 N           4.9879   -2.8889   32.6609 N.am    1  UNL1       -0.3005
     24 C           6.3945   -2.9550   32.1441 C.2     1  UNL1        0.2467
     25 O           7.4499   -2.0618   32.7258 O.2     1  UNL1       -0.2701
     26 H           4.2952   -3.4752   32.2791 H       1  UNL1        0.1498
     27 C           6.7457   -3.9141   31.0456 C.ar    1  UNL1        0.0640
     28 C           7.2663   -5.2804   31.3808 C.ar    1  UNL1        0.0062
     29 C           7.6175   -6.2395   30.2824 C.ar    1  UNL1        0.0116
     30 C           7.4481   -5.8325   28.8486 C.ar    1  UNL1        0.0585
     31 CL          7.7993   -6.7917   27.7502 Cl      1  UNL1       -0.0822
     32 C           6.9275   -4.4663   28.5134 C.ar    1  UNL1        0.0229
     33 C           6.5763   -3.5071   29.6118 C.ar    1  UNL1        0.0629
     34 CL          6.0557   -2.1409   29.2766 Cl      1  UNL1       -0.0821
@<TRIPOS>BOND
     1    16    17    1
     2    17    18   ar
     3    18    19   ar
     4    19    20   ar
     5    20    13    1
     6    13    14    2
     7    13    15    2
     8    13     1    1
     9     1     2    1
    10     3     2    1
    11     3     4    1
    12     4     5    1
    13     4     6    1
    14     6    22    1
    15    22    23    1
    16    23    24   am
    17    24    25    2
    18    24    27    1
    19    27    28   ar
    20    28    29   ar
    21    29    30   ar
    22    30    31    1
    23    30    32   ar
    24    32    33   ar
    25    33    34    1
    26     6     7    1
    27     7     8   ar
    28     8     9   ar
    29     9    10   ar
    30    10    11   ar
    31    11    12   ar
    32    20    21   ar
    33    21    17   ar
    34     5     1    1
    35    33    27   ar
    36    12     7   ar
    37     6     3    1
    38    23    26    1
@<TRIPOS>MOLECULE
*****
 34 38 0 0 0
SMALL
GASTEIGER

@<TRIPOS>ATOM
      1 N           1.1269    1.3945   28.5653 N.3     1  UNL1       -0.1541
      2 C           1.6876    1.5175   27.1794 C.3     1  UNL1        0.0963
      3 C           0.6149    2.0784   26.2936 C.3     1  UNL1        0.0264
      4 C          -0.6087    2.3022   27.1320 C.3     1  UNL1        0.0264
      5 C          -0.2922    1.8795   28.5360 C.3     1  UNL1        0.0963
      6 C          -0.6293    2.6381   25.6702 C.3     1  UNL1        0.0562
      7 C          -2.0361    3.1419   25.5387 C.ar    1  UNL1        0.0600
      8 C          -2.8048    3.5478   26.7611 C.ar    1  UNL1        0.0148
      9 C          -4.2115    4.0516   26.6296 C.ar    1  UNL1        0.0028
     10 C          -4.8495    4.1495   25.2754 C.ar    1  UNL1        0.0207
     11 C          -4.0808    3.7437   24.0531 C.ar    1  UNL1        0.0984
     12 N          -2.6741    3.2399   24.1847 N.ar    1  UNL1       -0.2481
     13 S           1.8572    0.8774   29.7691 S.O2    1  UNL1        0.0814
     14 O           0.8410   -0.2161   29.9159 O.2     1  UNL1       -0.1513
     15 O           2.8735    1.9709   29.6224 O.2     1  UNL1       -0.1513
     16 C           4.6028   -2.2533   33.0159 C.3     1  UNL1        0.1321
     17 N           3.8495   -1.0788   32.4654 N.ar    1  UNL1       -0.3047
     18 C           3.5731    0.2076   33.1856 C.ar    1  UNL1        0.1800
     19 N           2.7931    1.0969   32.2633 N.ar    1  UNL1       -0.2042
     20 C           2.5875    0.3603   30.9730 C.ar    1  UNL1        0.2217
     21 C           3.2404   -0.9844   31.0978 C.ar    1  UNL1        0.1172
     22 C          -0.1615    2.7992   24.2542 C.3     1  UNL1        0.0952
     23 N           0.3162    1.6053   23.4818 N.am    1  UNL1       -0.3005
     24 C           1.5729    1.6926   22.6675 C.2     1  UNL1        0.2467
     25 O           2.3518    2.9738   22.6256 O.2     1  UNL1       -0.2701
     26 H          -0.1950    0.7645   23.5094 H       1  UNL1        0.1498
     27 C           2.0506    0.4988   21.8951 C.ar    1  UNL1        0.0640
     28 C           3.1582   -0.3532   22.4404 C.ar    1  UNL1        0.0062
     29 C           3.6359   -1.5470   21.6681 C.ar    1  UNL1        0.0116
     30 C           3.0060   -1.8889   20.3503 C.ar    1  UNL1        0.0585
     31 CL          3.4837   -3.0827   19.5780 Cl      1  UNL1       -0.0822
     32 C           1.8984   -1.0369   19.8050 C.ar    1  UNL1        0.0229
     33 C           1.4207    0.1569   20.5774 C.ar    1  UNL1        0.0629
     34 CL          0.3131    1.0089   20.0321 Cl      1  UNL1       -0.0821
@<TRIPOS>BOND
     1    16    17    1
     2    17    18   ar
     3    18    19   ar
     4    19    20   ar
     5    20    13    1
     6    13    14    2
     7    13    15    2
     8    13     1    1
     9     1     2    1
    10     3     2    1
    11     3     4    1
    12     4     5    1
    13     4     6    1
    14     6    22    1
    15    22    23    1
    16    23    24   am
    17    24    25    2
    18    24    27    1
    19    27    28   ar
    20    28    29   ar
    21    29    30   ar
    22    30    31    1
    23    30    32   ar
    24    32    33   ar
    25    33    34    1
    26     6     7    1
    27     7     8   ar
    28     8     9   ar
    29     9    10   ar
    30    10    11   ar
    31    11    12   ar
    32    20    21   ar
    33    21    17   ar
    34     5     1    1
    35    33    27   ar
    36    12     7   ar
    37     6     3    1
    38    23    26    1
@<TRIPOS>MOLECULE
*****
 34 38 0 0 0
SMALL
GASTEIGER

@<TRIPOS>ATOM
      1 N           5.3522   -2.0125   26.6603 N.3     1  UNL1       -0.1541
      2 C           5.1604   -1.8445   25.1821 C.3     1  UNL1        0.0963
      3 C           5.8985   -2.9519   24.4902 C.3     1  UNL1        0.0264
      4 C           6.5465   -3.8043   25.5407 C.3     1  UNL1        0.0264
      5 C           6.2089   -3.2237   26.8819 C.3     1  UNL1        0.0963
      6 C           6.7123   -4.1466   24.0897 C.3     1  UNL1        0.0562
      7 C           7.5723   -5.3700   24.2073 C.ar    1  UNL1        0.0600
      8 C           7.7715   -6.0210   25.5439 C.ar    1  UNL1        0.0148
      9 C           8.6314   -7.2444   25.6616 C.ar    1  UNL1        0.0028
     10 C           9.2922   -7.8167   24.4425 C.ar    1  UNL1        0.0207
     11 C           9.0930   -7.1656   23.1060 C.ar    1  UNL1        0.0984
     12 N           8.2331   -5.9423   22.9884 N.ar    1  UNL1       -0.2481
     13 S           4.7866   -1.1251   27.7293 S.O2    1  UNL1        0.0814
     14 O           6.1568   -0.5783   28.0003 O.2     1  UNL1       -0.1513
     15 O           3.4164   -1.6719   27.4582 O.2     1  UNL1       -0.1513
     16 C           3.0623    0.6420   32.3967 C.3     1  UNL1        0.1321
     17 N           3.4285    0.5745   30.9436 N.ar    1  UNL1       -0.3047
     18 C           3.2730    1.6810   29.9428 C.ar    1  UNL1        0.1800
     19 N           3.7628    1.1789   28.6170 N.ar    1  UNL1       -0.2042
     20 C           4.2210   -0.2377   28.7982 C.ar    1  UNL1        0.2217
     21 C           4.0144   -0.6113   30.2362 C.ar    1  UNL1        0.1172
     22 C           6.5795   -4.0640   22.5978 C.3     1  UNL1        0.0952
     23 N           5.7752   -2.9609   21.9764 N.am    1  UNL1       -0.3005
     24 C           4.6932   -3.2858   20.9896 C.2     1  UNL1        0.2467
     25 O           4.4157   -4.7139   20.6242 O.2     1  UNL1       -0.2701
     26 H           5.9574   -2.0236   22.2162 H       1  UNL1        0.1498
     27 C           3.8889   -2.1827   20.3681 C.ar    1  UNL1        0.0640
     28 C           2.8864   -1.4299   21.1917 C.ar    1  UNL1        0.0062
     29 C           2.0821   -0.3268   20.5703 C.ar    1  UNL1        0.0116
     30 C           2.2802    0.0235   19.1252 C.ar    1  UNL1        0.0585
     31 CL          1.4759    1.1266   18.5038 Cl      1  UNL1       -0.0822
     32 C           3.2827   -0.7294   18.3017 C.ar    1  UNL1        0.0229
     33 C           4.0871   -1.8324   18.9231 C.ar    1  UNL1        0.0629
     34 CL          5.0896   -2.5853   18.0996 Cl      1  UNL1       -0.0821
@<TRIPOS>BOND
     1    16    17    1
     2    17    18   ar
     3    18    19   ar
     4    19    20   ar
     5    20    13    1
     6    13    14    2
     7    13    15    2
     8    13     1    1
     9     1     2    1
    10     3     2    1
    11     3     4    1
    12     4     5    1
    13     4     6    1
    14     6    22    1
    15    22    23    1
    16    23    24   am
    17    24    25    2
    18    24    27    1
    19    27    28   ar
    20    28    29   ar
    21    29    30   ar
    22    30    31    1
    23    30    32   ar
    24    32    33   ar
    25    33    34    1
    26     6     7    1
    27     7     8   ar
    28     8     9   ar
    29     9    10   ar
    30    10    11   ar
    31    11    12   ar
    32    20    21   ar
    33    21    17   ar
    34     5     1    1
    35    33    27   ar
    36    12     7   ar
    37     6     3    1
    38    23    26    1
@<TRIPOS>MOLECULE
*****
 34 38 0 0 0
SMALL
GASTEIGER

@<TRIPOS>ATOM
      1 N          -0.9436    3.0118   22.7663 N.3     1  UNL1       -0.1541
      2 C           0.3099    2.2238   22.5259 C.3     1  UNL1        0.0963
      3 C           0.8161    1.7418   23.8531 C.3     1  UNL1        0.0264
      4 C          -0.1246    2.2318   24.9138 C.3     1  UNL1        0.0264
      5 C          -1.2122    3.0167   24.2421 C.3     1  UNL1        0.0963
      6 C           1.0714    1.4099   25.2934 C.3     1  UNL1        0.0562
      7 C           0.8893    1.3572   26.7814 C.ar    1  UNL1        0.0600
      8 C          -0.4356    0.9594   27.3613 C.ar    1  UNL1        0.0148
      9 C          -0.6176    0.9066   28.8493 C.ar    1  UNL1        0.0028
     10 C           0.5254    1.2517   29.7574 C.ar    1  UNL1        0.0207
     11 C           1.8503    1.6495   29.1775 C.ar    1  UNL1        0.0984
     12 N           2.0323    1.7022   27.6896 N.ar    1  UNL1       -0.2481
     13 S          -1.7815    3.6779   21.7155 S.O2    1  UNL1        0.0814
     14 O          -1.9222    4.8859   22.5935 O.2     1  UNL1       -0.1513
     15 O          -1.6408    2.4698   20.8376 O.2     1  UNL1       -0.1513
     16 C          -4.9522    4.4491   17.5642 C.3     1  UNL1        0.1321
     17 N          -4.0768    4.6984   18.7566 N.ar    1  UNL1       -0.3047
     18 C          -3.7408    6.0394   19.3387 C.ar    1  UNL1        0.1800
     19 N          -2.8402    5.8203   20.5179 N.ar    1  UNL1       -0.2042
     20 C          -2.6194    4.3440   20.6647 C.ar    1  UNL1        0.2217
     21 C          -3.3837    3.6506   19.5761 C.ar    1  UNL1        0.1172
     22 C           2.3306    0.6064   25.1564 C.3     1  UNL1        0.0952
     23 N           2.4353   -0.4486   24.0953 N.am    1  UNL1       -0.3005
     24 C           3.6117   -0.4624   23.1648 C.2     1  UNL1        0.2467
     25 O           4.6835    0.5789   23.2956 O.2     1  UNL1       -0.2701
     26 H           1.7318   -1.1320   24.0095 H       1  UNL1        0.1498
     27 C           3.7164   -1.5174   22.1037 C.ar    1  UNL1        0.0640
     28 C           3.1134   -1.2825   20.7504 C.ar    1  UNL1        0.0062
     29 C           3.2181   -2.3375   19.6893 C.ar    1  UNL1        0.0116
     30 C           3.9258   -3.6274   19.9814 C.ar    1  UNL1        0.0585
     31 CL          4.0305   -4.6824   18.9202 Cl      1  UNL1       -0.0822
     32 C           4.5288   -3.8623   21.3346 C.ar    1  UNL1        0.0229
     33 C           4.4241   -2.8073   22.3958 C.ar    1  UNL1        0.0629
     34 CL          5.0271   -3.0422   23.7490 Cl      1  UNL1       -0.0821
@<TRIPOS>BOND
     1    16    17    1
     2    17    18   ar
     3    18    19   ar
     4    19    20   ar
     5    20    13    1
     6    13    14    2
     7    13    15    2
     8    13     1    1
     9     1     2    1
    10     3     2    1
    11     3     4    1
    12     4     5    1
    13     4     6    1
    14     6    22    1
    15    22    23    1
    16    23    24   am
    17    24    25    2
    18    24    27    1
    19    27    28   ar
    20    28    29   ar
    21    29    30   ar
    22    30    31    1
    23    30    32   ar
    24    32    33   ar
    25    33    34    1
    26     6     7    1
    27     7     8   ar
    28     8     9   ar
    29     9    10   ar
    30    10    11   ar
    31    11    12   ar
    32    20    21   ar
    33    21    17   ar
    34     5     1    1
    35    33    27   ar
    36    12     7   ar
    37     6     3    1
    38    23    26    1
@<TRIPOS>MOLECULE
*****
 34 38 0 0 0
SMALL
GASTEIGER

@<TRIPOS>ATOM
      1 N           1.8049    0.6640   24.6012 N.3     1  UNL1       -0.1541
      2 C           0.8097    1.4561   23.8061 C.3     1  UNL1        0.0963
      3 C           1.0504    1.1768   22.3521 C.3     1  UNL1        0.0264
      4 C           2.1944    0.2122   22.2486 C.3     1  UNL1        0.0264
      5 C           2.6607   -0.1048   23.6386 C.3     1  UNL1        0.0963
      6 C           1.5197    0.7117   21.0055 C.3     1  UNL1        0.0562
      7 C           2.3198   -0.0146   19.9651 C.ar    1  UNL1        0.0600
      8 C           2.7934   -1.4139   20.2248 C.ar    1  UNL1        0.0148
      9 C           3.5935   -2.1402   19.1844 C.ar    1  UNL1        0.0028
     10 C           3.9200   -1.4669   17.8843 C.ar    1  UNL1        0.0207
     11 C           3.4463   -0.0676   17.6246 C.ar    1  UNL1        0.0984
     12 N           2.6463    0.6586   18.6650 N.ar    1  UNL1       -0.2481
     13 S           1.9236    0.6441   26.0963 S.O2    1  UNL1        0.0814
     14 O           0.5921    1.3254   26.2110 O.2     1  UNL1       -0.1513
     15 O           3.2551   -0.0371   25.9816 O.2     1  UNL1       -0.1513
     16 C           3.0289   -0.8905   31.0263 C.3     1  UNL1        0.1321
     17 N           2.5503   -0.0811   29.8575 N.ar    1  UNL1       -0.3047
     18 C           1.8994    1.2685   29.9271 C.ar    1  UNL1        0.1800
     19 N           1.5854    1.7044   28.5266 N.ar    1  UNL1       -0.2042
     20 C           2.0422    0.6243   27.5915 C.ar    1  UNL1        0.2217
     21 C           2.6386   -0.4793   28.4140 C.ar    1  UNL1        0.1172
     22 C           0.5670    1.4634   20.1237 C.3     1  UNL1        0.0952
     23 N          -0.8400    1.7122   20.5801 N.am    1  UNL1       -0.3005
     24 C          -1.3755    3.1124   20.6311 C.2     1  UNL1        0.2467
     25 O          -0.5038    4.2639   20.2256 O.2     1  UNL1       -0.2701
     26 H          -1.4121    0.9565   20.8462 H       1  UNL1        0.1498
     27 C          -2.7825    3.3612   21.0874 C.ar    1  UNL1        0.0640
     28 C          -3.9090    3.3287   20.0974 C.ar    1  UNL1        0.0062
     29 C          -5.3160    3.5775   20.5538 C.ar    1  UNL1        0.0116
     30 C          -5.5967    3.8589   22.0002 C.ar    1  UNL1        0.0585
     31 CL         -7.0037    4.1077   22.4566 Cl      1  UNL1       -0.0822
     32 C          -4.4702    3.8914   22.9902 C.ar    1  UNL1        0.0229
     33 C          -3.0632    3.6426   22.5339 C.ar    1  UNL1        0.0629
     34 CL         -1.9367    3.6752   23.5239 Cl      1  UNL1       -0.0821
@<TRIPOS>BOND
     1    16    17    1
     2    17    18   ar
     3    18    19   ar
     4    19    20   ar
     5    20    13    1
     6    13    14    2
     7    13    15    2
     8    13     1    1
     9     1     2    1
    10     3     2    1
    11     3     4    1
    12     4     5    1
    13     4     6    1
    14     6    22    1
    15    22    23    1
    16    23    24   am
    17    24    25    2
    18    24    27    1
    19    27    28   ar
    20    28    29   ar
    21    29    30   ar
    22    30    31    1
    23    30    32   ar
    24    32    33   ar
    25    33    34    1
    26     6     7    1
    27     7     8   ar
    28     8     9   ar
    29     9    10   ar
    30    10    11   ar
    31    11    12   ar
    32    20    21   ar
    33    21    17   ar
    34     5     1    1
    35    33    27   ar
    36    12     7   ar
    37     6     3    1
    38    23    26    1
@<TRIPOS>MOLECULE
*****
 34 38 0 0 0
SMALL
GASTEIGER

@<TRIPOS>ATOM
      1 N           5.7559   -3.2458   23.2582 N.3     1  UNL1       -0.1541
      2 C           5.3530   -2.1248   24.1699 C.3     1  UNL1        0.0963
      3 C           4.4534   -1.2029   23.4013 C.3     1  UNL1        0.0264
      4 C           4.3004   -1.7539   22.0147 C.3     1  UNL1        0.0264
      5 C           5.1054   -3.0166   21.9262 C.3     1  UNL1        0.0963
      6 C           3.6009   -0.4838   22.3984 C.3     1  UNL1        0.0562
      7 C           2.9076   -0.1677   21.1063 C.ar    1  UNL1        0.0600
      8 C           3.7024   -0.0384   19.8408 C.ar    1  UNL1        0.0148
      9 C           3.0092    0.2777   18.5486 C.ar    1  UNL1        0.0028
     10 C           1.5210    0.4644   18.5221 C.ar    1  UNL1        0.0207
     11 C           0.7263    0.3351   19.7876 C.ar    1  UNL1        0.0984
     12 N           1.4195    0.0190   21.0796 N.ar    1  UNL1       -0.2481
     13 S           6.6520   -4.3943   23.6158 S.O2    1  UNL1        0.0814
     14 O           6.5201   -4.0450   25.0686 O.2     1  UNL1       -0.1513
     15 O           6.7839   -4.7436   22.1630 O.2     1  UNL1       -0.1513
     16 C           9.2879   -8.0326   26.3899 C.3     1  UNL1        0.1321
     17 N           8.7597   -7.2152   25.2484 N.ar    1  UNL1       -0.3047
     18 C           9.0945   -7.4053   23.7987 C.ar    1  UNL1        0.1800
     19 N           8.3457   -6.3717   23.0107 N.ar    1  UNL1       -0.2042
     20 C           7.5481   -5.5428   23.9733 C.ar    1  UNL1        0.2217
     21 C           7.8040   -6.0641   25.3564 C.ar    1  UNL1        0.1172
     22 C           3.1421    0.6767   23.2308 C.3     1  UNL1        0.0952
     23 N           2.1040    0.4729   24.2942 N.am    1  UNL1       -0.3005
     24 C           2.2188    1.1968   25.6029 C.2     1  UNL1        0.2467
     25 O           3.3717    2.1246   25.8482 O.2     1  UNL1       -0.2701
     26 H           1.3473   -0.1360   24.1332 H       1  UNL1        0.1498
     27 C           1.1807    0.9930   26.6664 C.ar    1  UNL1        0.0640
     28 C          -0.1375    1.7028   26.5736 C.ar    1  UNL1        0.0062
     29 C          -1.1755    1.4990   27.6370 C.ar    1  UNL1        0.0116
     30 C          -0.8954    0.5854   28.7933 C.ar    1  UNL1        0.0585
     31 CL         -1.9334    0.3817   29.8567 Cl      1  UNL1       -0.0822
     32 C           0.4228   -0.1243   28.8861 C.ar    1  UNL1        0.0229
     33 C           1.4609    0.0794   27.8226 C.ar    1  UNL1        0.0629
     34 CL          2.7791   -0.6303   27.9154 Cl      1  UNL1       -0.0821
@<TRIPOS>BOND
     1    16    17    1
     2    17    18   ar
     3    18    19   ar
     4    19    20   ar
     5    20    13    1
     6    13    14    2
     7    13    15    2
     8    13     1    1
     9     1     2    1
    10     3     2    1
    11     3     4    1
    12     4     5    1
    13     4     6    1
    14     6    22    1
    15    22    23    1
    16    23    24   am
    17    24    25    2
    18    24    27    1
    19    27    28   ar
    20    28    29   ar
    21    29    30   ar
    22    30    31    1
    23    30    32   ar
    24    32    33   ar
    25    33    34    1
    26     6     7    1
    27     7     8   ar
    28     8     9   ar
    29     9    10   ar
    30    10    11   ar
    31    11    12   ar
    32    20    21   ar
    33    21    17   ar
    34     5     1    1
    35    33    27   ar
    36    12     7   ar
    37     6     3    1
    38    23    26    1
@<TRIPOS>MOLECULE
*****
 34 38 0 0 0
SMALL
GASTEIGER

@<TRIPOS>ATOM
      1 N           5.8706   -2.1273   31.3708 N.3     1  UNL1       -0.1541
      2 C           5.4621   -0.8381   30.7219 C.3     1  UNL1        0.0963
      3 C           4.9274    0.0693   31.7898 C.3     1  UNL1        0.0264
      4 C           5.0053   -0.6590   33.0988 C.3     1  UNL1        0.0264
      5 C           5.5883   -2.0166   32.8399 C.3     1  UNL1        0.0963
      6 C           4.4575    0.7364   33.0485 C.3     1  UNL1        0.0562
      7 C           4.1395    0.9439   34.4996 C.ar    1  UNL1        0.0600
      8 C           4.7934    0.0849   35.5410 C.ar    1  UNL1        0.0148
      9 C           4.4755    0.2924   36.9921 C.ar    1  UNL1        0.0028
     10 C           3.5035    1.3590   37.4019 C.ar    1  UNL1        0.0207
     11 C           2.8496    2.2179   36.3605 C.ar    1  UNL1        0.0984
     12 N           3.1676    2.0104   34.9095 N.ar    1  UNL1       -0.2481
     13 S           6.4582   -3.3181   30.6732 S.O2    1  UNL1        0.0814
     14 O           6.5366   -4.0463   31.9823 O.2     1  UNL1       -0.1513
     15 O           6.3799   -2.5899   29.3642 O.2     1  UNL1       -0.1513
     16 C           9.5336   -7.4542   29.5263 C.3     1  UNL1        0.1321
     17 N           8.4595   -6.4101   29.4485 N.ar    1  UNL1       -0.3047
     18 C           7.4409   -6.2727   28.3560 C.ar    1  UNL1        0.1800
     19 N           6.5673   -5.0978   28.6818 N.ar    1  UNL1       -0.2042
     20 C           7.0459   -4.5089   29.9756 C.ar    1  UNL1        0.2217
     21 C           8.2153   -5.3200   30.4495 C.ar    1  UNL1        0.1172
     22 C           4.0200    2.0599   32.4941 C.3     1  UNL1        0.0952
     23 N           3.3475    2.1267   31.1550 N.am    1  UNL1       -0.3005
     24 C           1.8585    1.9757   31.0550 C.2     1  UNL1        0.2467
     25 O           1.0420    1.7578   32.2943 O.2     1  UNL1       -0.2701
     26 H           3.8835    2.2698   30.3416 H       1  UNL1        0.1498
     27 C           1.1861    2.0426   29.7159 C.ar    1  UNL1        0.0640
     28 C           0.6116    3.3398   29.2290 C.ar    1  UNL1        0.0062
     29 C          -0.0609    3.4067   27.8898 C.ar    1  UNL1        0.0116
     30 C          -0.1588    2.1763   27.0375 C.ar    1  UNL1        0.0585
     31 CL         -0.8313    2.2431   25.6984 Cl      1  UNL1       -0.0822
     32 C           0.4157    0.8790   27.5244 C.ar    1  UNL1        0.0229
     33 C           1.0881    0.8121   28.8635 C.ar    1  UNL1        0.0629
     34 CL          1.6627   -0.4852   29.3504 Cl      1  UNL1       -0.0821
@<TRIPOS>BOND
     1    16    17    1
     2    17    18   ar
     3    18    19   ar
     4    19    20   ar
     5    20    13    1
     6    13    14    2
     7    13    15    2
     8    13     1    1
     9     1     2    1
    10     3     2    1
    11     3     4    1
    12     4     5    1
    13     4     6    1
    14     6    22    1
    15    22    23    1
    16    23    24   am
    17    24    25    2
    18    24    27    1
    19    27    28   ar
    20    28    29   ar
    21    29    30   ar
    22    30    31    1
    23    30    32   ar
    24    32    33   ar
    25    33    34    1
    26     6     7    1
    27     7     8   ar
    28     8     9   ar
    29     9    10   ar
    30    10    11   ar
    31    11    12   ar
    32    20    21   ar
    33    21    17   ar
    34     5     1    1
    35    33    27   ar
    36    12     7   ar
    37     6     3    1
    38    23    26    1
@<TRIPOS>MOLECULE
*****
 34 38 0 0 0
SMALL
GASTEIGER

@<TRIPOS>ATOM
      1 N           6.3399   -2.9648   25.5057 N.3     1  UNL1       -0.1541
      2 C           6.5444   -1.5380   25.0903 C.3     1  UNL1        0.0963
      3 C           6.2991   -1.4457   23.6134 C.3     1  UNL1        0.0264
      4 C           5.9430   -2.8153   23.1160 C.3     1  UNL1        0.0264
      5 C           5.9682   -3.7542   24.2856 C.3     1  UNL1        0.0963
      6 C           5.9980   -1.6609   22.1598 C.3     1  UNL1        0.0562
      7 C           5.6338   -2.3616   20.8845 C.ar    1  UNL1        0.0600
      8 C           4.5042   -3.3483   20.8670 C.ar    1  UNL1        0.0148
      9 C           4.1400   -4.0490   19.5917 C.ar    1  UNL1        0.0028
     10 C           4.9055   -3.7629   18.3338 C.ar    1  UNL1        0.0207
     11 C           6.0351   -2.7762   18.3513 C.ar    1  UNL1        0.0984
     12 N           6.3992   -2.0756   19.6266 N.ar    1  UNL1       -0.2481
     13 S           6.4820   -3.5070   26.8971 S.O2    1  UNL1        0.0814
     14 O           6.7510   -4.8725   26.3374 O.2     1  UNL1       -0.1513
     15 O           6.2131   -2.1415   27.4567 O.2     1  UNL1       -0.1513
     16 C           6.8064   -3.8136   32.1584 C.3     1  UNL1        0.1321
     17 N           6.7733   -4.1901   30.7067 N.ar    1  UNL1       -0.3047
     18 C           6.9127   -5.5769   30.1521 C.ar    1  UNL1        0.1800
     19 N           6.8205   -5.4897   28.6575 N.ar    1  UNL1       -0.2042
     20 C           6.6242   -4.0492   28.2884 C.ar    1  UNL1        0.2217
     21 C           6.5950   -3.2460   29.5549 C.ar    1  UNL1        0.1172
     22 C           6.1794   -0.2632   21.6464 C.3     1  UNL1        0.0952
     23 N           5.1544    0.3386   20.7314 N.am    1  UNL1       -0.3005
     24 C           3.8409    0.8087   21.2824 C.2     1  UNL1        0.2467
     25 O           3.5523    0.6768   22.7484 O.2     1  UNL1       -0.2701
     26 H           5.3439    0.4252   19.7692 H       1  UNL1        0.1498
     27 C           2.8159    1.4105   20.3673 C.ar    1  UNL1        0.0640
     28 C           2.8362    2.8833   20.0838 C.ar    1  UNL1        0.0062
     29 C           1.8112    3.4851   19.1688 C.ar    1  UNL1        0.0116
     30 C           0.7660    2.6141   18.5373 C.ar    1  UNL1        0.0585
     31 CL         -0.2590    3.2160   17.6222 Cl      1  UNL1       -0.0822
     32 C           0.7457    1.1413   18.8208 C.ar    1  UNL1        0.0229
     33 C           1.7707    0.5395   19.7358 C.ar    1  UNL1        0.0629
     34 CL          1.7504   -0.9334   20.0193 Cl      1  UNL1       -0.0821
@<TRIPOS>BOND
     1    16    17    1
     2    17    18   ar
     3    18    19   ar
     4    19    20   ar
     5    20    13    1
     6    13    14    2
     7    13    15    2
     8    13     1    1
     9     1     2    1
    10     3     2    1
    11     3     4    1
    12     4     5    1
    13     4     6    1
    14     6    22    1
    15    22    23    1
    16    23    24   am
    17    24    25    2
    18    24    27    1
    19    27    28   ar
    20    28    29   ar
    21    29    30   ar
    22    30    31    1
    23    30    32   ar
    24    32    33   ar
    25    33    34    1
    26     6     7    1
    27     7     8   ar
    28     8     9   ar
    29     9    10   ar
    30    10    11   ar
    31    11    12   ar
    32    20    21   ar
    33    21    17   ar
    34     5     1    1
    35    33    27   ar
    36    12     7   ar
    37     6     3    1
    38    23    26    1
