@<TRIPOS>MOLECULE
*****
 34 37 0 0 0
SMALL
GASTEIGER

@<TRIPOS>ATOM
      1 C          -7.4367  -18.9788   21.8493 C.ar    1  UNL1        0.1335
      2 C          -7.1415  -20.0211   20.8118 C.ar    1  UNL1        0.0360
      3 C          -5.7372  -20.2145   20.3214 C.ar    1  UNL1        0.0251
      4 C          -4.6282  -19.3655   20.8684 C.ar    1  UNL1        0.1183
      5 N          -3.1568  -19.3277   20.5788 N.ar    1  UNL1       -0.2123
      6 C          -2.5427  -18.2619   21.4374 C.ar    1  UNL1        0.1959
      7 N          -1.0916  -17.8834   21.4700 N.pl3   1  UNL1       -0.3287
      8 N          -3.6345  -17.6411   22.2575 N.ar    1  UNL1       -0.2824
      9 C          -4.9234  -18.3232   21.9059 C.ar    1  UNL1        0.1651
     10 N          -6.3276  -18.1299   22.3963 N.ar    1  UNL1       -0.2120
     11 H          -0.4476  -18.3516   20.8910 H       1  UNL1        0.1451
     12 H          -0.7832  -17.1667   22.0705 H       1  UNL1        0.1451
     13 C         -13.0539  -18.2052   23.8112 C.3     1  UNL1        0.0897
     14 N         -11.6496  -18.3986   23.3208 N.3     1  UNL1       -0.2686
     15 C         -10.7954  -19.4862   23.9017 C.3     1  UNL1        0.0939
     16 C          -9.3911  -19.6796   23.4112 C.3     1  UNL1        0.1095
     17 N          -8.8410  -18.7854   22.3398 N.pl3   1  UNL1       -0.2903
     18 C          -9.6953  -17.6978   21.7589 C.3     1  UNL1        0.1095
     19 C         -11.0995  -17.5044   22.2493 C.3     1  UNL1        0.0939
     20 C          -3.4669  -16.5329   23.2543 C.3     1  UNL1        0.1438
     21 C          -4.5128  -15.4639   23.3703 C.3     1  UNL1        0.1561
     22 O          -4.5381  -14.3298   22.3889 O.3     1  UNL1       -0.3780
     23 H          -5.2709  -13.7320   22.6044 H       1  UNL1        0.2109
     24 C          -5.5333  -15.5290   24.4676 C.ar    1  UNL1        0.0167
     25 C          -5.0994  -15.7790   25.8815 C.ar    1  UNL1       -0.0011
     26 C          -6.1200  -15.8441   26.9789 C.ar    1  UNL1        0.0037
     27 C          -7.5745  -15.6591   26.6624 C.ar    1  UNL1        0.0722
     28 C          -8.0084  -15.4091   25.2485 C.ar    1  UNL1        0.0150
     29 C          -6.9878  -15.3440   24.1511 C.ar    1  UNL1        0.0559
     30 CL         -7.4217  -15.0940   22.7372 Cl      1  UNL1       -0.0825
     31 C          -8.5950  -15.7242   27.7598 C.3     1  UNL1        0.4186
     32 F          -9.6156  -15.7893   28.8571 F       1  UNL1       -0.1659
     33 F          -8.8137  -17.1796   27.4701 F       1  UNL1       -0.1659
     34 F          -8.3763  -14.2688   28.0495 F       1  UNL1       -0.1659
@<TRIPOS>BOND
     1    13    14    1
     2    14    15    1
     3    15    16    1
     4    16    17    1
     5    17     1    1
     6     1     2   ar
     7     2     3   ar
     8     3     4   ar
     9     4     5   ar
    10     5     6   ar
    11     6     7    1
    12     6     8   ar
    13     8    20    1
    14    20    21    1
    15    21    22    1
    16    21    24    1
    17    24    25   ar
    18    25    26   ar
    19    26    27   ar
    20    27    31    1
    21    31    32    1
    22    31    33    1
    23    31    34    1
    24    27    28   ar
    25    28    29   ar
    26    29    30    1
    27     8     9   ar
    28     9    10   ar
    29    17    18    1
    30    18    19    1
    31    19    14    1
    32    10     1   ar
    33     9     4   ar
    34    29    24   ar
    35     7    11    1
    36     7    12    1
    37    22    23    1
@<TRIPOS>MOLECULE
*****
 34 37 0 0 0
SMALL
GASTEIGER

@<TRIPOS>ATOM
      1 C          -8.9265  -17.3821   22.7144 C.ar    1  UNL1        0.1335
      2 C         -10.3444  -17.1101   22.3078 C.ar    1  UNL1        0.0360
      3 C         -10.9139  -17.7690   21.0866 C.ar    1  UNL1        0.0251
      4 C         -10.0655  -18.7000   20.2720 C.ar    1  UNL1        0.1183
      5 N         -10.3506  -19.4889   19.0285 N.ar    1  UNL1       -0.2123
      6 C          -9.1088  -20.2485   18.6666 C.ar    1  UNL1        0.1959
      7 N          -8.9478  -21.1664   17.4912 N.pl3   1  UNL1       -0.3287
      8 N          -8.0563  -19.9289   19.6864 N.ar    1  UNL1       -0.2824
      9 C          -8.6475  -18.9719   20.6786 C.ar    1  UNL1        0.1651
     10 N          -8.0780  -18.3130   21.8998 N.ar    1  UNL1       -0.2120
     11 H          -9.7009  -21.3131   16.8743 H       1  UNL1        0.1451
     12 H          -8.0889  -21.6222   17.3366 H       1  UNL1        0.1451
     13 C          -6.6482  -14.7463   27.5994 C.3     1  UNL1        0.0897
     14 N          -7.2177  -15.4052   26.3782 N.3     1  UNL1       -0.2686
     15 C          -6.5625  -15.2056   25.0437 C.3     1  UNL1        0.0939
     16 C          -7.1321  -15.8646   23.8224 C.3     1  UNL1        0.1095
     17 N          -8.3568  -16.7231   23.9357 N.pl3   1  UNL1       -0.2903
     18 C          -9.0121  -16.9227   25.2702 C.3     1  UNL1        0.1095
     19 C          -8.4425  -16.2638   26.4914 C.3     1  UNL1        0.0939
     20 C          -6.6579  -20.4712   19.7099 C.3     1  UNL1        0.1438
     21 C          -5.7762  -20.2206   20.8973 C.3     1  UNL1        0.1561
     22 O          -6.2114  -20.6658   22.2619 O.3     1  UNL1       -0.3780
     23 H          -5.5313  -20.4286   22.9116 H       1  UNL1        0.2109
     24 C          -4.4592  -19.5249   20.7199 C.ar    1  UNL1        0.0167
     25 C          -3.6703  -19.7226   19.4596 C.ar    1  UNL1       -0.0011
     26 C          -2.3533  -19.0268   19.2822 C.ar    1  UNL1        0.0037
     27 C          -1.8252  -18.1333   20.3651 C.ar    1  UNL1        0.0722
     28 C          -2.6141  -17.9356   21.6255 C.ar    1  UNL1        0.0150
     29 C          -3.9311  -18.6314   21.8028 C.ar    1  UNL1        0.0559
     30 CL         -4.7201  -18.4337   23.0632 Cl      1  UNL1       -0.0825
     31 C          -0.5082  -17.4376   20.1878 C.3     1  UNL1        0.4186
     32 F           0.8088  -16.7418   20.0104 F       1  UNL1       -0.1659
     33 F          -1.0711  -16.2070   20.8350 F       1  UNL1       -0.1659
     34 F           0.0547  -18.6681   19.5405 F       1  UNL1       -0.1659
@<TRIPOS>BOND
     1    13    14    1
     2    14    15    1
     3    15    16    1
     4    16    17    1
     5    17     1    1
     6     1     2   ar
     7     2     3   ar
     8     3     4   ar
     9     4     5   ar
    10     5     6   ar
    11     6     7    1
    12     6     8   ar
    13     8    20    1
    14    20    21    1
    15    21    22    1
    16    21    24    1
    17    24    25   ar
    18    25    26   ar
    19    26    27   ar
    20    27    31    1
    21    31    32    1
    22    31    33    1
    23    31    34    1
    24    27    28   ar
    25    28    29   ar
    26    29    30    1
    27     8     9   ar
    28     9    10   ar
    29    17    18    1
    30    18    19    1
    31    19    14    1
    32    10     1   ar
    33     9     4   ar
    34    29    24   ar
    35     7    11    1
    36     7    12    1
    37    22    23    1
@<TRIPOS>MOLECULE
*****
 34 37 0 0 0
SMALL
GASTEIGER

@<TRIPOS>ATOM
      1 C          -8.3406  -19.2636   21.3912 C.ar    1  UNL1        0.1335
      2 C          -8.3213  -19.9617   20.0637 C.ar    1  UNL1        0.0360
      3 C          -7.0127  -20.3046   19.4157 C.ar    1  UNL1        0.0251
      4 C          -5.7235  -19.9495   20.0952 C.ar    1  UNL1        0.1183
      5 N          -4.2910  -20.1585   19.7022 N.ar    1  UNL1       -0.2123
      6 C          -3.4250  -19.5897   20.7868 C.ar    1  UNL1        0.1959
      7 N          -1.9251  -19.5826   20.8050 N.pl3   1  UNL1       -0.3287
      8 N          -4.3223  -19.0291   21.8502 N.ar    1  UNL1       -0.2824
      9 C          -5.7428  -19.2515   21.4227 C.ar    1  UNL1        0.1651
     10 N          -7.0514  -18.9085   22.0707 N.ar    1  UNL1       -0.2120
     11 H          -1.4219  -19.9771   20.0564 H       1  UNL1        0.1451
     12 H          -1.4439  -19.1836   21.5656 H       1  UNL1        0.1451
     13 C         -13.5750  -17.8919   23.9836 C.3     1  UNL1        0.0897
     14 N         -12.2664  -18.2348   23.3355 N.3     1  UNL1       -0.2686
     15 C         -12.1110  -18.1123   21.8486 C.3     1  UNL1        0.0939
     16 C         -10.8024  -18.4553   21.2005 C.3     1  UNL1        0.1095
     17 N          -9.6493  -18.9207   22.0393 N.pl3   1  UNL1       -0.2903
     18 C          -9.8047  -19.0432   23.5262 C.3     1  UNL1        0.1095
     19 C         -11.1132  -18.7003   24.1743 C.3     1  UNL1        0.0939
     20 C          -3.8772  -18.3630   23.1184 C.3     1  UNL1        0.1438
     21 C          -4.0728  -16.8868   23.2988 C.3     1  UNL1        0.1561
     22 O          -3.2655  -15.9184   22.4862 O.3     1  UNL1       -0.3780
     23 H          -3.5134  -15.0113   22.7241 H       1  UNL1        0.2109
     24 C          -5.0757  -16.3790   24.2919 C.ar    1  UNL1        0.0167
     25 C          -6.2906  -15.6374   23.8187 C.ar    1  UNL1       -0.0011
     26 C          -7.2935  -15.1296   24.8118 C.ar    1  UNL1        0.0037
     27 C          -7.0816  -15.3634   26.2782 C.ar    1  UNL1        0.0722
     28 C          -5.8667  -16.1051   26.7515 C.ar    1  UNL1        0.0150
     29 C          -4.8638  -16.6129   25.7583 C.ar    1  UNL1        0.0559
     30 CL         -3.6489  -17.3545   26.2316 Cl      1  UNL1       -0.0825
     31 C          -8.0845  -14.8556   27.2713 C.3     1  UNL1        0.4186
     32 F          -9.0874  -14.3478   28.2645 F       1  UNL1       -0.1659
     33 F          -6.9697  -14.4418   28.1856 F       1  UNL1       -0.1659
     34 F          -9.1994  -15.2694   26.3571 F       1  UNL1       -0.1659
@<TRIPOS>BOND
     1    13    14    1
     2    14    15    1
     3    15    16    1
     4    16    17    1
     5    17     1    1
     6     1     2   ar
     7     2     3   ar
     8     3     4   ar
     9     4     5   ar
    10     5     6   ar
    11     6     7    1
    12     6     8   ar
    13     8    20    1
    14    20    21    1
    15    21    22    1
    16    21    24    1
    17    24    25   ar
    18    25    26   ar
    19    26    27   ar
    20    27    31    1
    21    31    32    1
    22    31    33    1
    23    31    34    1
    24    27    28   ar
    25    28    29   ar
    26    29    30    1
    27     8     9   ar
    28     9    10   ar
    29    17    18    1
    30    18    19    1
    31    19    14    1
    32    10     1   ar
    33     9     4   ar
    34    29    24   ar
    35     7    11    1
    36     7    12    1
    37    22    23    1
@<TRIPOS>MOLECULE
*****
 34 37 0 0 0
SMALL
GASTEIGER

@<TRIPOS>ATOM
      1 C          -8.8947  -18.1730   22.3477 C.ar    1  UNL1        0.1335
      2 C         -10.1121  -18.1147   23.2221 C.ar    1  UNL1        0.0360
      3 C         -10.0702  -17.3581   24.5165 C.ar    1  UNL1        0.0251
      4 C          -8.8109  -16.6597   24.9367 C.ar    1  UNL1        0.1183
      5 N          -8.4727  -15.8428   26.1484 N.ar    1  UNL1       -0.2123
      6 C          -7.0463  -15.3962   26.0229 C.ar    1  UNL1        0.1959
      7 N          -6.2950  -14.5561   27.0129 N.pl3   1  UNL1       -0.3287
      8 N          -6.5029  -15.9371   24.7337 N.ar    1  UNL1       -0.2824
      9 C          -7.5935  -16.7180   24.0623 C.ar    1  UNL1        0.1651
     10 N          -7.6354  -17.4747   22.7679 N.ar    1  UNL1       -0.2120
     11 H          -6.7404  -14.2473   27.8348 H       1  UNL1        0.1451
     12 H          -5.3565  -14.3136   26.8408 H       1  UNL1        0.1451
     13 C          -9.0620  -21.1995   17.1696 C.3     1  UNL1        0.0897
     14 N          -9.0202  -20.4429   18.4641 N.3     1  UNL1       -0.2686
     15 C         -10.2891  -19.9166   19.0665 C.3     1  UNL1        0.0939
     16 C         -10.2473  -19.1600   20.3611 C.3     1  UNL1        0.1095
     17 N          -8.9366  -18.9296   21.0532 N.pl3   1  UNL1       -0.2903
     18 C          -7.6677  -19.4560   20.4508 C.3     1  UNL1        0.1095
     19 C          -7.7095  -20.2126   19.1563 C.3     1  UNL1        0.0939
     20 C          -5.1130  -15.7330   24.2080 C.3     1  UNL1        0.1438
     21 C          -4.1925  -16.9063   24.0461 C.3     1  UNL1        0.1561
     22 O          -3.9564  -17.8388   25.1970 O.3     1  UNL1       -0.3780
     23 H          -3.3406  -18.5375   24.9260 H       1  UNL1        0.2109
     24 C          -3.5081  -17.1470   22.7332 C.ar    1  UNL1        0.0167
     25 C          -2.5192  -16.1486   22.2087 C.ar    1  UNL1       -0.0011
     26 C          -1.8348  -16.3894   20.8959 C.ar    1  UNL1        0.0037
     27 C          -2.1393  -17.6285   20.1074 C.ar    1  UNL1        0.0722
     28 C          -3.1283  -18.6270   20.6319 C.ar    1  UNL1        0.0150
     29 C          -3.8126  -18.3862   21.9448 C.ar    1  UNL1        0.0559
     30 CL         -4.8016  -19.3847   22.4693 Cl      1  UNL1       -0.0825
     31 C          -1.4549  -17.8693   18.7946 C.3     1  UNL1        0.4186
     32 F          -0.7706  -18.1101   17.4817 F       1  UNL1       -0.1659
     33 F          -2.5585  -17.1414   18.0858 F       1  UNL1       -0.1659
     34 F          -0.3514  -18.5972   19.5033 F       1  UNL1       -0.1659
@<TRIPOS>BOND
     1    13    14    1
     2    14    15    1
     3    15    16    1
     4    16    17    1
     5    17     1    1
     6     1     2   ar
     7     2     3   ar
     8     3     4   ar
     9     4     5   ar
    10     5     6   ar
    11     6     7    1
    12     6     8   ar
    13     8    20    1
    14    20    21    1
    15    21    22    1
    16    21    24    1
    17    24    25   ar
    18    25    26   ar
    19    26    27   ar
    20    27    31    1
    21    31    32    1
    22    31    33    1
    23    31    34    1
    24    27    28   ar
    25    28    29   ar
    26    29    30    1
    27     8     9   ar
    28     9    10   ar
    29    17    18    1
    30    18    19    1
    31    19    14    1
    32    10     1   ar
    33     9     4   ar
    34    29    24   ar
    35     7    11    1
    36     7    12    1
    37    22    23    1
@<TRIPOS>MOLECULE
*****
 34 37 0 0 0
SMALL
GASTEIGER

@<TRIPOS>ATOM
      1 C          -5.6572  -19.1911   21.4292 C.ar    1  UNL1        0.1335
      2 C          -5.9088  -20.5273   22.0628 C.ar    1  UNL1        0.0360
      3 C          -7.3023  -20.9213   22.4538 C.ar    1  UNL1        0.0251
      4 C          -8.4441  -19.9793   22.2113 C.ar    1  UNL1        0.1183
      5 N          -9.9140  -20.0913   22.4887 N.ar    1  UNL1       -0.2123
      6 C         -10.5708  -18.8244   22.0266 C.ar    1  UNL1        0.1959
      7 N         -12.0346  -18.5080   22.1123 N.pl3   1  UNL1       -0.3287
      8 N          -9.5068  -17.9294   21.4636 N.ar    1  UNL1       -0.2824
      9 C          -8.1924  -18.6431   21.5778 C.ar    1  UNL1        0.1651
     10 N          -6.7990  -18.2491   21.1868 N.ar    1  UNL1       -0.2120
     11 H         -12.6580  -19.1636   22.5006 H       1  UNL1        0.1451
     12 H         -12.3718  -17.6447   21.7804 H       1  UNL1        0.1451
     13 C          -0.0833  -17.6147   19.8649 C.3     1  UNL1        0.0897
     14 N          -1.4767  -18.0088   20.2560 N.3     1  UNL1       -0.2686
     15 C          -1.9222  -17.8732   21.6819 C.3     1  UNL1        0.0939
     16 C          -3.3158  -18.2673   22.0730 C.3     1  UNL1        0.1095
     17 N          -4.2637  -18.7970   21.0382 N.pl3   1  UNL1       -0.2903
     18 C          -3.8182  -18.9326   19.6123 C.3     1  UNL1        0.1095
     19 C          -2.4247  -18.5385   19.2212 C.3     1  UNL1        0.0939
     20 C          -9.7197  -16.5609   20.8876 C.3     1  UNL1        0.1438
     21 C          -9.0180  -15.3778   21.4859 C.3     1  UNL1        0.1561
     22 O          -8.8562  -14.1187   20.6868 O.3     1  UNL1       -0.3780
     23 H          -8.3843  -13.4576   21.2170 H       1  UNL1        0.2109
     24 C          -8.4780  -15.4538   22.8833 C.ar    1  UNL1        0.0167
     25 C          -7.0085  -15.2819   23.1298 C.ar    1  UNL1       -0.0011
     26 C          -6.4685  -15.3579   24.5272 C.ar    1  UNL1        0.0037
     27 C          -7.3980  -15.6057   25.6780 C.ar    1  UNL1        0.0722
     28 C          -8.8676  -15.7776   25.4315 C.ar    1  UNL1        0.0150
     29 C          -9.4076  -15.7017   24.0341 C.ar    1  UNL1        0.0559
     30 CL        -10.8772  -15.8736   23.7875 Cl      1  UNL1       -0.0825
     31 C          -6.8581  -15.6817   27.0754 C.3     1  UNL1        0.4186
     32 F          -6.3181  -15.7577   28.4728 F       1  UNL1       -0.1659
     33 F          -5.4635  -15.5272   26.5449 F       1  UNL1       -0.1659
     34 F          -8.2526  -15.8363   27.6059 F       1  UNL1       -0.1659
@<TRIPOS>BOND
     1    13    14    1
     2    14    15    1
     3    15    16    1
     4    16    17    1
     5    17     1    1
     6     1     2   ar
     7     2     3   ar
     8     3     4   ar
     9     4     5   ar
    10     5     6   ar
    11     6     7    1
    12     6     8   ar
    13     8    20    1
    14    20    21    1
    15    21    22    1
    16    21    24    1
    17    24    25   ar
    18    25    26   ar
    19    26    27   ar
    20    27    31    1
    21    31    32    1
    22    31    33    1
    23    31    34    1
    24    27    28   ar
    25    28    29   ar
    26    29    30    1
    27     8     9   ar
    28     9    10   ar
    29    17    18    1
    30    18    19    1
    31    19    14    1
    32    10     1   ar
    33     9     4   ar
    34    29    24   ar
    35     7    11    1
    36     7    12    1
    37    22    23    1
@<TRIPOS>MOLECULE
*****
 34 37 0 0 0
SMALL
GASTEIGER

@<TRIPOS>ATOM
      1 C           7.5641   -5.7196   27.0207 C.ar    1  UNL1        0.1335
      2 C           7.3945   -7.1891   26.7721 C.ar    1  UNL1        0.0360
      3 C           7.7165   -7.7638   25.4245 C.ar    1  UNL1        0.0251
      4 C           8.2081   -6.8690   24.3255 C.ar    1  UNL1        0.1183
      5 N           8.6024   -7.1474   22.9053 N.ar    1  UNL1       -0.2123
      6 C           9.0157   -5.8499   22.2762 C.ar    1  UNL1        0.1959
      7 N           9.4855   -5.6651   20.8636 N.pl3   1  UNL1       -0.3287
      8 N           8.8768   -4.7697   23.3076 N.ar    1  UNL1       -0.2824
      9 C           8.3777   -5.3995   24.5742 C.ar    1  UNL1        0.1651
     10 N           8.0557   -4.8248   25.9218 N.ar    1  UNL1       -0.2120
     11 H           9.5432   -6.4397   20.2587 H       1  UNL1        0.1451
     12 H           9.7360   -4.7691   20.5415 H       1  UNL1        0.1451
     13 C           6.2761   -3.4206   32.4111 C.3     1  UNL1        0.0897
     14 N           6.5981   -3.9954   31.0635 N.3     1  UNL1       -0.2686
     15 C           7.0116   -5.4320   30.9402 C.3     1  UNL1        0.0939
     16 C           7.3336   -6.0067   29.5926 C.3     1  UNL1        0.1095
     17 N           7.2421   -5.1449   28.3683 N.pl3   1  UNL1       -0.2903
     18 C           6.8286   -3.7083   28.4917 C.3     1  UNL1        0.1095
     19 C           6.5066   -3.1335   29.8392 C.3     1  UNL1        0.0939
     20 C           9.1833   -3.3150   23.1076 C.3     1  UNL1        0.1438
     21 C           8.0894   -2.3644   22.7204 C.3     1  UNL1        0.1561
     22 O           8.1532   -0.9303   23.1554 O.3     1  UNL1       -0.3780
     23 H           7.3744   -0.4568   22.8235 H       1  UNL1        0.2109
     24 C           6.9318   -2.8480   21.8981 C.ar    1  UNL1        0.0167
     25 C           7.0539   -2.9280   20.4052 C.ar    1  UNL1       -0.0011
     26 C           5.8963   -3.4115   19.5829 C.ar    1  UNL1        0.0037
     27 C           4.6167   -3.8150   20.2534 C.ar    1  UNL1        0.0722
     28 C           4.4946   -3.7350   21.7463 C.ar    1  UNL1        0.0150
     29 C           5.6522   -3.2514   22.5686 C.ar    1  UNL1        0.0559
     30 CL          5.5301   -3.1714   24.0615 Cl      1  UNL1       -0.0825
     31 C           3.4591   -4.2986   19.4311 C.3     1  UNL1        0.4186
     32 F           2.3015   -4.7821   18.6088 F       1  UNL1       -0.1659
     33 F           3.3913   -5.5466   20.2604 F       1  UNL1       -0.1659
     34 F           3.5268   -3.0505   18.6018 F       1  UNL1       -0.1659
@<TRIPOS>BOND
     1    13    14    1
     2    14    15    1
     3    15    16    1
     4    16    17    1
     5    17     1    1
     6     1     2   ar
     7     2     3   ar
     8     3     4   ar
     9     4     5   ar
    10     5     6   ar
    11     6     7    1
    12     6     8   ar
    13     8    20    1
    14    20    21    1
    15    21    22    1
    16    21    24    1
    17    24    25   ar
    18    25    26   ar
    19    26    27   ar
    20    27    31    1
    21    31    32    1
    22    31    33    1
    23    31    34    1
    24    27    28   ar
    25    28    29   ar
    26    29    30    1
    27     8     9   ar
    28     9    10   ar
    29    17    18    1
    30    18    19    1
    31    19    14    1
    32    10     1   ar
    33     9     4   ar
    34    29    24   ar
    35     7    11    1
    36     7    12    1
    37    22    23    1
@<TRIPOS>MOLECULE
*****
 34 37 0 0 0
SMALL
GASTEIGER

@<TRIPOS>ATOM
      1 C          -7.3898  -19.1951   20.4488 C.ar    1  UNL1        0.1335
      2 C          -7.8873  -19.6020   19.0935 C.ar    1  UNL1        0.0360
      3 C          -9.3520  -19.5281   18.7790 C.ar    1  UNL1        0.0251
      4 C         -10.3193  -19.0472   19.8197 C.ar    1  UNL1        0.1183
      5 N         -11.8085  -18.8683   19.7996 N.ar    1  UNL1       -0.2123
      6 C         -12.2313  -18.3507   21.1425 C.ar    1  UNL1        0.1959
      7 N         -13.6355  -18.0304   21.5618 N.pl3   1  UNL1       -0.3287
      8 N         -11.0035  -18.2098   21.9925 N.ar    1  UNL1       -0.2824
      9 C          -9.8218  -18.6402   21.1750 C.ar    1  UNL1        0.1651
     10 N          -8.3570  -18.7142   21.4896 N.ar    1  UNL1       -0.2120
     11 H         -14.3791  -18.1565   20.9290 H       1  UNL1        0.1451
     12 H         -13.8135  -17.6939   22.4697 H       1  UNL1        0.1451
     13 C          -1.5306  -19.4908   21.7071 C.3     1  UNL1        0.0897
     14 N          -2.9954  -19.4169   21.3926 N.3     1  UNL1       -0.2686
     15 C          -4.0004  -19.3772   22.5054 C.3     1  UNL1        0.0939
     16 C          -5.4652  -19.3033   22.1908 C.3     1  UNL1        0.1095
     17 N          -5.9249  -19.2690   20.7634 N.pl3   1  UNL1       -0.2903
     18 C          -4.9199  -19.3087   19.6506 C.3     1  UNL1        0.1095
     19 C          -3.4552  -19.3826   19.9652 C.3     1  UNL1        0.0939
     20 C         -10.9642  -17.7237   23.4110 C.3     1  UNL1        0.1438
     21 C          -9.8857  -18.2012   24.3379 C.3     1  UNL1        0.1561
     22 O          -9.5327  -19.6581   24.3903 O.3     1  UNL1       -0.3780
     23 H          -8.8216  -19.7955   25.0356 H       1  UNL1        0.2109
     24 C          -9.1604  -17.2218   25.2123 C.ar    1  UNL1        0.0167
     25 C          -9.1518  -17.4083   26.7006 C.ar    1  UNL1       -0.0011
     26 C          -8.4264  -16.4288   27.5750 C.ar    1  UNL1        0.0037
     27 C          -7.7096  -15.2629   26.9611 C.ar    1  UNL1        0.0722
     28 C          -7.7183  -15.0765   25.4728 C.ar    1  UNL1        0.0150
     29 C          -8.4436  -16.0559   24.5984 C.ar    1  UNL1        0.0559
     30 CL         -8.4522  -15.8695   23.1100 Cl      1  UNL1       -0.0825
     31 C          -6.9843  -14.2835   27.8355 C.3     1  UNL1        0.4186
     32 F          -6.2589  -13.3041   28.7099 F       1  UNL1       -0.1659
     33 F          -5.6876  -14.6615   27.1831 F       1  UNL1       -0.1659
     34 F          -8.2810  -13.9056   28.4879 F       1  UNL1       -0.1659
@<TRIPOS>BOND
     1    13    14    1
     2    14    15    1
     3    15    16    1
     4    16    17    1
     5    17     1    1
     6     1     2   ar
     7     2     3   ar
     8     3     4   ar
     9     4     5   ar
    10     5     6   ar
    11     6     7    1
    12     6     8   ar
    13     8    20    1
    14    20    21    1
    15    21    22    1
    16    21    24    1
    17    24    25   ar
    18    25    26   ar
    19    26    27   ar
    20    27    31    1
    21    31    32    1
    22    31    33    1
    23    31    34    1
    24    27    28   ar
    25    28    29   ar
    26    29    30    1
    27     8     9   ar
    28     9    10   ar
    29    17    18    1
    30    18    19    1
    31    19    14    1
    32    10     1   ar
    33     9     4   ar
    34    29    24   ar
    35     7    11    1
    36     7    12    1
    37    22    23    1
@<TRIPOS>MOLECULE
*****
 34 37 0 0 0
SMALL
GASTEIGER

@<TRIPOS>ATOM
      1 C          -4.8600  -19.3918   20.2057 C.ar    1  UNL1        0.1335
      2 C          -5.1928  -20.7959   19.7962 C.ar    1  UNL1        0.0360
      3 C          -6.6247  -21.2368   19.7248 C.ar    1  UNL1        0.0251
      4 C          -7.7238  -20.2736   20.0628 C.ar    1  UNL1        0.1183
      5 N          -9.2165  -20.4208   20.0826 N.ar    1  UNL1       -0.2123
      6 C          -9.8062  -19.1076   20.5044 C.ar    1  UNL1        0.1959
      7 N         -11.2675  -18.8061   20.6583 N.pl3   1  UNL1       -0.3287
      8 N          -8.6779  -18.1489   20.7452 N.ar    1  UNL1       -0.2824
      9 C          -7.3910  -18.8695   20.4723 C.ar    1  UNL1        0.1651
     10 N          -5.9591  -18.4286   20.5437 N.ar    1  UNL1       -0.2120
     11 H         -11.9363  -19.5052   20.4761 H       1  UNL1        0.1451
     12 H         -11.5578  -17.9090   20.9415 H       1  UNL1        0.1451
     13 C           0.8678  -17.6280   20.4913 C.3     1  UNL1        0.0897
     14 N          -0.5641  -18.0689   20.4199 N.3     1  UNL1       -0.2686
     15 C          -1.2416  -18.6177   21.6405 C.3     1  UNL1        0.0939
     16 C          -2.6736  -19.0586   21.5691 C.3     1  UNL1        0.1095
     17 N          -3.4280  -18.9509   20.2771 N.pl3   1  UNL1       -0.2903
     18 C          -2.7505  -18.4021   19.0565 C.3     1  UNL1        0.1095
     19 C          -1.3185  -17.9612   19.1279 C.3     1  UNL1        0.0939
     20 C          -8.8129  -16.7203   21.1821 C.3     1  UNL1        0.1438
     21 C          -9.2727  -16.4020   22.5740 C.3     1  UNL1        0.1561
     22 O          -8.4096  -15.5723   23.4776 O.3     1  UNL1       -0.3780
     23 H          -8.8511  -15.4614   24.3342 H       1  UNL1        0.2109
     24 C         -10.5956  -16.9134   23.0622 C.ar    1  UNL1        0.0167
     25 C         -11.8657  -16.2471   22.6228 C.ar    1  UNL1       -0.0011
     26 C         -13.1886  -16.7585   23.1110 C.ar    1  UNL1        0.0037
     27 C         -13.2416  -17.9361   24.0386 C.ar    1  UNL1        0.0722
     28 C         -11.9715  -18.6023   24.4779 C.ar    1  UNL1        0.0150
     29 C         -10.6486  -18.0910   23.9897 C.ar    1  UNL1        0.0559
     30 CL         -9.3785  -18.7573   24.4291 Cl      1  UNL1       -0.0825
     31 C         -14.5645  -18.4474   24.5268 C.3     1  UNL1        0.4186
     32 F         -15.8875  -18.9588   25.0150 F       1  UNL1       -0.1659
     33 F         -15.0385  -18.5745   23.1093 F       1  UNL1       -0.1659
     34 F         -14.0906  -18.3204   25.9442 F       1  UNL1       -0.1659
@<TRIPOS>BOND
     1    13    14    1
     2    14    15    1
     3    15    16    1
     4    16    17    1
     5    17     1    1
     6     1     2   ar
     7     2     3   ar
     8     3     4   ar
     9     4     5   ar
    10     5     6   ar
    11     6     7    1
    12     6     8   ar
    13     8    20    1
    14    20    21    1
    15    21    22    1
    16    21    24    1
    17    24    25   ar
    18    25    26   ar
    19    26    27   ar
    20    27    31    1
    21    31    32    1
    22    31    33    1
    23    31    34    1
    24    27    28   ar
    25    28    29   ar
    26    29    30    1
    27     8     9   ar
    28     9    10   ar
    29    17    18    1
    30    18    19    1
    31    19    14    1
    32    10     1   ar
    33     9     4   ar
    34    29    24   ar
    35     7    11    1
    36     7    12    1
    37    22    23    1
@<TRIPOS>MOLECULE
*****
 34 37 0 0 0
SMALL
GASTEIGER

@<TRIPOS>ATOM
      1 C           7.9505   -5.8466   25.7629 C.ar    1  UNL1        0.1335
      2 C           8.6094   -7.0140   25.0899 C.ar    1  UNL1        0.0360
      3 C           8.8271   -6.9991   23.6058 C.ar    1  UNL1        0.0251
      4 C           8.3859   -5.8169   22.7949 C.ar    1  UNL1        0.1183
      5 N           8.4668   -5.5204   21.3266 N.ar    1  UNL1       -0.2123
      6 C           7.8580   -4.1697   21.0923 C.ar    1  UNL1        0.1959
      7 N           7.7290   -3.4786   19.7672 N.pl3   1  UNL1       -0.3287
      8 N           7.4008   -3.6315   22.4157 N.ar    1  UNL1       -0.2824
      9 C           7.7270   -4.6495   23.4679 C.ar    1  UNL1        0.1651
     10 N           7.5093   -4.6643   24.9519 N.ar    1  UNL1       -0.2120
     11 H           8.0611   -3.9153   18.9498 H       1  UNL1        0.1451
     12 H           7.3121   -2.5882   19.7150 H       1  UNL1        0.1451
     13 C           7.0795   -5.9056   31.6991 C.3     1  UNL1        0.0897
     14 N           7.2973   -5.8909   30.2151 N.3     1  UNL1       -0.2686
     15 C           8.3192   -6.7991   29.5979 C.3     1  UNL1        0.0939
     16 C           8.5369   -6.7843   28.1138 C.3     1  UNL1        0.1095
     17 N           7.7328   -5.8613   27.2470 N.pl3   1  UNL1       -0.2903
     18 C           6.7109   -4.9531   27.8641 C.3     1  UNL1        0.1095
     19 C           6.4931   -4.9679   29.3481 C.3     1  UNL1        0.0939
     20 C           6.7343   -2.3076   22.6463 C.3     1  UNL1        0.1438
     21 C           5.2663   -2.2496   22.9489 C.3     1  UNL1        0.1561
     22 O           4.7417   -2.8231   24.2319 O.3     1  UNL1       -0.3780
     23 H           3.7798   -2.7040   24.2698 H       1  UNL1        0.2109
     24 C           4.3228   -1.6182   21.9685 C.ar    1  UNL1        0.0167
     25 C           3.8598   -0.2065   22.1758 C.ar    1  UNL1       -0.0011
     26 C           2.9164    0.4249   21.1954 C.ar    1  UNL1        0.0037
     27 C           2.4358   -0.3552   20.0078 C.ar    1  UNL1        0.0722
     28 C           2.8988   -1.7668   19.8006 C.ar    1  UNL1        0.0150
     29 C           3.8423   -2.3983   20.7809 C.ar    1  UNL1        0.0559
     30 CL          4.3052   -3.8099   20.5737 Cl      1  UNL1       -0.0825
     31 C           1.4924    0.2763   19.0274 C.3     1  UNL1        0.4186
     32 F           0.5489    0.9077   18.0471 F       1  UNL1       -0.1659
     33 F           0.3702    0.1275   20.0116 F       1  UNL1       -0.1659
     34 F           2.6146    0.4250   18.0433 F       1  UNL1       -0.1659
@<TRIPOS>BOND
     1    13    14    1
     2    14    15    1
     3    15    16    1
     4    16    17    1
     5    17     1    1
     6     1     2   ar
     7     2     3   ar
     8     3     4   ar
     9     4     5   ar
    10     5     6   ar
    11     6     7    1
    12     6     8   ar
    13     8    20    1
    14    20    21    1
    15    21    22    1
    16    21    24    1
    17    24    25   ar
    18    25    26   ar
    19    26    27   ar
    20    27    31    1
    21    31    32    1
    22    31    33    1
    23    31    34    1
    24    27    28   ar
    25    28    29   ar
    26    29    30    1
    27     8     9   ar
    28     9    10   ar
    29    17    18    1
    30    18    19    1
    31    19    14    1
    32    10     1   ar
    33     9     4   ar
    34    29    24   ar
    35     7    11    1
    36     7    12    1
    37    22    23    1
