@<TRIPOS>MOLECULE
*****
 28 30 0 0 0
SMALL
GASTEIGER

@<TRIPOS>ATOM
      1 C          -6.3813  -18.6386   21.7772 C.2     1  UNL1        0.0731
      2 C          -4.9172  -18.5217   22.0814 C.2     1  UNL1        0.0512
      3 N          -4.4423  -17.5498   23.1206 N.pl3   1  UNL1       -0.3174
      4 C          -5.4316  -16.6948   23.8557 C.2     1  UNL1        0.0317
      5 C          -4.9568  -15.7230   24.8949 C.3     1  UNL1        0.0475
      6 C          -6.8958  -16.8117   23.5514 C.2     1  UNL1        0.0635
      7 C          -7.3706  -17.7836   22.5122 C.3     1  UNL1        0.0855
      8 H          -3.4814  -17.4731   23.3203 H       1  UNL1        0.1517
      9 C          -8.8348  -17.9005   22.2080 C.ar    1  UNL1       -0.0026
     10 C          -9.5100  -16.8629   21.3609 C.ar    1  UNL1       -0.0005
     11 C         -10.9741  -16.9797   21.0567 C.ar    1  UNL1        0.0294
     12 C         -11.7632  -18.1342   21.5996 C.ar    1  UNL1        0.1410
     13 F         -13.2273  -18.2510   21.2953 F       1  UNL1       -0.2041
     14 C         -11.0881  -19.1718   22.4467 C.ar    1  UNL1        0.0407
     15 C          -9.6238  -19.0549   22.7509 C.ar    1  UNL1        0.0566
     16 CL         -8.9487  -20.0925   23.5980 Cl      1  UNL1       -0.0825
     17 C          -6.8562  -19.6104   20.7379 C.2     1  UNL1        0.3389
     18 O          -6.6527  -21.0828   20.9394 O.2     1  UNL1       -0.2452
     19 C          -8.8016  -19.7570   19.0222 C.3     1  UNL1        0.2559
     20 O          -7.5344  -19.1099   19.4973 O.3     1  UNL1       -0.4415
     21 C          -7.8852  -15.9568   24.2865 C.1     1  UNL1        0.0976
     22 N          -8.8745  -15.1018   25.0214 N.1     1  UNL1       -0.1911
     23 C          -3.9278  -19.3766   21.3464 C.3     1  UNL1        0.1486
     24 N          -2.8306  -18.7368   20.5485 N.ar    1  UNL1       -0.3023
     25 C          -1.5904  -18.1026   21.1050 C.ar    1  UNL1        0.0983
     26 C          -0.7742  -17.5927   19.9544 C.ar    1  UNL1        0.1193
     27 N          -1.5100  -17.9118   18.6867 N.ar    1  UNL1       -0.2223
     28 C          -2.7809  -18.6189   19.0539 C.ar    1  UNL1        0.1789
@<TRIPOS>BOND
     1    19    20    1
     2    20    17    1
     3    17    18    2
     4    17     1    1
     5     1     2    2
     6     2    23    1
     7    23    24    1
     8    24    25   ar
     9    25    26   ar
    10    26    27   ar
    11    27    28   ar
    12     2     3    1
    13     3     4    1
    14     4     5    1
    15     4     6    2
    16     6    21    1
    17    21    22    3
    18     6     7    1
    19     7     9    1
    20     9    10   ar
    21    10    11   ar
    22    11    12   ar
    23    12    13    1
    24    12    14   ar
    25    14    15   ar
    26    15    16    1
    27     7     1    1
    28    15     9   ar
    29    28    24   ar
    30     3     8    1
@<TRIPOS>MOLECULE
*****
 28 30 0 0 0
SMALL
GASTEIGER

@<TRIPOS>ATOM
      1 C          -7.7373  -18.3758   22.0266 C.2     1  UNL1        0.0731
      2 C          -6.2521  -18.2918   21.8341 C.2     1  UNL1        0.0512
      3 N          -5.4327  -17.3876   22.7065 N.pl3   1  UNL1       -0.3174
      4 C          -6.0985  -16.5673   23.7713 C.2     1  UNL1        0.0317
      5 C          -5.2791  -15.6631   24.6436 C.3     1  UNL1        0.0475
      6 C          -7.5837  -16.6513   23.9637 C.2     1  UNL1        0.0635
      7 C          -8.4031  -17.5555   23.0914 C.3     1  UNL1        0.0855
      8 H          -4.4579  -17.3325   22.5801 H       1  UNL1        0.1517
      9 C          -9.8884  -17.6395   23.2839 C.ar    1  UNL1       -0.0026
     10 C         -10.4595  -18.5641   24.3178 C.ar    1  UNL1       -0.0005
     11 C         -11.9447  -18.6481   24.5103 C.ar    1  UNL1        0.0294
     12 C         -12.8588  -17.8074   23.6690 C.ar    1  UNL1        0.1410
     13 F         -14.3440  -17.8914   23.8615 F       1  UNL1       -0.2041
     14 C         -12.2876  -16.8828   22.6351 C.ar    1  UNL1        0.0407
     15 C         -10.8024  -16.7988   22.4426 C.ar    1  UNL1        0.0566
     16 CL        -10.2312  -15.8742   21.4087 Cl      1  UNL1       -0.0825
     17 C          -8.5567  -19.2800   21.1543 C.2     1  UNL1        0.3389
     18 O          -9.2563  -20.4653   21.7505 O.2     1  UNL1       -0.2452
     19 C          -8.8948  -20.1271   18.7216 C.3     1  UNL1        0.2559
     20 O          -8.6764  -18.9990   19.6857 O.3     1  UNL1       -0.4415
     21 C          -8.2496  -15.8310   25.0286 C.1     1  UNL1        0.0976
     22 N          -8.9154  -15.0108   26.0934 N.1     1  UNL1       -0.1911
     23 C          -5.5862  -19.1121   20.7693 C.3     1  UNL1        0.1486
     24 N          -4.0929  -19.0901   20.6296 N.ar    1  UNL1       -0.3023
     25 C          -3.3200  -18.4243   19.5300 C.ar    1  UNL1        0.0983
     26 C          -1.8597  -18.6527   19.7858 C.ar    1  UNL1        0.1193
     27 N          -1.7301  -19.4597   21.0436 N.ar    1  UNL1       -0.2223
     28 C          -3.1103  -19.7300   21.5651 C.ar    1  UNL1        0.1789
@<TRIPOS>BOND
     1    19    20    1
     2    20    17    1
     3    17    18    2
     4    17     1    1
     5     1     2    2
     6     2    23    1
     7    23    24    1
     8    24    25   ar
     9    25    26   ar
    10    26    27   ar
    11    27    28   ar
    12     2     3    1
    13     3     4    1
    14     4     5    1
    15     4     6    2
    16     6    21    1
    17    21    22    3
    18     6     7    1
    19     7     9    1
    20     9    10   ar
    21    10    11   ar
    22    11    12   ar
    23    12    13    1
    24    12    14   ar
    25    14    15   ar
    26    15    16    1
    27     7     1    1
    28    15     9   ar
    29    28    24   ar
    30     3     8    1
@<TRIPOS>MOLECULE
*****
 28 30 0 0 0
SMALL
GASTEIGER

@<TRIPOS>ATOM
      1 C          -6.1943  -18.1580   22.3896 C.2     1  UNL1        0.0731
      2 C          -4.7649  -18.0152   22.8213 C.2     1  UNL1        0.0512
      3 N          -4.4097  -17.0858   23.9438 N.pl3   1  UNL1       -0.3174
      4 C          -5.4839  -16.2992   24.6347 C.2     1  UNL1        0.0317
      5 C          -5.1288  -15.3698   25.7572 C.3     1  UNL1        0.0475
      6 C          -6.9133  -16.4420   24.2030 C.2     1  UNL1        0.0635
      7 C          -7.2685  -17.3714   23.0804 C.3     1  UNL1        0.0855
      8 H          -3.4716  -16.9921   24.2272 H       1  UNL1        0.1517
      9 C          -8.6980  -17.5142   22.6487 C.ar    1  UNL1       -0.0026
     10 C          -9.4862  -18.7247   23.0530 C.ar    1  UNL1       -0.0005
     11 C         -10.9156  -18.8676   22.6214 C.ar    1  UNL1        0.0294
     12 C         -11.5569  -17.7998   21.7854 C.ar    1  UNL1        0.1410
     13 F         -12.9863  -17.9426   21.3538 F       1  UNL1       -0.2041
     14 C         -10.7687  -16.5893   21.3812 C.ar    1  UNL1        0.0407
     15 C          -9.3392  -16.4465   21.8128 C.ar    1  UNL1        0.0566
     16 CL         -8.5510  -15.2360   21.4086 Cl      1  UNL1       -0.0825
     17 C          -6.5495  -19.0874   21.2671 C.2     1  UNL1        0.3389
     18 O          -6.9625  -18.5326   19.9362 O.2     1  UNL1       -0.2452
     19 C          -5.8594  -21.4508   20.4374 C.3     1  UNL1        0.2559
     20 O          -6.4916  -20.5717   21.4755 O.3     1  UNL1       -0.4415
     21 C          -7.9876  -15.6554   24.8938 C.1     1  UNL1        0.0976
     22 N          -9.0619  -14.8689   25.5846 N.1     1  UNL1       -0.1911
     23 C          -3.6906  -18.8019   22.1305 C.3     1  UNL1        0.1486
     24 N          -2.9077  -18.1806   21.0120 N.ar    1  UNL1       -0.3023
     25 C          -3.1000  -18.4451   19.5481 C.ar    1  UNL1        0.0983
     26 C          -2.1062  -17.6137   18.7924 C.ar    1  UNL1        0.1193
     27 N          -1.2997  -16.8353   19.7893 N.ar    1  UNL1       -0.2223
     28 C          -1.7951  -17.1856   21.1610 C.ar    1  UNL1        0.1789
@<TRIPOS>BOND
     1    19    20    1
     2    20    17    1
     3    17    18    2
     4    17     1    1
     5     1     2    2
     6     2    23    1
     7    23    24    1
     8    24    25   ar
     9    25    26   ar
    10    26    27   ar
    11    27    28   ar
    12     2     3    1
    13     3     4    1
    14     4     5    1
    15     4     6    2
    16     6    21    1
    17    21    22    3
    18     6     7    1
    19     7     9    1
    20     9    10   ar
    21    10    11   ar
    22    11    12   ar
    23    12    13    1
    24    12    14   ar
    25    14    15   ar
    26    15    16    1
    27     7     1    1
    28    15     9   ar
    29    28    24   ar
    30     3     8    1
@<TRIPOS>MOLECULE
*****
 28 30 0 0 0
SMALL
GASTEIGER

@<TRIPOS>ATOM
      1 C          -6.6945  -17.6839   22.5472 C.2     1  UNL1        0.0731
      2 C          -5.3777  -18.3631   22.3133 C.2     1  UNL1        0.0512
      3 N          -5.2913  -19.5279   21.3722 N.pl3   1  UNL1       -0.3174
      4 C          -6.5217  -20.0135   20.6649 C.2     1  UNL1        0.0317
      5 C          -6.4353  -21.1783   19.7237 C.3     1  UNL1        0.0475
      6 C          -7.8385  -19.3343   20.8987 C.2     1  UNL1        0.0635
      7 C          -7.9249  -18.1695   21.8399 C.3     1  UNL1        0.0855
      8 H          -4.4270  -19.9737   21.2187 H       1  UNL1        0.1517
      9 C          -9.2417  -17.4903   22.0737 C.ar    1  UNL1       -0.0026
     10 C          -9.6402  -16.3160   21.2298 C.ar    1  UNL1       -0.0005
     11 C         -10.9570  -15.6368   21.4635 C.ar    1  UNL1        0.0294
     12 C         -11.8754  -16.1318   22.5414 C.ar    1  UNL1        0.1410
     13 F         -13.1922  -15.4526   22.7752 F       1  UNL1       -0.2041
     14 C         -11.4769  -17.3061   23.3854 C.ar    1  UNL1        0.0407
     15 C         -10.1600  -17.9853   23.1515 C.ar    1  UNL1        0.0566
     16 CL         -9.7615  -19.1595   23.9955 Cl      1  UNL1       -0.0825
     17 C          -6.7809  -16.5191   23.4884 C.2     1  UNL1        0.3389
     18 O          -6.1635  -15.2045   23.1134 O.2     1  UNL1       -0.2452
     19 C          -8.3653  -15.5666   25.3138 C.3     1  UNL1        0.2559
     20 O          -7.4846  -16.6689   24.8045 O.3     1  UNL1       -0.4415
     21 C          -9.0689  -19.8198   20.1914 C.1     1  UNL1        0.0976
     22 N         -10.2993  -20.3054   19.4841 N.1     1  UNL1       -0.1911
     23 C          -4.1472  -17.8775   23.0207 C.3     1  UNL1        0.1486
     24 N          -2.8819  -17.6440   22.2497 N.ar    1  UNL1       -0.3023
     25 C          -2.3416  -16.3107   21.8250 C.ar    1  UNL1        0.0983
     26 C          -1.0605  -16.5454   21.0809 C.ar    1  UNL1        0.1193
     27 N          -0.8090  -18.0238   21.0457 N.ar    1  UNL1       -0.2223
     28 C          -1.9347  -18.7027   21.7681 C.ar    1  UNL1        0.1789
@<TRIPOS>BOND
     1    19    20    1
     2    20    17    1
     3    17    18    2
     4    17     1    1
     5     1     2    2
     6     2    23    1
     7    23    24    1
     8    24    25   ar
     9    25    26   ar
    10    26    27   ar
    11    27    28   ar
    12     2     3    1
    13     3     4    1
    14     4     5    1
    15     4     6    2
    16     6    21    1
    17    21    22    3
    18     6     7    1
    19     7     9    1
    20     9    10   ar
    21    10    11   ar
    22    11    12   ar
    23    12    13    1
    24    12    14   ar
    25    14    15   ar
    26    15    16    1
    27     7     1    1
    28    15     9   ar
    29    28    24   ar
    30     3     8    1
@<TRIPOS>MOLECULE
*****
 28 30 0 0 0
SMALL
GASTEIGER

@<TRIPOS>ATOM
      1 C          -8.1300  -17.2470   23.3649 C.2     1  UNL1        0.0731
      2 C          -6.7096  -17.3155   22.8877 C.2     1  UNL1        0.0512
      3 N          -6.3740  -18.0745   21.6382 N.pl3   1  UNL1       -0.3174
      4 C          -7.4587  -18.7650   20.8659 C.2     1  UNL1        0.0317
      5 C          -7.1231  -19.5240   19.6164 C.3     1  UNL1        0.0475
      6 C          -8.8791  -18.6965   21.3431 C.2     1  UNL1        0.0635
      7 C          -9.2147  -17.9375   22.5926 C.3     1  UNL1        0.0855
      8 H          -5.4417  -18.1194   21.3249 H       1  UNL1        0.1517
      9 C         -10.6352  -17.8691   23.0698 C.ar    1  UNL1       -0.0026
     10 C         -11.1276  -18.8408   24.1010 C.ar    1  UNL1       -0.0005
     11 C         -12.5480  -18.7724   24.5782 C.ar    1  UNL1        0.0294
     12 C         -13.4760  -17.7322   24.0243 C.ar    1  UNL1        0.1410
     13 F         -14.8964  -17.6638   24.5015 F       1  UNL1       -0.2041
     14 C         -12.9836  -16.7604   22.9932 C.ar    1  UNL1        0.0407
     15 C         -11.5632  -16.8289   22.5159 C.ar    1  UNL1        0.0566
     16 CL        -11.0708  -15.8572   21.4848 Cl      1  UNL1       -0.0825
     17 C          -8.4656  -16.4880   24.6144 C.2     1  UNL1        0.3389
     18 O          -8.5940  -14.9941   24.5728 O.2     1  UNL1       -0.2452
     19 C          -8.3888  -16.5406   27.2108 C.3     1  UNL1        0.2559
     20 O          -8.6728  -17.2229   25.9055 O.3     1  UNL1       -0.4415
     21 C          -9.9639  -19.3871   20.5708 C.1     1  UNL1        0.0976
     22 N         -11.0488  -20.0776   19.7986 N.1     1  UNL1       -0.1911
     23 C          -5.6247  -16.6250   23.6600 C.3     1  UNL1        0.1486
     24 N          -4.2026  -16.7038   23.1895 N.ar    1  UNL1       -0.3023
     25 C          -3.2736  -17.8657   23.3815 C.ar    1  UNL1        0.0983
     26 C          -1.9567  -17.5146   22.7552 C.ar    1  UNL1        0.1193
     27 N          -2.0717  -16.1357   22.1761 N.ar    1  UNL1       -0.2223
     28 C          -3.4598  -15.6346   22.4445 C.ar    1  UNL1        0.1789
@<TRIPOS>BOND
     1    19    20    1
     2    20    17    1
     3    17    18    2
     4    17     1    1
     5     1     2    2
     6     2    23    1
     7    23    24    1
     8    24    25   ar
     9    25    26   ar
    10    26    27   ar
    11    27    28   ar
    12     2     3    1
    13     3     4    1
    14     4     5    1
    15     4     6    2
    16     6    21    1
    17    21    22    3
    18     6     7    1
    19     7     9    1
    20     9    10   ar
    21    10    11   ar
    22    11    12   ar
    23    12    13    1
    24    12    14   ar
    25    14    15   ar
    26    15    16    1
    27     7     1    1
    28    15     9   ar
    29    28    24   ar
    30     3     8    1
@<TRIPOS>MOLECULE
*****
 28 30 0 0 0
SMALL
GASTEIGER

@<TRIPOS>ATOM
      1 C         -14.1264   -6.0987   17.6486 C.2     1  UNL1        0.0731
      2 C         -13.8457   -7.5609   17.4668 C.2     1  UNL1        0.0512
      3 N         -12.4709   -8.0993   17.7318 N.pl3   1  UNL1       -0.3174
      4 C         -11.3769   -7.1755   18.1785 C.2     1  UNL1        0.0317
      5 C         -10.0021   -7.7139   18.4434 C.3     1  UNL1        0.0475
      6 C         -11.6576   -5.7133   18.3602 C.2     1  UNL1        0.0635
      7 C         -13.0324   -5.1749   18.0953 C.3     1  UNL1        0.0855
      8 H         -12.2867   -9.0590   17.6125 H       1  UNL1        0.1517
      9 C         -13.3131   -3.7126   18.2771 C.ar    1  UNL1       -0.0026
     10 C         -13.0887   -2.7590   17.1411 C.ar    1  UNL1       -0.0005
     11 C         -13.3693   -1.2968   17.3229 C.ar    1  UNL1        0.0294
     12 C         -13.8744   -0.7881   18.6406 C.ar    1  UNL1        0.1410
     13 F         -14.1551    0.6742   18.8223 F       1  UNL1       -0.2041
     14 C         -14.0988   -1.7417   19.7765 C.ar    1  UNL1        0.0407
     15 C         -13.8181   -3.2040   19.5947 C.ar    1  UNL1        0.0566
     16 CL        -14.0425   -4.1576   20.7306 Cl      1  UNL1       -0.0825
     17 C         -15.5011   -5.5603   17.3836 C.2     1  UNL1        0.3389
     18 O         -15.9177   -5.2239   15.9825 O.2     1  UNL1       -0.2452
     19 C         -17.2924   -4.1127   18.5860 C.3     1  UNL1        0.2559
     20 O         -16.4594   -5.3584   18.5198 O.3     1  UNL1       -0.4415
     21 C         -10.5636   -4.7894   18.8070 C.1     1  UNL1        0.0976
     22 N          -9.4695   -3.8655   19.2536 N.1     1  UNL1       -0.1911
     23 C         -14.9397   -8.4849   17.0201 C.3     1  UNL1        0.1486
     24 N         -15.7386   -9.2474   18.0351 N.ar    1  UNL1       -0.3023
     25 C         -16.4687   -8.6586   19.2056 C.ar    1  UNL1        0.0983
     26 C         -17.1289   -9.7799   19.9518 C.ar    1  UNL1        0.1193
     27 N         -16.8068  -11.0618   19.2425 N.ar    1  UNL1       -0.2223
     28 C         -15.9475  -10.7326   18.0579 C.ar    1  UNL1        0.1789
@<TRIPOS>BOND
     1    19    20    1
     2    20    17    1
     3    17    18    2
     4    17     1    1
     5     1     2    2
     6     2    23    1
     7    23    24    1
     8    24    25   ar
     9    25    26   ar
    10    26    27   ar
    11    27    28   ar
    12     2     3    1
    13     3     4    1
    14     4     5    1
    15     4     6    2
    16     6    21    1
    17    21    22    3
    18     6     7    1
    19     7     9    1
    20     9    10   ar
    21    10    11   ar
    22    11    12   ar
    23    12    13    1
    24    12    14   ar
    25    14    15   ar
    26    15    16    1
    27     7     1    1
    28    15     9   ar
    29    28    24   ar
    30     3     8    1
@<TRIPOS>MOLECULE
*****
 28 30 0 0 0
SMALL
GASTEIGER

@<TRIPOS>ATOM
      1 C         -14.5537   -5.3294   18.8650 C.2     1  UNL1        0.0731
      2 C         -15.7047   -6.1816   19.3107 C.2     1  UNL1        0.0512
      3 N         -16.9793   -5.5391   19.7719 N.pl3   1  UNL1       -0.3174
      4 C         -17.1028   -4.0443   19.7873 C.2     1  UNL1        0.0317
      5 C         -18.3773   -3.4017   20.2485 C.3     1  UNL1        0.0475
      6 C         -15.9517   -3.1920   19.3416 C.2     1  UNL1        0.0635
      7 C         -14.6772   -3.8346   18.8805 C.3     1  UNL1        0.0855
      8 H         -17.7348   -6.0985   20.0644 H       1  UNL1        0.1517
      9 C         -13.5261   -2.9823   18.4348 C.ar    1  UNL1       -0.0026
     10 C         -12.5280   -2.4854   19.4383 C.ar    1  UNL1       -0.0005
     11 C         -11.3770   -1.6331   18.9927 C.ar    1  UNL1        0.0294
     12 C         -11.2239   -1.2777   17.5434 C.ar    1  UNL1        0.1410
     13 F         -10.0728   -0.4254   17.0978 F       1  UNL1       -0.2041
     14 C         -12.2219   -1.7745   16.5399 C.ar    1  UNL1        0.0407
     15 C         -13.3730   -2.6268   16.9856 C.ar    1  UNL1        0.0566
     16 CL        -14.3710   -3.1237   15.9820 Cl      1  UNL1       -0.0825
     17 C         -13.2791   -5.9720   18.4039 C.2     1  UNL1        0.3389
     18 O         -13.1703   -6.5032   17.0054 O.2     1  UNL1       -0.2452
     19 C         -10.7431   -5.6780   18.8854 C.3     1  UNL1        0.2559
     20 O         -12.1134   -6.0833   19.3413 O.3     1  UNL1       -0.4415
     21 C         -16.0752   -1.6972   19.3571 C.1     1  UNL1        0.0976
     22 N         -16.1986   -0.2024   19.3725 N.1     1  UNL1       -0.1911
     23 C         -15.5813   -7.6765   19.2953 C.3     1  UNL1        0.1486
     24 N         -16.6243   -8.5082   18.6094 N.ar    1  UNL1       -0.3023
     25 C         -17.4816   -8.0734   17.4579 C.ar    1  UNL1        0.0983
     26 C         -18.3803   -9.2171   17.0914 C.ar    1  UNL1        0.1193
     27 N         -18.0783  -10.3588   18.0163 N.ar    1  UNL1       -0.2223
     28 C         -16.9930   -9.9206   18.9545 C.ar    1  UNL1        0.1789
@<TRIPOS>BOND
     1    19    20    1
     2    20    17    1
     3    17    18    2
     4    17     1    1
     5     1     2    2
     6     2    23    1
     7    23    24    1
     8    24    25   ar
     9    25    26   ar
    10    26    27   ar
    11    27    28   ar
    12     2     3    1
    13     3     4    1
    14     4     5    1
    15     4     6    2
    16     6    21    1
    17    21    22    3
    18     6     7    1
    19     7     9    1
    20     9    10   ar
    21    10    11   ar
    22    11    12   ar
    23    12    13    1
    24    12    14   ar
    25    14    15   ar
    26    15    16    1
    27     7     1    1
    28    15     9   ar
    29    28    24   ar
    30     3     8    1
@<TRIPOS>MOLECULE
*****
 28 30 0 0 0
SMALL
GASTEIGER

@<TRIPOS>ATOM
      1 C           4.1703    1.0378   34.7782 C.2     1  UNL1        0.0731
      2 C           3.2051    2.0915   35.2343 C.2     1  UNL1        0.0512
      3 N           2.0776    2.5137   34.3395 N.pl3   1  UNL1       -0.3174
      4 C           1.9154    1.8821   32.9887 C.2     1  UNL1        0.0317
      5 C           0.7879    2.3043   32.0939 C.3     1  UNL1        0.0475
      6 C           2.8806    0.8284   32.5326 C.2     1  UNL1        0.0635
      7 C           4.0081    0.4063   33.4274 C.3     1  UNL1        0.0855
      8 H           1.4441    3.2053   34.6388 H       1  UNL1        0.1517
      9 C           4.9733   -0.6475   32.9713 C.ar    1  UNL1       -0.0026
     10 C           4.6634   -2.0974   33.1987 C.ar    1  UNL1       -0.0005
     11 C           5.6285   -3.1512   32.7426 C.ar    1  UNL1        0.0294
     12 C           6.9037   -2.7550   32.0591 C.ar    1  UNL1        0.1410
     13 F           7.8688   -3.8088   31.6030 F       1  UNL1       -0.2041
     14 C           7.2136   -1.3051   31.8317 C.ar    1  UNL1        0.0407
     15 C           6.2484   -0.2513   32.2878 C.ar    1  UNL1        0.0566
     16 CL          6.5583    1.1986   32.0604 Cl      1  UNL1       -0.0825
     17 C           5.2978    0.6157   35.6730 C.2     1  UNL1        0.3389
     18 O           5.1390   -0.5782   36.5671 O.2     1  UNL1       -0.2452
     19 C           7.8918    0.6656   35.5366 C.3     1  UNL1        0.2559
     20 O           6.5840    1.3874   35.6737 O.3     1  UNL1       -0.4415
     21 C           2.7184    0.1968   31.1817 C.1     1  UNL1        0.0976
     22 N           2.5562   -0.4347   29.8309 N.1     1  UNL1       -0.1911
     23 C           3.3673    2.7231   36.5852 C.3     1  UNL1        0.1486
     24 N           2.5295    2.2545   37.7377 N.ar    1  UNL1       -0.3023
     25 C           1.3613    2.9836   38.3324 C.ar    1  UNL1        0.0983
     26 C           0.8226    2.1542   39.4601 C.ar    1  UNL1        0.1193
     27 N           1.6578    0.9124   39.5624 N.ar    1  UNL1       -0.2223
     28 C           2.7127    0.9744   38.4979 C.ar    1  UNL1        0.1789
@<TRIPOS>BOND
     1    19    20    1
     2    20    17    1
     3    17    18    2
     4    17     1    1
     5     1     2    2
     6     2    23    1
     7    23    24    1
     8    24    25   ar
     9    25    26   ar
    10    26    27   ar
    11    27    28   ar
    12     2     3    1
    13     3     4    1
    14     4     5    1
    15     4     6    2
    16     6    21    1
    17    21    22    3
    18     6     7    1
    19     7     9    1
    20     9    10   ar
    21    10    11   ar
    22    11    12   ar
    23    12    13    1
    24    12    14   ar
    25    14    15   ar
    26    15    16    1
    27     7     1    1
    28    15     9   ar
    29    28    24   ar
    30     3     8    1
@<TRIPOS>MOLECULE
*****
 28 30 0 0 0
SMALL
GASTEIGER

@<TRIPOS>ATOM
      1 C         -14.1700   -5.1938   19.0830 C.2     1  UNL1        0.0731
      2 C         -13.0687   -6.2121   19.0760 C.2     1  UNL1        0.0512
      3 N         -13.3833   -7.6553   18.8145 N.pl3   1  UNL1       -0.3174
      4 C         -14.7992   -8.0800   18.5599 C.2     1  UNL1        0.0317
      5 C         -15.1138   -9.5232   18.2983 C.3     1  UNL1        0.0475
      6 C         -15.9005   -7.0617   18.5669 C.2     1  UNL1        0.0635
      7 C         -15.5859   -5.6185   18.8285 C.3     1  UNL1        0.0855
      8 H         -12.6605   -8.3236   18.8099 H       1  UNL1        0.1517
      9 C         -16.6872   -4.6002   18.8354 C.ar    1  UNL1       -0.0026
     10 C         -17.3867   -4.2607   20.1182 C.ar    1  UNL1       -0.0005
     11 C         -18.4880   -3.2424   20.1253 C.ar    1  UNL1        0.0294
     12 C         -18.8899   -2.5635   18.8495 C.ar    1  UNL1        0.1410
     13 F         -19.9912   -1.5451   18.8565 F       1  UNL1       -0.2041
     14 C         -18.1905   -2.9029   17.5667 C.ar    1  UNL1        0.0407
     15 C         -17.0891   -3.9213   17.5597 C.ar    1  UNL1        0.0566
     16 CL        -16.3897   -4.2608   16.2769 Cl      1  UNL1       -0.0825
     17 C         -13.8554   -3.7506   19.3446 C.2     1  UNL1        0.3389
     18 O         -13.6550   -3.2697   20.7512 O.2     1  UNL1       -0.2452
     19 C         -12.4454   -2.0777   17.9436 C.3     1  UNL1        0.2559
     20 O         -13.7412   -2.7885   18.1996 O.3     1  UNL1       -0.4415
     21 C         -17.3164   -7.4864   18.3123 C.1     1  UNL1        0.0976
     22 N         -18.7323   -7.9112   18.0578 N.1     1  UNL1       -0.1911
     23 C         -11.6528   -5.7874   19.3306 C.3     1  UNL1        0.1486
     24 N         -10.8298   -5.2138   18.2154 N.ar    1  UNL1       -0.3023
     25 C         -11.1065   -5.3627   16.7487 C.ar    1  UNL1        0.0983
     26 C         -10.0334   -4.6315   15.9980 C.ar    1  UNL1        0.1193
     27 N          -9.0934   -4.0306   17.0007 N.ar    1  UNL1       -0.2223
     28 C          -9.5856   -4.3905   18.3711 C.ar    1  UNL1        0.1789
@<TRIPOS>BOND
     1    19    20    1
     2    20    17    1
     3    17    18    2
     4    17     1    1
     5     1     2    2
     6     2    23    1
     7    23    24    1
     8    24    25   ar
     9    25    26   ar
    10    26    27   ar
    11    27    28   ar
    12     2     3    1
    13     3     4    1
    14     4     5    1
    15     4     6    2
    16     6    21    1
    17    21    22    3
    18     6     7    1
    19     7     9    1
    20     9    10   ar
    21    10    11   ar
    22    11    12   ar
    23    12    13    1
    24    12    14   ar
    25    14    15   ar
    26    15    16    1
    27     7     1    1
    28    15     9   ar
    29    28    24   ar
    30     3     8    1
