@<TRIPOS>MOLECULE
*****
 34 36 0 0 0
SMALL
GASTEIGER

@<TRIPOS>ATOM
      1 C          -6.4503  -18.7804   20.2719 C.ar    1  UNL1        0.1539
      2 C          -7.6250  -19.6611   19.9642 C.ar    1  UNL1        0.1013
      3 C          -7.1024  -21.0142   19.5823 C.ar    1  UNL1        0.0865
      4 C          -7.9317  -22.2030   19.1964 C.3     1  UNL1        0.0542
      5 N          -5.6047  -20.9699   19.6539 N.ar    1  UNL1       -0.1681
      6 N          -5.2017  -19.5893   20.0802 N.ar    1  UNL1       -0.2150
      7 C          -3.7969  -19.1030   20.2796 C.ar    1  UNL1        0.0842
      8 C          -3.1272  -18.2870   19.2139 C.ar    1  UNL1        0.0192
      9 C          -1.7224  -17.8007   19.4133 C.ar    1  UNL1        0.0015
     10 C          -0.9871  -18.1304   20.6786 C.ar    1  UNL1        0.0001
     11 C          -1.6567  -18.9463   21.7443 C.ar    1  UNL1        0.0015
     12 C          -3.0616  -19.4326   21.5448 C.ar    1  UNL1        0.0192
     13 C          -9.0687  -19.2591   20.0273 C.2     1  UNL1        0.2498
     14 O         -10.0010  -19.6338   18.9135 O.2     1  UNL1       -0.2700
     15 N          -9.5802  -18.4824   21.2042 N.am    1  UNL1       -0.3024
     16 H          -8.9684  -18.2365   21.9352 H       1  UNL1        0.1497
     17 C         -11.0240  -18.0804   21.2674 C.3     1  UNL1        0.0718
     18 C         -11.7010  -17.5220   20.0509 C.3     1  UNL1        0.0213
     19 C         -11.7907  -18.2368   22.5471 C.3     1  UNL1        0.0165
     20 C         -12.4708  -16.9228   22.3003 C.3     1  UNL1        0.0016
     21 C         -11.1106  -19.5508   22.7940 C.3     1  UNL1        0.0016
     22 C         -12.5574  -18.3932   23.8269 C.3     1  UNL1        0.0016
     23 N          -6.5133  -17.3432   20.6967 N.pl3   1  UNL1       -0.1987
     24 H          -6.3042  -16.6296   20.0516 H       1  UNL1        0.1753
     25 S          -6.8947  -16.9934   22.1046 S.O2    1  UNL1        0.0747
     26 O          -8.0370  -16.1685   21.5901 O.2     1  UNL1       -0.1499
     27 O          -5.7524  -17.8182   22.6191 O.2     1  UNL1       -0.1499
     28 C          -8.4208  -15.5939   27.7360 C.3     1  UNL1        0.0310
     29 C          -8.0393  -15.9437   26.3282 C.ar    1  UNL1       -0.0218
     30 C          -8.9958  -16.7053   25.4591 C.ar    1  UNL1       -0.0029
     31 C          -8.6142  -17.0551   24.0513 C.ar    1  UNL1        0.0199
     32 C          -7.2762  -16.6435   23.5125 C.ar    1  UNL1        0.1252
     33 C          -6.3198  -15.8819   24.3815 C.ar    1  UNL1        0.0199
     34 C          -6.7013  -15.5321   25.7894 C.ar    1  UNL1       -0.0029
@<TRIPOS>BOND
     1    28    29    1
     2    29    30   ar
     3    30    31   ar
     4    31    32   ar
     5    32    25    1
     6    25    26    2
     7    25    27    2
     8    25    23    1
     9    23     1    1
    10     1     2   ar
    11     2    13    1
    12    13    14    2
    13    13    15   am
    14    15    17    1
    15    17    18    1
    16    17    19    1
    17    19    20    1
    18    19    21    1
    19    19    22    1
    20     2     3   ar
    21     3     4    1
    22     3     5   ar
    23     5     6   ar
    24     6     7    1
    25     7     8   ar
    26     8     9   ar
    27     9    10   ar
    28    10    11   ar
    29    11    12   ar
    30    32    33   ar
    31    33    34   ar
    32    34    29   ar
    33     6     1   ar
    34    12     7   ar
    35    23    24    1
    36    15    16    1
@<TRIPOS>MOLECULE
*****
 34 36 0 0 0
SMALL
GASTEIGER

@<TRIPOS>ATOM
      1 C           6.8516   -3.1063   23.2649 C.ar    1  UNL1        0.1539
      2 C           7.3123   -3.9493   24.4170 C.ar    1  UNL1        0.1013
      3 C           7.7477   -5.2781   23.8742 C.ar    1  UNL1        0.0865
      4 C           8.2810   -6.4268   24.6779 C.3     1  UNL1        0.0542
      5 N           7.5562   -5.2565   22.3866 N.ar    1  UNL1       -0.1681
      6 N           7.0024   -3.9142   22.0101 N.ar    1  UNL1       -0.2150
      7 C           6.6595   -3.4597   20.6223 C.ar    1  UNL1        0.0842
      8 C           5.3539   -3.8615   20.0026 C.ar    1  UNL1        0.0192
      9 C           5.0110   -3.4070   18.6149 C.ar    1  UNL1        0.0015
     10 C           5.9738   -2.5507   17.8468 C.ar    1  UNL1        0.0001
     11 C           7.2794   -2.1489   18.4665 C.ar    1  UNL1        0.0015
     12 C           7.6222   -2.6034   19.8543 C.ar    1  UNL1        0.0192
     13 C           7.3337   -3.5359   25.8588 C.2     1  UNL1        0.2498
     14 O           8.5045   -2.7722   26.4028 O.2     1  UNL1       -0.2700
     15 N           6.1842   -3.8863   26.7566 N.am    1  UNL1       -0.3024
     16 H           5.4158   -4.3875   26.3996 H       1  UNL1        0.1497
     17 C           6.2056   -3.4729   28.1983 C.3     1  UNL1        0.0718
     18 C           5.8281   -2.0730   28.5829 C.3     1  UNL1        0.0213
     19 C           6.6043   -4.4595   29.2556 C.3     1  UNL1        0.0165
     20 C           6.3071   -5.5886   28.3140 C.3     1  UNL1        0.0016
     21 C           6.9015   -3.3303   30.1972 C.3     1  UNL1        0.0016
     22 C           7.0031   -5.4460   30.3129 C.3     1  UNL1        0.0016
     23 N           6.3315   -1.7021   23.3523 N.pl3   1  UNL1       -0.1987
     24 H           6.6697   -1.0944   24.0492 H       1  UNL1        0.1753
     25 S           5.2962   -1.2238   22.3780 S.O2    1  UNL1        0.0747
     26 O           6.2838   -0.2503   21.8065 O.2     1  UNL1       -0.1499
     27 O           4.3086   -2.1974   22.9496 O.2     1  UNL1       -0.1499
     28 C           1.1549    0.6895   18.4808 C.3     1  UNL1        0.0310
     29 C           2.1902    0.2112   19.4551 C.ar    1  UNL1       -0.0218
     30 C           1.7892   -0.6611   20.6077 C.ar    1  UNL1       -0.0029
     31 C           2.8245   -1.1394   21.5820 C.ar    1  UNL1        0.0199
     32 C           4.2609   -0.7455   21.4037 C.ar    1  UNL1        0.1252
     33 C           4.6619    0.1267   20.2512 C.ar    1  UNL1        0.0199
     34 C           3.6265    0.6051   19.2768 C.ar    1  UNL1       -0.0029
@<TRIPOS>BOND
     1    28    29    1
     2    29    30   ar
     3    30    31   ar
     4    31    32   ar
     5    32    25    1
     6    25    26    2
     7    25    27    2
     8    25    23    1
     9    23     1    1
    10     1     2   ar
    11     2    13    1
    12    13    14    2
    13    13    15   am
    14    15    17    1
    15    17    18    1
    16    17    19    1
    17    19    20    1
    18    19    21    1
    19    19    22    1
    20     2     3   ar
    21     3     4    1
    22     3     5   ar
    23     5     6   ar
    24     6     7    1
    25     7     8   ar
    26     8     9   ar
    27     9    10   ar
    28    10    11   ar
    29    11    12   ar
    30    32    33   ar
    31    33    34   ar
    32    34    29   ar
    33     6     1   ar
    34    12     7   ar
    35    23    24    1
    36    15    16    1
@<TRIPOS>MOLECULE
*****
 34 36 0 0 0
SMALL
GASTEIGER

@<TRIPOS>ATOM
      1 C          -0.5114    3.0723   20.4907 C.ar    1  UNL1        0.1539
      2 C           0.3518    3.6620   21.5666 C.ar    1  UNL1        0.1013
      3 C           0.2266    5.1551   21.4949 C.ar    1  UNL1        0.0865
      4 C           0.9201    6.1417   22.3867 C.3     1  UNL1        0.0542
      5 N          -0.7139    5.4882   20.3748 N.ar    1  UNL1       -0.1681
      6 N          -1.1700    4.2009   19.7542 N.ar    1  UNL1       -0.2150
      7 C          -2.1181    4.0660   18.5997 C.ar    1  UNL1        0.0842
      8 C          -3.5926    3.9504   18.8498 C.ar    1  UNL1        0.0192
      9 C          -4.5408    3.8155   17.6955 C.ar    1  UNL1        0.0015
     10 C          -4.0145    3.7962   16.2909 C.ar    1  UNL1        0.0001
     11 C          -2.5400    3.9119   16.0408 C.ar    1  UNL1        0.0015
     12 C          -1.5918    4.0467   17.1953 C.ar    1  UNL1        0.0192
     13 C           1.1924    2.8935   22.5426 C.2     1  UNL1        0.2498
     14 O           2.6508    3.2117   22.6897 O.2     1  UNL1       -0.2700
     15 N           0.5746    1.8068   23.3717 N.am    1  UNL1       -0.3024
     16 H          -0.3827    1.5979   23.2752 H       1  UNL1        0.1497
     17 C           1.4151    1.0382   24.3478 C.3     1  UNL1        0.0718
     18 C           2.4042    0.0257   23.8513 C.3     1  UNL1        0.0213
     19 C           1.2666    1.2822   25.8203 C.3     1  UNL1        0.0165
     20 C          -0.2213    1.3762   25.6547 C.3     1  UNL1        0.0016
     21 C           2.7544    1.1882   25.9860 C.3     1  UNL1        0.0016
     22 C           1.1181    1.5262   27.2930 C.3     1  UNL1        0.0016
     23 N          -0.6853    1.6106   20.2022 N.pl3   1  UNL1       -0.1987
     24 H          -1.5740    1.1951   20.2842 H       1  UNL1        0.1753
     25 S           0.4948    0.7822   19.7887 S.O2    1  UNL1        0.0747
     26 O           0.7154    1.6844   18.6108 O.2     1  UNL1       -0.1499
     27 O           0.2742   -0.1200   20.9665 O.2     1  UNL1       -0.1499
     28 C           5.2153   -2.5314   18.1343 C.3     1  UNL1        0.0310
     29 C           4.0352   -1.7031   18.5479 C.ar    1  UNL1       -0.0218
     30 C           3.5917   -0.5511   17.6956 C.ar    1  UNL1       -0.0029
     31 C           2.4116    0.2772   18.1091 C.ar    1  UNL1        0.0199
     32 C           1.6749   -0.0462   19.3751 C.ar    1  UNL1        0.1252
     33 C           2.1183   -1.1981   20.2275 C.ar    1  UNL1        0.0199
     34 C           3.2985   -2.0265   19.8139 C.ar    1  UNL1       -0.0029
@<TRIPOS>BOND
     1    28    29    1
     2    29    30   ar
     3    30    31   ar
     4    31    32   ar
     5    32    25    1
     6    25    26    2
     7    25    27    2
     8    25    23    1
     9    23     1    1
    10     1     2   ar
    11     2    13    1
    12    13    14    2
    13    13    15   am
    14    15    17    1
    15    17    18    1
    16    17    19    1
    17    19    20    1
    18    19    21    1
    19    19    22    1
    20     2     3   ar
    21     3     4    1
    22     3     5   ar
    23     5     6   ar
    24     6     7    1
    25     7     8   ar
    26     8     9   ar
    27     9    10   ar
    28    10    11   ar
    29    11    12   ar
    30    32    33   ar
    31    33    34   ar
    32    34    29   ar
    33     6     1   ar
    34    12     7   ar
    35    23    24    1
    36    15    16    1
@<TRIPOS>MOLECULE
*****
 34 36 0 0 0
SMALL
GASTEIGER

@<TRIPOS>ATOM
      1 C           7.3498   -3.7184   22.9194 C.ar    1  UNL1        0.1539
      2 C           7.8161   -4.8504   23.7864 C.ar    1  UNL1        0.1013
      3 C           8.2986   -5.9523   22.8902 C.ar    1  UNL1        0.0865
      4 C           8.8520   -7.2730   23.3365 C.3     1  UNL1        0.0542
      5 N           8.1305   -5.5014   21.4694 N.ar    1  UNL1       -0.1681
      6 N           7.5441   -4.1208   21.4875 N.ar    1  UNL1       -0.2150
      7 C           7.2106   -3.2888   20.2849 C.ar    1  UNL1        0.0842
      8 C           6.0514   -3.6653   19.4104 C.ar    1  UNL1        0.0192
      9 C           5.7178   -2.8333   18.2078 C.ar    1  UNL1        0.0015
     10 C           6.5435   -1.6247   17.8795 C.ar    1  UNL1        0.0001
     11 C           7.7027   -1.2483   18.7539 C.ar    1  UNL1        0.0015
     12 C           8.0362   -2.0803   19.9566 C.ar    1  UNL1        0.0192
     13 C           7.8023   -4.8758   25.2860 C.2     1  UNL1        0.2498
     14 O           8.3492   -3.7137   26.0610 O.2     1  UNL1       -0.2700
     15 N           7.2417   -6.0633   26.0109 N.am    1  UNL1       -0.3024
     16 H           6.8827   -6.8260   25.5023 H       1  UNL1        0.1497
     17 C           7.2278   -6.0888   27.5106 C.3     1  UNL1        0.0718
     18 C           6.1942   -5.3058   28.2646 C.3     1  UNL1        0.0213
     19 C           8.2477   -6.8974   28.2564 C.3     1  UNL1        0.0165
     20 C           8.0891   -8.0118   27.2650 C.3     1  UNL1        0.0016
     21 C           8.4062   -5.7829   29.2478 C.3     1  UNL1        0.0016
     22 C           9.2676   -7.7059   29.0023 C.3     1  UNL1        0.0016
     23 N           6.7879   -2.4134   23.4001 N.pl3   1  UNL1       -0.1987
     24 H           7.2593   -1.9010   24.0961 H       1  UNL1        0.1753
     25 S           5.5078   -1.8890   22.8202 S.O2    1  UNL1        0.0747
     26 O           4.8098   -3.1567   23.2148 O.2     1  UNL1       -0.1499
     27 O           6.2058   -0.6214   22.4256 O.2     1  UNL1       -0.1499
     28 C           0.3871    0.2083   20.5007 C.3     1  UNL1        0.0310
     29 C           1.6672   -0.3160   21.0806 C.ar    1  UNL1       -0.0218
     30 C           2.1650    0.2075   22.3952 C.ar    1  UNL1       -0.0029
     31 C           3.4452   -0.3169   22.9750 C.ar    1  UNL1        0.0199
     32 C           4.2276   -1.3647   22.2403 C.ar    1  UNL1        0.1252
     33 C           3.7298   -1.8882   20.9257 C.ar    1  UNL1        0.0199
     34 C           2.4496   -1.3639   20.3458 C.ar    1  UNL1       -0.0029
@<TRIPOS>BOND
     1    28    29    1
     2    29    30   ar
     3    30    31   ar
     4    31    32   ar
     5    32    25    1
     6    25    26    2
     7    25    27    2
     8    25    23    1
     9    23     1    1
    10     1     2   ar
    11     2    13    1
    12    13    14    2
    13    13    15   am
    14    15    17    1
    15    17    18    1
    16    17    19    1
    17    19    20    1
    18    19    21    1
    19    19    22    1
    20     2     3   ar
    21     3     4    1
    22     3     5   ar
    23     5     6   ar
    24     6     7    1
    25     7     8   ar
    26     8     9   ar
    27     9    10   ar
    28    10    11   ar
    29    11    12   ar
    30    32    33   ar
    31    33    34   ar
    32    34    29   ar
    33     6     1   ar
    34    12     7   ar
    35    23    24    1
    36    15    16    1
@<TRIPOS>MOLECULE
*****
 34 36 0 0 0
SMALL
GASTEIGER

@<TRIPOS>ATOM
      1 C           4.4503   -1.8799   20.7887 C.ar    1  UNL1        0.1539
      2 C           5.0679   -3.2401   20.6526 C.ar    1  UNL1        0.1013
      3 C           4.3221   -3.9831   19.5841 C.ar    1  UNL1        0.0865
      4 C           4.6052   -5.3815   19.1212 C.3     1  UNL1        0.0542
      5 N           3.2434   -3.0822   19.0598 N.ar    1  UNL1       -0.1681
      6 N           3.3227   -1.7823   19.8043 N.ar    1  UNL1       -0.2150
      7 C           2.4309   -0.5936   19.6002 C.ar    1  UNL1        0.0842
      8 C           2.8951    0.5561   18.7560 C.ar    1  UNL1        0.0192
      9 C           2.0034    1.7448   18.5519 C.ar    1  UNL1        0.0015
     10 C           0.6473    1.7838   19.1920 C.ar    1  UNL1        0.0001
     11 C           0.1830    0.6340   20.0362 C.ar    1  UNL1        0.0015
     12 C           1.0748   -0.5547   20.2403 C.ar    1  UNL1        0.0192
     13 C           6.2278   -3.7650   21.4458 C.2     1  UNL1        0.2498
     14 O           7.2476   -4.6474   20.7890 O.2     1  UNL1       -0.2700
     15 N           6.3679   -3.4076   22.8959 N.am    1  UNL1       -0.3024
     16 H           5.6985   -2.8284   23.3269 H       1  UNL1        0.1497
     17 C           7.5277   -3.9324   23.6891 C.3     1  UNL1        0.0718
     18 C           8.9248   -3.5082   23.3453 C.3     1  UNL1        0.0213
     19 C           7.2905   -4.8815   24.8262 C.3     1  UNL1        0.0165
     20 C           7.9493   -5.9805   24.0463 C.3     1  UNL1        0.0016
     21 C           6.6316   -3.7826   25.6060 C.3     1  UNL1        0.0016
     22 C           7.0532   -5.8306   25.9633 C.3     1  UNL1        0.0016
     23 N           4.8840   -0.8060   21.7418 N.pl3   1  UNL1       -0.1987
     24 H           5.7894   -0.4250   21.6753 H       1  UNL1        0.1753
     25 S           3.9383   -0.3125   22.7964 S.O2    1  UNL1        0.0747
     26 O           3.9507    1.0503   22.1697 O.2     1  UNL1       -0.1499
     27 O           3.9260   -1.6752   23.4231 O.2     1  UNL1       -0.1499
     28 C           0.1556    1.6618   27.0147 C.3     1  UNL1        0.0310
     29 C           1.1013    1.1682   25.9601 C.ar    1  UNL1       -0.0218
     30 C           2.4181    0.5680   26.3550 C.ar    1  UNL1       -0.0029
     31 C           3.3637    0.0745   25.3004 C.ar    1  UNL1        0.0199
     32 C           2.9926    0.1811   23.8510 C.ar    1  UNL1        0.1252
     33 C           1.6759    0.7813   23.4561 C.ar    1  UNL1        0.0199
     34 C           0.7302    1.2748   24.5107 C.ar    1  UNL1       -0.0029
@<TRIPOS>BOND
     1    28    29    1
     2    29    30   ar
     3    30    31   ar
     4    31    32   ar
     5    32    25    1
     6    25    26    2
     7    25    27    2
     8    25    23    1
     9    23     1    1
    10     1     2   ar
    11     2    13    1
    12    13    14    2
    13    13    15   am
    14    15    17    1
    15    17    18    1
    16    17    19    1
    17    19    20    1
    18    19    21    1
    19    19    22    1
    20     2     3   ar
    21     3     4    1
    22     3     5   ar
    23     5     6   ar
    24     6     7    1
    25     7     8   ar
    26     8     9   ar
    27     9    10   ar
    28    10    11   ar
    29    11    12   ar
    30    32    33   ar
    31    33    34   ar
    32    34    29   ar
    33     6     1   ar
    34    12     7   ar
    35    23    24    1
    36    15    16    1
@<TRIPOS>MOLECULE
*****
 34 36 0 0 0
SMALL
GASTEIGER

@<TRIPOS>ATOM
      1 C           2.8041   -0.5522   23.2282 C.ar    1  UNL1        0.1539
      2 C           3.9539   -1.3980   23.6896 C.ar    1  UNL1        0.1013
      3 C           4.1671   -1.1334   25.1505 C.ar    1  UNL1        0.0865
      4 C           5.2144   -1.7669   26.0176 C.3     1  UNL1        0.0542
      5 N           3.1492   -0.1240   25.5922 N.ar    1  UNL1       -0.1681
      6 N           2.3068    0.2352   24.4041 N.ar    1  UNL1       -0.2150
      7 C           1.1672    1.2105   24.3938 C.ar    1  UNL1        0.0842
      8 C           0.1928    1.2375   25.5338 C.ar    1  UNL1        0.0192
      9 C          -0.9468    2.2127   25.5235 C.ar    1  UNL1        0.0015
     10 C          -1.1119    3.1611   24.3731 C.ar    1  UNL1        0.0001
     11 C          -0.1375    3.1341   23.2331 C.ar    1  UNL1        0.0015
     12 C           1.0021    2.1588   23.2434 C.ar    1  UNL1        0.0192
     13 C           4.7505   -2.3426   22.8392 C.2     1  UNL1        0.2498
     14 O           4.3120   -3.7693   22.6902 O.2     1  UNL1       -0.2700
     15 N           5.9856   -1.8605   22.1376 N.am    1  UNL1       -0.3024
     16 H           6.2734   -0.9241   22.2354 H       1  UNL1        0.1497
     17 C           6.7822   -2.8050   21.2872 C.3     1  UNL1        0.0718
     18 C           7.4443   -3.9983   21.9098 C.3     1  UNL1        0.0213
     19 C           6.9168   -2.5561   19.8141 C.3     1  UNL1        0.0165
     20 C           5.7438   -3.4545   19.5552 C.3     1  UNL1        0.0016
     21 C           8.0898   -1.6578   20.0730 C.3     1  UNL1        0.0016
     22 C           7.0514   -2.3073   18.3410 C.3     1  UNL1        0.0016
     23 N           2.2492   -0.5025   21.8355 N.pl3   1  UNL1       -0.1987
     24 H           1.2938   -0.6819   21.6796 H       1  UNL1        0.1753
     25 S           3.1499   -0.1797   20.6804 S.O2    1  UNL1        0.0747
     26 O           2.7050   -1.4312   19.9836 O.2     1  UNL1       -0.1499
     27 O           3.5949    1.0719   21.3772 O.2     1  UNL1       -0.1499
     28 C           6.7530    1.1118   16.0597 C.3     1  UNL1        0.0310
     29 C           5.8522    0.7889   17.2148 C.ar    1  UNL1       -0.0218
     30 C           6.1613    1.3274   18.5803 C.ar    1  UNL1       -0.0029
     31 C           5.2606    1.0046   19.7355 C.ar    1  UNL1        0.0199
     32 C           4.0507    0.1432   19.5252 C.ar    1  UNL1        0.1252
     33 C           3.7416   -0.3953   18.1598 C.ar    1  UNL1        0.0199
     34 C           4.6423   -0.0725   17.0045 C.ar    1  UNL1       -0.0029
@<TRIPOS>BOND
     1    28    29    1
     2    29    30   ar
     3    30    31   ar
     4    31    32   ar
     5    32    25    1
     6    25    26    2
     7    25    27    2
     8    25    23    1
     9    23     1    1
    10     1     2   ar
    11     2    13    1
    12    13    14    2
    13    13    15   am
    14    15    17    1
    15    17    18    1
    16    17    19    1
    17    19    20    1
    18    19    21    1
    19    19    22    1
    20     2     3   ar
    21     3     4    1
    22     3     5   ar
    23     5     6   ar
    24     6     7    1
    25     7     8   ar
    26     8     9   ar
    27     9    10   ar
    28    10    11   ar
    29    11    12   ar
    30    32    33   ar
    31    33    34   ar
    32    34    29   ar
    33     6     1   ar
    34    12     7   ar
    35    23    24    1
    36    15    16    1
@<TRIPOS>MOLECULE
*****
 34 36 0 0 0
SMALL
GASTEIGER

@<TRIPOS>ATOM
      1 C           4.7944   -1.9848   20.5800 C.ar    1  UNL1        0.1539
      2 C           5.4606   -3.3190   20.4185 C.ar    1  UNL1        0.1013
      3 C           4.6533   -4.1255   19.4450 C.ar    1  UNL1        0.0865
      4 C           4.9577   -5.5225   18.9914 C.3     1  UNL1        0.0542
      5 N           3.4880   -3.2898   19.0048 N.ar    1  UNL1       -0.1681
      6 N           3.5752   -1.9667   19.7063 N.ar    1  UNL1       -0.2150
      7 C           2.6124   -0.8259   19.5597 C.ar    1  UNL1        0.0842
      8 C           2.9094    0.2877   18.5997 C.ar    1  UNL1        0.0192
      9 C           1.9467    1.4284   18.4531 C.ar    1  UNL1        0.0015
     10 C           0.6867    1.4556   19.2666 C.ar    1  UNL1        0.0001
     11 C           0.3896    0.3421   20.2267 C.ar    1  UNL1        0.0015
     12 C           1.3524   -0.7987   20.3732 C.ar    1  UNL1        0.0192
     13 C           6.7142   -3.7678   21.1093 C.2     1  UNL1        0.2498
     14 O           7.9869   -3.9192   20.3300 O.2     1  UNL1       -0.2700
     15 N           6.6950   -4.0653   22.5794 N.am    1  UNL1       -0.3024
     16 H           5.8597   -3.9660   23.0908 H       1  UNL1        0.1497
     17 C           7.9485   -4.5141   23.2702 C.3     1  UNL1        0.0718
     18 C           9.1386   -3.6032   23.3311 C.3     1  UNL1        0.0213
     19 C           8.0119   -5.8739   23.9002 C.3     1  UNL1        0.0165
     20 C           8.8238   -6.3728   22.7418 C.3     1  UNL1        0.0016
     21 C           7.1999   -5.3751   25.0586 C.3     1  UNL1        0.0016
     22 C           8.0752   -7.2338   24.5303 C.3     1  UNL1        0.0016
     23 N           5.2648   -0.8652   21.4605 N.pl3   1  UNL1       -0.1987
     24 H           5.5582   -0.0147   21.0609 H       1  UNL1        0.1753
     25 S           5.2880   -1.0416   22.9499 S.O2    1  UNL1        0.0747
     26 O           3.7996   -1.2276   22.9511 O.2     1  UNL1       -0.1499
     27 O           6.7764   -0.8556   22.9487 O.2     1  UNL1       -0.1499
     28 C           5.3809   -1.7472   28.9076 C.3     1  UNL1        0.0310
     29 C           5.3577   -1.5708   27.4182 C.ar    1  UNL1       -0.0218
     30 C           6.6353   -1.6376   26.6350 C.ar    1  UNL1       -0.0029
     31 C           6.6120   -1.4612   25.1456 C.ar    1  UNL1        0.0199
     32 C           5.3112   -1.2180   24.4393 C.ar    1  UNL1        0.1252
     33 C           4.0337   -1.1512   25.2225 C.ar    1  UNL1        0.0199
     34 C           4.0569   -1.3276   26.7119 C.ar    1  UNL1       -0.0029
@<TRIPOS>BOND
     1    28    29    1
     2    29    30   ar
     3    30    31   ar
     4    31    32   ar
     5    32    25    1
     6    25    26    2
     7    25    27    2
     8    25    23    1
     9    23     1    1
    10     1     2   ar
    11     2    13    1
    12    13    14    2
    13    13    15   am
    14    15    17    1
    15    17    18    1
    16    17    19    1
    17    19    20    1
    18    19    21    1
    19    19    22    1
    20     2     3   ar
    21     3     4    1
    22     3     5   ar
    23     5     6   ar
    24     6     7    1
    25     7     8   ar
    26     8     9   ar
    27     9    10   ar
    28    10    11   ar
    29    11    12   ar
    30    32    33   ar
    31    33    34   ar
    32    34    29   ar
    33     6     1   ar
    34    12     7   ar
    35    23    24    1
    36    15    16    1
@<TRIPOS>MOLECULE
*****
 34 36 0 0 0
SMALL
GASTEIGER

@<TRIPOS>ATOM
      1 C          -5.5517  -18.5076   21.0815 C.ar    1  UNL1        0.1539
      2 C          -6.5245  -19.6456   21.1754 C.ar    1  UNL1        0.1013
      3 C          -5.7929  -20.9101   20.8351 C.ar    1  UNL1        0.0865
      4 C          -6.3827  -22.2889   20.8045 C.3     1  UNL1        0.0542
      5 N          -4.3679  -20.5537   20.5309 N.ar    1  UNL1       -0.1681
      6 N          -4.2189  -19.0689   20.6831 N.ar    1  UNL1       -0.2150
      7 C          -2.9583  -18.2833   20.4738 C.ar    1  UNL1        0.0842
      8 C          -2.1283  -18.5104   19.2452 C.ar    1  UNL1        0.0192
      9 C          -0.8678  -17.7249   19.0358 C.ar    1  UNL1        0.0015
     10 C          -0.4372  -16.7121   20.0551 C.ar    1  UNL1        0.0001
     11 C          -1.2672  -16.4849   21.2837 C.ar    1  UNL1        0.0015
     12 C          -2.5278  -17.2705   21.4931 C.ar    1  UNL1        0.0192
     13 C          -7.9742  -19.5379   21.5448 C.2     1  UNL1        0.2498
     14 O          -8.4698  -20.1465   22.8231 O.2     1  UNL1       -0.2700
     15 N          -8.9286  -18.8215   20.6359 N.am    1  UNL1       -0.3024
     16 H          -8.6033  -18.4221   19.7969 H       1  UNL1        0.1497
     17 C         -10.3784  -18.7137   21.0052 C.3     1  UNL1        0.0718
     18 C         -11.2521  -19.9327   20.9772 C.3     1  UNL1        0.0213
     19 C         -10.9545  -17.3870   21.4025 C.3     1  UNL1        0.0165
     20 C         -11.0842  -17.8670   22.8176 C.3     1  UNL1        0.0016
     21 C         -10.8248  -16.9069   19.9873 C.3     1  UNL1        0.0016
     22 C         -11.5306  -16.0601   21.7997 C.3     1  UNL1        0.0016
     23 N          -5.8579  -17.0623   21.3404 N.pl3   1  UNL1       -0.1987
     24 H          -5.7087  -16.3932   20.6338 H       1  UNL1        0.1753
     25 S          -6.3915  -16.6363   22.6760 S.O2    1  UNL1        0.0747
     26 O          -7.6849  -16.2348   22.0312 O.2     1  UNL1       -0.1499
     27 O          -5.0981  -17.0378   23.3208 O.2     1  UNL1       -0.1499
     28 C          -8.5263  -14.9325   28.0183 C.3     1  UNL1        0.0310
     29 C          -7.9926  -15.3584   26.6828 C.ar    1  UNL1       -0.0218
     30 C          -8.9396  -15.7316   25.5810 C.ar    1  UNL1       -0.0029
     31 C          -8.4059  -16.1576   24.2454 C.ar    1  UNL1        0.0199
     32 C          -6.9252  -16.2103   24.0116 C.ar    1  UNL1        0.1252
     33 C          -5.9782  -15.8372   25.1134 C.ar    1  UNL1        0.0199
     34 C          -6.5118  -15.4112   26.4490 C.ar    1  UNL1       -0.0029
@<TRIPOS>BOND
     1    28    29    1
     2    29    30   ar
     3    30    31   ar
     4    31    32   ar
     5    32    25    1
     6    25    26    2
     7    25    27    2
     8    25    23    1
     9    23     1    1
    10     1     2   ar
    11     2    13    1
    12    13    14    2
    13    13    15   am
    14    15    17    1
    15    17    18    1
    16    17    19    1
    17    19    20    1
    18    19    21    1
    19    19    22    1
    20     2     3   ar
    21     3     4    1
    22     3     5   ar
    23     5     6   ar
    24     6     7    1
    25     7     8   ar
    26     8     9   ar
    27     9    10   ar
    28    10    11   ar
    29    11    12   ar
    30    32    33   ar
    31    33    34   ar
    32    34    29   ar
    33     6     1   ar
    34    12     7   ar
    35    23    24    1
    36    15    16    1
@<TRIPOS>MOLECULE
*****
 34 36 0 0 0
SMALL
GASTEIGER

@<TRIPOS>ATOM
      1 C           6.5440   -3.6721   21.3808 C.ar    1  UNL1        0.1539
      2 C           7.0875   -2.9298   20.1960 C.ar    1  UNL1        0.1013
      3 C           8.5850   -2.9900   20.2583 C.ar    1  UNL1        0.0865
      4 C           9.5338   -2.3781   19.2708 C.3     1  UNL1        0.0542
      5 N           8.9671   -3.7696   21.4816 N.ar    1  UNL1       -0.1681
      6 N           7.7056   -4.1911   22.1753 N.ar    1  UNL1       -0.2150
      7 C           7.6208   -4.9912   23.4413 C.ar    1  UNL1        0.0842
      8 C           6.9960   -4.3924   24.6665 C.ar    1  UNL1        0.0192
      9 C           6.9111   -5.1924   25.9324 C.ar    1  UNL1        0.0015
     10 C           7.4510   -6.5914   25.9732 C.ar    1  UNL1        0.0001
     11 C           8.0758   -7.1902   24.7479 C.ar    1  UNL1        0.0015
     12 C           8.1606   -6.3901   23.4820 C.ar    1  UNL1        0.0192
     13 C           6.2759   -2.2471   19.1352 C.2     1  UNL1        0.2498
     14 O           5.9742   -2.9569   17.8487 O.2     1  UNL1       -0.2700
     15 N           5.7660   -0.8546   19.3609 N.am    1  UNL1       -0.3024
     16 H           5.9641   -0.3887   20.2053 H       1  UNL1        0.1497
     17 C           4.9545   -0.1718   18.3002 C.3     1  UNL1        0.0718
     18 C           3.7859   -0.8781   17.6791 C.3     1  UNL1        0.0213
     19 C           5.3114    1.2171   17.8606 C.3     1  UNL1        0.0165
     20 C           4.4603    1.7833   18.9583 C.3     1  UNL1        0.0016
     21 C           6.1626    0.6509   16.7629 C.3     1  UNL1        0.0016
     22 C           5.6684    2.6062   17.4208 C.3     1  UNL1        0.0016
     23 N           5.0936   -3.8621   21.7127 N.pl3   1  UNL1       -0.1987
     24 H           4.7187   -4.7699   21.7797 H       1  UNL1        0.1753
     25 S           4.2143   -2.6688   21.9425 S.O2    1  UNL1        0.0747
     26 O           3.5880   -2.8706   20.5946 O.2     1  UNL1       -0.1499
     27 O           4.8406   -2.4669   23.2904 O.2     1  UNL1       -0.1499
     28 C           0.6971    2.1046   22.8616 C.3     1  UNL1        0.0310
     29 C           1.5764    0.9113   22.6318 C.ar    1  UNL1       -0.0218
     30 C           1.6389    0.2759   21.2744 C.ar    1  UNL1       -0.0029
     31 C           2.5182   -0.9174   21.0447 C.ar    1  UNL1        0.0199
     32 C           3.3350   -1.4754   22.1723 C.ar    1  UNL1        0.1252
     33 C           3.2725   -0.8401   23.5296 C.ar    1  UNL1        0.0199
     34 C           2.3931    0.3533   23.7594 C.ar    1  UNL1       -0.0029
@<TRIPOS>BOND
     1    28    29    1
     2    29    30   ar
     3    30    31   ar
     4    31    32   ar
     5    32    25    1
     6    25    26    2
     7    25    27    2
     8    25    23    1
     9    23     1    1
    10     1     2   ar
    11     2    13    1
    12    13    14    2
    13    13    15   am
    14    15    17    1
    15    17    18    1
    16    17    19    1
    17    19    20    1
    18    19    21    1
    19    19    22    1
    20     2     3   ar
    21     3     4    1
    22     3     5   ar
    23     5     6   ar
    24     6     7    1
    25     7     8   ar
    26     8     9   ar
    27     9    10   ar
    28    10    11   ar
    29    11    12   ar
    30    32    33   ar
    31    33    34   ar
    32    34    29   ar
    33     6     1   ar
    34    12     7   ar
    35    23    24    1
    36    15    16    1
