@<TRIPOS>MOLECULE
*****
 43 48 0 0 0
SMALL
GASTEIGER

@<TRIPOS>ATOM
      1 N           7.2169   -4.0086   22.9894 N.pl3   1  UNL1       -0.2801
      2 H           7.9083   -3.9137   22.2950 H       1  UNL1        0.1552
      3 C           5.2181   -2.8313   21.8193 C.ar    1  UNL1        0.1477
      4 C           6.0657   -3.0481   23.0377 C.ar    1  UNL1        0.0846
      5 C           5.7622   -2.3045   24.3046 C.ar    1  UNL1        0.0174
      6 C           4.6111   -1.3439   24.3530 C.ar    1  UNL1       -0.0031
      7 C           3.7634   -1.1271   23.1345 C.ar    1  UNL1       -0.0218
      8 C           4.0670   -1.8708   21.8678 C.ar    1  UNL1        0.0091
      9 C           3.3540   -1.8030   20.5497 C.3     1  UNL1        0.0292
     10 C           2.1613   -0.9748   20.1731 C.3     1  UNL1        0.0062
     11 C           1.3873   -0.0099   21.0214 C.3     1  UNL1        0.0166
     12 C           1.6145    0.3652   22.4558 C.3     1  UNL1        0.0619
     13 C           2.6720   -0.1320   23.3963 C.3     1  UNL1        0.0421
     14 N           0.6577    1.3704   23.0251 N.3     1  UNL1       -0.2713
     15 C           0.3812    1.3916   24.4993 C.3     1  UNL1        0.0896
     16 C          -0.5756    2.3969   25.0685 C.3     1  UNL1        0.0897
     17 N          -1.2559    3.3809   24.1637 N.3     1  UNL1       -0.2691
     18 C          -2.2126    4.3861   24.7329 C.3     1  UNL1        0.0897
     19 C          -0.9794    3.3598   22.6895 C.3     1  UNL1        0.0897
     20 C          -0.0225    2.3545   22.1202 C.3     1  UNL1        0.0896
     21 C           6.5965   -3.0795   19.6311 C.3     1  UNL1        0.2525
     22 O           5.5216   -3.5749   20.5525 O.3     1  UNL1       -0.4705
     23 C           7.3144   -5.1137   23.9990 C.ar    1  UNL1        0.2219
     24 N           8.0434   -6.3794   23.6575 N.ar    1  UNL1       -0.2110
     25 C           8.1410   -7.4845   24.6670 C.ar    1  UNL1        0.1160
     26 C           7.5096   -7.3238   26.0182 C.ar    1  UNL1        0.1082
     27 CL          7.6072   -8.4289   27.0278 Cl      1  UNL1       -0.0777
     28 C           6.7806   -6.0581   26.3598 C.ar    1  UNL1        0.1435
     29 N           6.6830   -4.9530   25.3502 N.ar    1  UNL1       -0.1979
     30 N           6.1492   -5.8974   27.7109 N.pl3   1  UNL1       -0.3181
     31 H           5.6003   -6.6229   28.0871 H       1  UNL1        0.1482
     32 C           6.3541   -4.6314   28.4887 C.3     1  UNL1        0.0832
     33 C           6.9064   -4.5308   29.8797 C.3     1  UNL1        0.0984
     34 C           6.9364   -3.0809   30.2629 C.3     1  UNL1        0.0323
     35 C           6.6250   -1.6931   29.7863 C.2     1  UNL1       -0.0304
     36 C           6.0727   -1.7937   28.3953 C.2     1  UNL1       -0.0294
     37 C           6.0427   -3.2436   28.0122 C.3     1  UNL1        0.0404
     38 C           6.5766   -4.0391   29.1664 C.3     1  UNL1        0.0109
     39 C           7.3508   -5.6787   30.7371 C.2     1  UNL1        0.2208
     40 N           6.6673   -5.9463   32.0452 N.am    1  UNL1       -0.3288
     41 O           8.4787   -6.5588   30.2863 O.2     1  UNL1       -0.2753
     42 H           5.9270   -5.3687   32.3410 H       1  UNL1        0.1449
     43 H           6.9589   -6.6997   32.6079 H       1  UNL1        0.1449
@<TRIPOS>BOND
     1    21    22    1
     2    22     3    1
     3     3     4   ar
     4     4     1    1
     5     1    23    1
     6    23    24   ar
     7    24    25   ar
     8    25    26   ar
     9    26    27    1
    10    26    28   ar
    11    28    30    1
    12    32    30    1
    13    32    33    1
    14    33    39    1
    15    39    40   am
    16    39    41    2
    17    33    34    1
    18    34    35    1
    19    35    36    2
    20    37    36    1
    21    37    38    1
    22    28    29   ar
    23     4     5   ar
    24     5     6   ar
    25     6     7   ar
    26     7     8   ar
    27     8     9    1
    28     9    10    1
    29    10    11    1
    30    11    12    1
    31    12    14    1
    32    14    15    1
    33    15    16    1
    34    16    17    1
    35    17    18    1
    36    17    19    1
    37    19    20    1
    38    12    13    1
    39     8     3   ar
    40    20    14    1
    41    29    23   ar
    42    13     7    1
    43    37    32    1
    44    38    34    1
    45     1     2    1
    46    30    31    1
    47    40    42    1
    48    40    43    1
@<TRIPOS>MOLECULE
*****
 43 48 0 0 0
SMALL
GASTEIGER

@<TRIPOS>ATOM
      1 N           7.4852   -5.6835   24.6621 N.pl3   1  UNL1       -0.2801
      2 H           7.5048   -6.6662   24.6070 H       1  UNL1        0.1552
      3 C           7.3958   -5.7580   27.2576 C.ar    1  UNL1        0.1477
      4 C           7.1980   -5.0112   25.9718 C.ar    1  UNL1        0.0846
      5 C           6.7129   -3.5920   25.9958 C.ar    1  UNL1        0.0174
      6 C           6.4257   -2.9196   27.3056 C.ar    1  UNL1       -0.0031
      7 C           6.6235   -3.6665   28.5914 C.ar    1  UNL1       -0.0218
      8 C           7.1086   -5.0856   28.5673 C.ar    1  UNL1        0.0091
      9 C           7.3707   -6.0042   29.7239 C.3     1  UNL1        0.0292
     10 C           7.2124   -5.7303   31.1902 C.3     1  UNL1        0.0062
     11 C           6.7530   -4.4704   31.8619 C.3     1  UNL1        0.0166
     12 C           6.3383   -3.1730   31.2335 C.3     1  UNL1        0.0619
     13 C           6.2807   -2.8152   29.7779 C.3     1  UNL1        0.0421
     14 N           5.9269   -2.0903   32.1865 N.3     1  UNL1       -0.2713
     15 C           6.5915   -0.7468   32.1276 C.3     1  UNL1        0.0896
     16 C           6.1801    0.3360   33.0807 C.3     1  UNL1        0.0897
     17 N           5.1040    0.0753   34.0928 N.3     1  UNL1       -0.2691
     18 C           4.6926    1.1580   35.0458 C.3     1  UNL1        0.0897
     19 C           4.4394   -1.2682   34.1517 C.3     1  UNL1        0.0897
     20 C           4.8509   -2.3510   33.1985 C.3     1  UNL1        0.0896
     21 C           9.3486   -7.4664   27.1236 C.3     1  UNL1        0.2525
     22 O           7.8809   -7.1772   27.2336 O.3     1  UNL1       -0.4705
     23 C           7.7426   -4.8583   23.4361 C.ar    1  UNL1        0.2219
     24 N           9.0853   -4.2228   23.2280 N.ar    1  UNL1       -0.2110
     25 C           9.3427   -3.3977   22.0021 C.ar    1  UNL1        0.1160
     26 C           8.2574   -3.2080   20.9842 C.ar    1  UNL1        0.1082
     27 CL          8.5147   -2.3829   19.7583 Cl      1  UNL1       -0.0777
     28 C           6.9146   -3.8435   21.1923 C.ar    1  UNL1        0.1435
     29 N           6.6572   -4.6687   22.4182 N.ar    1  UNL1       -0.1979
     30 N           5.8292   -3.6539   20.1744 N.pl3   1  UNL1       -0.3181
     31 H           5.7864   -4.2411   19.3854 H       1  UNL1        0.1482
     32 C           4.8092   -2.5698   20.3588 C.3     1  UNL1        0.0832
     33 C           4.2819   -1.6636   19.2860 C.3     1  UNL1        0.0984
     34 C           3.2841   -0.7352   19.9125 C.3     1  UNL1        0.0323
     35 C           2.6122   -0.3669   21.2020 C.2     1  UNL1       -0.0304
     36 C           3.1395   -1.2730   22.2748 C.2     1  UNL1       -0.0294
     37 C           4.1373   -2.2014   21.6483 C.3     1  UNL1        0.0404
     38 C           4.2267   -1.8690   20.1883 C.3     1  UNL1        0.0109
     39 C           4.6821   -1.6826   17.8405 C.2     1  UNL1        0.2208
     40 N           3.6886   -1.3045   16.7822 N.am    1  UNL1       -0.3288
     41 O           6.0758   -2.0795   17.4533 O.2     1  UNL1       -0.2753
     42 H           2.7738   -1.0440   17.0363 H       1  UNL1        0.1449
     43 H           3.9512   -1.3169   15.8335 H       1  UNL1        0.1449
@<TRIPOS>BOND
     1    21    22    1
     2    22     3    1
     3     3     4   ar
     4     4     1    1
     5     1    23    1
     6    23    24   ar
     7    24    25   ar
     8    25    26   ar
     9    26    27    1
    10    26    28   ar
    11    28    30    1
    12    32    30    1
    13    32    33    1
    14    33    39    1
    15    39    40   am
    16    39    41    2
    17    33    34    1
    18    34    35    1
    19    35    36    2
    20    37    36    1
    21    37    38    1
    22    28    29   ar
    23     4     5   ar
    24     5     6   ar
    25     6     7   ar
    26     7     8   ar
    27     8     9    1
    28     9    10    1
    29    10    11    1
    30    11    12    1
    31    12    14    1
    32    14    15    1
    33    15    16    1
    34    16    17    1
    35    17    18    1
    36    17    19    1
    37    19    20    1
    38    12    13    1
    39     8     3   ar
    40    20    14    1
    41    29    23   ar
    42    13     7    1
    43    37    32    1
    44    38    34    1
    45     1     2    1
    46    30    31    1
    47    40    42    1
    48    40    43    1
@<TRIPOS>MOLECULE
*****
 43 48 0 0 0
SMALL
GASTEIGER

@<TRIPOS>ATOM
      1 N         -18.4561    1.3374   19.7816 N.pl3   1  UNL1       -0.2801
      2 H         -19.0468    1.5308   19.0181 H       1  UNL1        0.1552
      3 C         -15.9972    0.8854   19.0747 C.ar    1  UNL1        0.1477
      4 C         -17.3047    0.3901   19.6180 C.ar    1  UNL1        0.0846
      5 C         -17.4609   -1.0527   19.9977 C.ar    1  UNL1        0.0174
      6 C         -16.3095   -2.0001   19.8341 C.ar    1  UNL1       -0.0031
      7 C         -15.0020   -1.5047   19.2908 C.ar    1  UNL1       -0.0218
      8 C         -14.8459   -0.0621   18.9112 C.ar    1  UNL1        0.0091
      9 C         -13.6386    0.6335   18.3553 C.3     1  UNL1        0.0292
     10 C         -12.2893    0.0579   18.0419 C.3     1  UNL1        0.0062
     11 C         -11.8141   -1.3551   18.2069 C.3     1  UNL1        0.0166
     12 C         -12.5707   -2.5418   18.7261 C.3     1  UNL1        0.0619
     13 C         -13.9894   -2.6084   19.2084 C.3     1  UNL1        0.0421
     14 N         -11.8076   -3.8325   18.7685 N.3     1  UNL1       -0.2713
     15 C         -10.3106   -3.8221   18.6744 C.3     1  UNL1        0.0896
     16 C          -9.5475   -5.1129   18.7168 C.3     1  UNL1        0.0897
     17 N         -10.2815   -6.4140   18.8532 N.3     1  UNL1       -0.2691
     18 C          -9.5184   -7.7046   18.8956 C.3     1  UNL1        0.0897
     19 C         -11.7785   -6.4243   18.9473 C.3     1  UNL1        0.0897
     20 C         -12.5416   -5.1335   18.9049 C.3     1  UNL1        0.0896
     21 C         -16.5189    2.8579   17.4663 C.3     1  UNL1        0.2525
     22 O         -15.8411    2.3281   18.6950 O.3     1  UNL1       -0.4705
     23 C         -18.7075    1.9901   21.1086 C.ar    1  UNL1        0.2219
     24 N         -19.6626    1.3661   22.0825 N.ar    1  UNL1       -0.2110
     25 C         -19.9139    2.0187   23.4094 C.ar    1  UNL1        0.1160
     26 C         -19.2103    3.2956   23.7625 C.ar    1  UNL1        0.1082
     27 CL        -19.4616    3.9483   25.0894 Cl      1  UNL1       -0.0777
     28 C         -18.2552    3.9197   22.7886 C.ar    1  UNL1        0.1435
     29 N         -18.0038    3.2670   21.4616 N.ar    1  UNL1       -0.1979
     30 N         -17.5515    5.1965   23.1416 N.pl3   1  UNL1       -0.3181
     31 H         -17.9531    6.0626   22.9010 H       1  UNL1        0.1482
     32 C         -16.2361    5.1537   23.8611 C.3     1  UNL1        0.0832
     33 C         -14.8823    5.0799   23.2195 C.3     1  UNL1        0.0984
     34 C         -13.8529    5.0579   24.3104 C.3     1  UNL1        0.0323
     35 C         -13.6604    5.0815   25.7978 C.2     1  UNL1       -0.0304
     36 C         -15.0142    5.1553   26.4393 C.2     1  UNL1       -0.0294
     37 C         -16.0436    5.1773   25.3485 C.3     1  UNL1        0.0404
     38 C         -15.3258    5.1171   24.0327 C.3     1  UNL1        0.0109
     39 C         -14.6061    5.0358   21.7458 C.2     1  UNL1        0.2208
     40 N         -15.2470    3.9806   20.8939 N.am    1  UNL1       -0.3288
     41 O         -13.6891    6.0470   21.1240 O.2     1  UNL1       -0.2753
     42 H         -15.8489    3.3169   21.3020 H       1  UNL1        0.1449
     43 H         -15.0658    3.9517   19.9266 H       1  UNL1        0.1449
@<TRIPOS>BOND
     1    21    22    1
     2    22     3    1
     3     3     4   ar
     4     4     1    1
     5     1    23    1
     6    23    24   ar
     7    24    25   ar
     8    25    26   ar
     9    26    27    1
    10    26    28   ar
    11    28    30    1
    12    32    30    1
    13    32    33    1
    14    33    39    1
    15    39    40   am
    16    39    41    2
    17    33    34    1
    18    34    35    1
    19    35    36    2
    20    37    36    1
    21    37    38    1
    22    28    29   ar
    23     4     5   ar
    24     5     6   ar
    25     6     7   ar
    26     7     8   ar
    27     8     9    1
    28     9    10    1
    29    10    11    1
    30    11    12    1
    31    12    14    1
    32    14    15    1
    33    15    16    1
    34    16    17    1
    35    17    18    1
    36    17    19    1
    37    19    20    1
    38    12    13    1
    39     8     3   ar
    40    20    14    1
    41    29    23   ar
    42    13     7    1
    43    37    32    1
    44    38    34    1
    45     1     2    1
    46    30    31    1
    47    40    42    1
    48    40    43    1
@<TRIPOS>MOLECULE
*****
 43 48 0 0 0
SMALL
GASTEIGER

@<TRIPOS>ATOM
      1 N           2.4821   -0.8360   30.3811 N.pl3   1  UNL1       -0.2801
      2 H           2.8103   -1.7596   30.2895 H       1  UNL1        0.1552
      3 C           3.6013   -0.6695   32.7199 C.ar    1  UNL1        0.1477
      4 C           2.7761   -0.0556   31.6279 C.ar    1  UNL1        0.0846
      5 C           2.2451    1.3386   31.7828 C.ar    1  UNL1        0.0174
      6 C           2.5391    2.1191   33.0296 C.ar    1  UNL1       -0.0031
      7 C           3.3643    1.5051   34.1216 C.ar    1  UNL1       -0.0218
      8 C           3.8953    0.1109   33.9667 C.ar    1  UNL1        0.0091
      9 C           4.7317   -0.6833   34.9258 C.3     1  UNL1        0.0292
     10 C           5.2435   -0.2792   36.2767 C.3     1  UNL1        0.0062
     11 C           5.0453    1.0186   37.0020 C.3     1  UNL1        0.0166
     12 C           4.2865    2.2331   36.5557 C.3     1  UNL1        0.0619
     13 C           3.5384    2.4496   35.2738 C.3     1  UNL1        0.0421
     14 N           4.2742    3.3831   37.5187 N.3     1  UNL1       -0.2713
     15 C           4.0474    3.1348   38.9806 C.3     1  UNL1        0.0896
     16 C           4.0351    4.2850   39.9435 C.3     1  UNL1        0.0897
     17 N           4.2495    5.6832   39.4447 N.3     1  UNL1       -0.2691
     18 C           4.2372    6.8332   40.4076 C.3     1  UNL1        0.0897
     19 C           4.4763    5.9315   37.9828 C.3     1  UNL1        0.0897
     20 C           4.4886    4.7814   37.0198 C.3     1  UNL1        0.0896
     21 C           5.4133   -2.3001   31.8213 C.3     1  UNL1        0.2525
     22 O           4.1324   -2.0638   32.5650 O.3     1  UNL1       -0.4705
     23 C           1.6877   -0.2090   29.2739 C.ar    1  UNL1        0.2219
     24 N           0.1910   -0.1592   29.3597 N.ar    1  UNL1       -0.2110
     25 C          -0.6033    0.4678   28.2525 C.ar    1  UNL1        0.1160
     26 C           0.0991    1.0449   27.0594 C.ar    1  UNL1        0.1082
     27 CL         -0.6952    1.6719   25.9521 Cl      1  UNL1       -0.0777
     28 C           1.5958    0.9951   26.9735 C.ar    1  UNL1        0.1435
     29 N           2.3902    0.3681   28.0807 N.ar    1  UNL1       -0.1979
     30 N           2.2983    1.5722   25.7804 N.pl3   1  UNL1       -0.3181
     31 H           2.6541    2.4896   25.8147 H       1  UNL1        0.1482
     32 C           2.4587    0.7518   24.5350 C.3     1  UNL1        0.0832
     33 C           3.3607   -0.4355   24.3715 C.3     1  UNL1        0.0984
     34 C           3.2048   -0.9465   22.9698 C.3     1  UNL1        0.0323
     35 C           2.4914   -0.7238   21.6693 C.2     1  UNL1       -0.0304
     36 C           1.5894    0.4635   21.8329 C.2     1  UNL1       -0.0294
     37 C           1.7453    0.9745   23.2345 C.3     1  UNL1        0.0404
     38 C           2.7437    0.1030   23.9372 C.3     1  UNL1        0.0109
     39 C           4.2607   -1.0108   25.4247 C.2     1  UNL1        0.2208
     40 N           3.6973   -1.9153   26.4803 N.am    1  UNL1       -0.3288
     41 O           5.7242   -0.6816   25.4221 O.2     1  UNL1       -0.2753
     42 H           2.7368   -2.1313   26.4819 H       1  UNL1        0.1449
     43 H           4.2879   -2.2928   27.1715 H       1  UNL1        0.1449
@<TRIPOS>BOND
     1    21    22    1
     2    22     3    1
     3     3     4   ar
     4     4     1    1
     5     1    23    1
     6    23    24   ar
     7    24    25   ar
     8    25    26   ar
     9    26    27    1
    10    26    28   ar
    11    28    30    1
    12    32    30    1
    13    32    33    1
    14    33    39    1
    15    39    40   am
    16    39    41    2
    17    33    34    1
    18    34    35    1
    19    35    36    2
    20    37    36    1
    21    37    38    1
    22    28    29   ar
    23     4     5   ar
    24     5     6   ar
    25     6     7   ar
    26     7     8   ar
    27     8     9    1
    28     9    10    1
    29    10    11    1
    30    11    12    1
    31    12    14    1
    32    14    15    1
    33    15    16    1
    34    16    17    1
    35    17    18    1
    36    17    19    1
    37    19    20    1
    38    12    13    1
    39     8     3   ar
    40    20    14    1
    41    29    23   ar
    42    13     7    1
    43    37    32    1
    44    38    34    1
    45     1     2    1
    46    30    31    1
    47    40    42    1
    48    40    43    1
@<TRIPOS>MOLECULE
*****
 43 48 0 0 0
SMALL
GASTEIGER

@<TRIPOS>ATOM
      1 N          -0.0952    3.5910   20.6041 N.pl3   1  UNL1       -0.2801
      2 H           0.5228    3.9530   19.9286 H       1  UNL1        0.1552
      3 C           1.2756    1.8009   21.8952 C.ar    1  UNL1        0.1477
      4 C           0.4401    3.0467   21.8953 C.ar    1  UNL1        0.0846
      5 C           0.1399    3.7483   23.1867 C.ar    1  UNL1        0.0174
      6 C           0.6751    3.2040   24.4780 C.ar    1  UNL1       -0.0031
      7 C           1.5106    1.9582   24.4778 C.ar    1  UNL1       -0.0218
      8 C           1.8108    1.2567   23.1864 C.ar    1  UNL1        0.0091
      9 C           2.6167    0.0112   22.9639 C.3     1  UNL1        0.0292
     10 C           3.3215   -0.8402   23.9781 C.3     1  UNL1        0.0062
     11 C           3.3943   -0.6566   25.4649 C.3     1  UNL1        0.0166
     12 C           2.7805    0.4239   26.3051 C.3     1  UNL1        0.0619
     13 C           1.9422    1.5876   25.8657 C.3     1  UNL1        0.0421
     14 N           3.0392    0.3280   27.7794 N.3     1  UNL1       -0.2713
     15 C           4.2404    1.0003   28.3754 C.3     1  UNL1        0.0896
     16 C           4.4991    0.9044   29.8499 C.3     1  UNL1        0.0897
     17 N           3.5566    0.1362   30.7283 N.3     1  UNL1       -0.2691
     18 C           3.8153    0.0403   32.2027 C.3     1  UNL1        0.0897
     19 C           2.3554   -0.5361   30.1323 C.3     1  UNL1        0.0897
     20 C           2.0967   -0.4402   28.6579 C.3     1  UNL1        0.0896
     21 C           0.5568    0.1834   19.9933 C.3     1  UNL1        0.2525
     22 O           1.5758    1.0994   20.6038 O.3     1  UNL1       -0.4705
     23 C          -1.5721    3.5838   20.3421 C.ar    1  UNL1        0.2219
     24 N          -2.1008    4.0424   19.0154 N.ar    1  UNL1       -0.2110
     25 C          -3.5777    4.0352   18.7534 C.ar    1  UNL1        0.1160
     26 C          -4.5260    3.5694   19.8182 C.ar    1  UNL1        0.1082
     27 CL         -6.0029    3.5622   19.5562 Cl      1  UNL1       -0.0777
     28 C          -3.9974    3.1108   21.1450 C.ar    1  UNL1        0.1435
     29 N          -2.5205    3.1180   21.4069 N.ar    1  UNL1       -0.1979
     30 N          -4.9456    2.6450   22.2098 N.pl3   1  UNL1       -0.3181
     31 H          -5.5152    1.8578   22.0515 H       1  UNL1        0.1482
     32 C          -5.0260    3.3785   23.5156 C.3     1  UNL1        0.0832
     33 C          -6.1835    4.2046   23.9931 C.3     1  UNL1        0.0984
     34 C          -5.8359    4.7514   25.3459 C.3     1  UNL1        0.0323
     35 C          -4.7729    4.7877   26.4037 C.2     1  UNL1       -0.0304
     36 C          -3.6155    3.9617   25.9262 C.2     1  UNL1       -0.0294
     37 C          -3.9631    3.4148   24.5734 C.3     1  UNL1        0.0404
     38 C          -5.3354    3.9030   24.2148 C.3     1  UNL1        0.0109
     39 C          -7.4638    4.4421   23.2484 C.2     1  UNL1        0.2208
     40 N          -8.6862    3.6400   23.5835 N.am    1  UNL1       -0.3288
     41 O          -7.5216    5.4819   22.1688 O.2     1  UNL1       -0.2753
     42 H          -8.6482    2.9576   24.2921 H       1  UNL1        0.1449
     43 H          -9.5265    3.7959   23.0947 H       1  UNL1        0.1449
@<TRIPOS>BOND
     1    21    22    1
     2    22     3    1
     3     3     4   ar
     4     4     1    1
     5     1    23    1
     6    23    24   ar
     7    24    25   ar
     8    25    26   ar
     9    26    27    1
    10    26    28   ar
    11    28    30    1
    12    32    30    1
    13    32    33    1
    14    33    39    1
    15    39    40   am
    16    39    41    2
    17    33    34    1
    18    34    35    1
    19    35    36    2
    20    37    36    1
    21    37    38    1
    22    28    29   ar
    23     4     5   ar
    24     5     6   ar
    25     6     7   ar
    26     7     8   ar
    27     8     9    1
    28     9    10    1
    29    10    11    1
    30    11    12    1
    31    12    14    1
    32    14    15    1
    33    15    16    1
    34    16    17    1
    35    17    18    1
    36    17    19    1
    37    19    20    1
    38    12    13    1
    39     8     3   ar
    40    20    14    1
    41    29    23   ar
    42    13     7    1
    43    37    32    1
    44    38    34    1
    45     1     2    1
    46    30    31    1
    47    40    42    1
    48    40    43    1
@<TRIPOS>MOLECULE
*****
 43 48 0 0 0
SMALL
GASTEIGER

@<TRIPOS>ATOM
      1 N           2.4558   -0.8699   27.6414 N.pl3   1  UNL1       -0.2801
      2 H           1.9133   -1.6762   27.4840 H       1  UNL1        0.1552
      3 C           1.6249    1.0229   29.2154 C.ar    1  UNL1        0.1477
      4 C           2.4470   -0.2112   28.9890 C.ar    1  UNL1        0.0846
      5 C           3.2603   -0.7867   30.1103 C.ar    1  UNL1        0.0174
      6 C           3.2516   -0.1281   31.4580 C.ar    1  UNL1       -0.0031
      7 C           2.4294    1.1060   31.6843 C.ar    1  UNL1       -0.0218
      8 C           1.6162    1.6814   30.5630 C.ar    1  UNL1        0.0091
      9 C           0.7340    2.8946   30.5743 C.3     1  UNL1        0.0292
     10 C           0.4474    3.8320   31.7099 C.3     1  UNL1        0.0062
     11 C           0.9720    3.7876   33.1143 C.3     1  UNL1        0.0166
     12 C           1.9129    2.7950   33.7304 C.3     1  UNL1        0.0619
     13 C           2.5616    1.6015   33.0939 C.3     1  UNL1        0.0421
     14 N           2.2497    3.0263   35.1736 N.3     1  UNL1       -0.2713
     15 C           3.1197    2.0487   35.9068 C.3     1  UNL1        0.0896
     16 C           3.4565    2.2802   37.3501 C.3     1  UNL1        0.0897
     17 N           2.9233    3.4891   38.0602 N.3     1  UNL1       -0.2691
     18 C           3.2601    3.7205   39.5034 C.3     1  UNL1        0.0897
     19 C           2.0534    4.4667   37.3270 C.3     1  UNL1        0.0897
     20 C           1.7166    4.2353   35.8836 C.3     1  UNL1        0.0896
     21 C          -0.4772    0.9457   27.6906 C.3     1  UNL1        0.2525
     22 O           0.8116    1.5984   28.0941 O.3     1  UNL1       -0.4705
     23 C           3.2911   -0.2999   26.5335 C.ar    1  UNL1        0.2219
     24 N           4.6746    0.2040   26.8203 N.ar    1  UNL1       -0.2110
     25 C           5.5099    0.7740   25.7125 C.ar    1  UNL1        0.1160
     26 C           4.9618    0.8401   24.3178 C.ar    1  UNL1        0.1082
     27 CL          5.7971    1.4101   23.2099 Cl      1  UNL1       -0.0777
     28 C           3.5783    0.3362   24.0309 C.ar    1  UNL1        0.1435
     29 N           2.7430   -0.2338   25.1388 N.ar    1  UNL1       -0.1979
     30 N           3.0302    0.4023   22.6362 N.pl3   1  UNL1       -0.3181
     31 H           2.5473    1.2055   22.3347 H       1  UNL1        0.1482
     32 C           3.2178   -0.7553   21.7010 C.3     1  UNL1        0.0832
     33 C           2.4497   -1.0003   20.4361 C.3     1  UNL1        0.0984
     34 C           2.9636   -2.2676   19.8198 C.3     1  UNL1        0.0323
     35 C           3.9523   -3.3834   19.9852 C.2     1  UNL1       -0.0304
     36 C           4.7204   -3.1384   21.2501 C.2     1  UNL1       -0.0294
     37 C           4.2065   -1.8711   21.8664 C.3     1  UNL1        0.0404
     38 C           3.1207   -1.3329   20.9824 C.3     1  UNL1        0.0109
     39 C           1.3591   -0.1307   19.8843 C.2     1  UNL1        0.2208
     40 N          -0.0077   -0.1593   20.5018 N.am    1  UNL1       -0.3288
     41 O           1.6352    0.7676   18.7152 O.2     1  UNL1       -0.2753
     42 H          -0.1889   -0.7489   21.2691 H       1  UNL1        0.1449
     43 H          -0.7235    0.4114   20.1397 H       1  UNL1        0.1449
@<TRIPOS>BOND
     1    21    22    1
     2    22     3    1
     3     3     4   ar
     4     4     1    1
     5     1    23    1
     6    23    24   ar
     7    24    25   ar
     8    25    26   ar
     9    26    27    1
    10    26    28   ar
    11    28    30    1
    12    32    30    1
    13    32    33    1
    14    33    39    1
    15    39    40   am
    16    39    41    2
    17    33    34    1
    18    34    35    1
    19    35    36    2
    20    37    36    1
    21    37    38    1
    22    28    29   ar
    23     4     5   ar
    24     5     6   ar
    25     6     7   ar
    26     7     8   ar
    27     8     9    1
    28     9    10    1
    29    10    11    1
    30    11    12    1
    31    12    14    1
    32    14    15    1
    33    15    16    1
    34    16    17    1
    35    17    18    1
    36    17    19    1
    37    19    20    1
    38    12    13    1
    39     8     3   ar
    40    20    14    1
    41    29    23   ar
    42    13     7    1
    43    37    32    1
    44    38    34    1
    45     1     2    1
    46    30    31    1
    47    40    42    1
    48    40    43    1
@<TRIPOS>MOLECULE
*****
 43 48 0 0 0
SMALL
GASTEIGER

@<TRIPOS>ATOM
      1 N           8.3586   -3.3346   21.5549 N.pl3   1  UNL1       -0.2801
      2 H           9.2225   -3.7144   21.2745 H       1  UNL1        0.1552
      3 C           7.6668   -4.4764   23.7838 C.ar    1  UNL1        0.1477
      4 C           8.0192   -3.2388   23.0129 C.ar    1  UNL1        0.0846
      5 C           8.0321   -1.9055   23.6999 C.ar    1  UNL1        0.0174
      6 C           7.6927   -1.8097   25.1579 C.ar    1  UNL1       -0.0031
      7 C           7.3404   -3.0473   25.9288 C.ar    1  UNL1       -0.0218
      8 C           7.3275   -4.3805   25.2418 C.ar    1  UNL1        0.0091
      9 C           7.0072   -5.7274   25.8195 C.3     1  UNL1        0.0292
     10 C           6.6207   -6.0733   27.2270 C.3     1  UNL1        0.0062
     11 C           6.4591   -5.1581   28.4042 C.3     1  UNL1        0.0166
     12 C           6.6440   -3.6707   28.4650 C.3     1  UNL1        0.0619
     13 C           7.0362   -2.7313   27.3633 C.3     1  UNL1        0.0421
     14 N           6.4051   -3.0393   29.8044 N.3     1  UNL1       -0.2713
     15 C           6.0014   -1.5973   29.8925 C.3     1  UNL1        0.0896
     16 C           5.7625   -0.9659   31.2321 C.3     1  UNL1        0.0897
     17 N           5.9273   -1.7764   32.4835 N.3     1  UNL1       -0.2691
     18 C           5.6884   -1.1450   33.8229 C.3     1  UNL1        0.0897
     19 C           6.3310   -3.2184   32.3953 C.3     1  UNL1        0.0897
     20 C           6.5699   -3.8498   31.0557 C.3     1  UNL1        0.0896
     21 C           8.9327   -6.5725   22.9156 C.3     1  UNL1        0.2525
     22 O           7.6539   -5.8098   23.0968 O.3     1  UNL1       -0.4705
     23 C           7.3817   -2.8515   20.5242 C.ar    1  UNL1        0.2219
     24 N           7.8789   -2.2442   19.2459 N.ar    1  UNL1       -0.2110
     25 C           6.9021   -1.7612   18.2153 C.ar    1  UNL1        0.1160
     26 C           5.4279   -1.8853   18.4628 C.ar    1  UNL1        0.1082
     27 CL          4.4510   -1.4022   17.4321 Cl      1  UNL1       -0.0777
     28 C           4.9305   -2.4925   19.7411 C.ar    1  UNL1        0.1435
     29 N           5.9074   -2.9756   20.7718 N.ar    1  UNL1       -0.1979
     30 N           3.4563   -2.6167   19.9888 N.pl3   1  UNL1       -0.3181
     31 H           2.9875   -3.4519   19.7608 H       1  UNL1        0.1482
     32 C           2.6964   -1.4685   20.5837 C.3     1  UNL1        0.0832
     33 C           3.0756   -0.7054   21.8182 C.3     1  UNL1        0.0984
     34 C           2.0374    0.3529   22.0461 C.3     1  UNL1        0.0323
     35 C           0.7648    0.9397   21.5111 C.2     1  UNL1       -0.0304
     36 C           0.3856    0.1766   20.2767 C.2     1  UNL1       -0.0294
     37 C           1.4238   -0.8818   20.0487 C.3     1  UNL1        0.0404
     38 C           2.4447   -0.7728   21.1424 C.3     1  UNL1        0.0109
     39 C           4.2814   -0.9566   22.6745 C.2     1  UNL1        0.2208
     40 N           5.5279   -0.1475   22.4704 N.am    1  UNL1       -0.3288
     41 O           4.2406   -2.0168   23.7348 O.2     1  UNL1       -0.2753
     42 H           5.5546    0.5483   21.7745 H       1  UNL1        0.1449
     43 H           6.3192   -0.3124   23.0324 H       1  UNL1        0.1449
@<TRIPOS>BOND
     1    21    22    1
     2    22     3    1
     3     3     4   ar
     4     4     1    1
     5     1    23    1
     6    23    24   ar
     7    24    25   ar
     8    25    26   ar
     9    26    27    1
    10    26    28   ar
    11    28    30    1
    12    32    30    1
    13    32    33    1
    14    33    39    1
    15    39    40   am
    16    39    41    2
    17    33    34    1
    18    34    35    1
    19    35    36    2
    20    37    36    1
    21    37    38    1
    22    28    29   ar
    23     4     5   ar
    24     5     6   ar
    25     6     7   ar
    26     7     8   ar
    27     8     9    1
    28     9    10    1
    29    10    11    1
    30    11    12    1
    31    12    14    1
    32    14    15    1
    33    15    16    1
    34    16    17    1
    35    17    18    1
    36    17    19    1
    37    19    20    1
    38    12    13    1
    39     8     3   ar
    40    20    14    1
    41    29    23   ar
    42    13     7    1
    43    37    32    1
    44    38    34    1
    45     1     2    1
    46    30    31    1
    47    40    42    1
    48    40    43    1
@<TRIPOS>MOLECULE
*****
 43 48 0 0 0
SMALL
GASTEIGER

@<TRIPOS>ATOM
      1 N           0.7532    1.1776   19.8542 N.pl3   1  UNL1       -0.2801
      2 H           0.6820    0.8728   18.9208 H       1  UNL1        0.1552
      3 C           2.6167   -0.5754   20.3064 C.ar    1  UNL1        0.1477
      4 C           1.6482    0.4514   20.8141 C.ar    1  UNL1        0.0846
      5 C           1.5749    0.7521   22.2818 C.ar    1  UNL1        0.0174
      6 C           2.4700    0.0260   23.2419 C.ar    1  UNL1       -0.0031
      7 C           3.4384   -1.0009   22.7341 C.ar    1  UNL1       -0.0218
      8 C           3.5117   -1.3015   21.2664 C.ar    1  UNL1        0.0091
      9 C           4.3986   -2.2803   20.5554 C.3     1  UNL1        0.0292
     10 C           5.4312   -3.2001   21.1366 C.3     1  UNL1        0.0062
     11 C           5.8319   -3.3683   22.5722 C.3     1  UNL1        0.0166
     12 C           5.2990   -2.6583   23.7814 C.3     1  UNL1        0.0619
     13 C           4.2338   -1.6047   23.8534 C.3     1  UNL1        0.0421
     14 N           5.9124   -3.0542   25.0916 N.3     1  UNL1       -0.2713
     15 C           5.7971   -2.1448   26.2790 C.3     1  UNL1        0.0896
     16 C           6.4106   -2.5408   27.5894 C.3     1  UNL1        0.0897
     17 N           7.1394   -3.8461   27.7123 N.3     1  UNL1       -0.2691
     18 C           7.7528   -4.2420   29.0226 C.3     1  UNL1        0.0897
     19 C           7.2547   -4.7555   26.5249 C.3     1  UNL1        0.0897
     20 C           6.6412   -4.3595   25.2146 C.3     1  UNL1        0.0896
     21 C           3.4689    0.0246   17.9266 C.3     1  UNL1        0.2525
     22 O           2.6901   -0.8761   18.8387 O.3     1  UNL1       -0.4705
     23 C          -0.0335    2.3682   20.3165 C.ar    1  UNL1        0.2219
     24 N           0.6004    3.7277   20.3277 N.ar    1  UNL1       -0.2110
     25 C          -0.1862    4.9182   20.7900 C.ar    1  UNL1        0.1160
     26 C          -1.6068    4.7493   21.2411 C.ar    1  UNL1        0.1082
     27 CL         -2.3935    5.9399   21.7034 Cl      1  UNL1       -0.0777
     28 C          -2.2408    3.3899   21.2299 C.ar    1  UNL1        0.1435
     29 N          -1.4541    2.1993   20.7676 N.ar    1  UNL1       -0.1979
     30 N          -3.6613    3.2209   21.6810 N.pl3   1  UNL1       -0.3181
     31 H          -4.3476    2.9185   21.0433 H       1  UNL1        0.1482
     32 C          -4.0362    3.5128   23.1037 C.3     1  UNL1        0.0832
     33 C          -5.3976    3.9088   23.5933 C.3     1  UNL1        0.0984
     34 C          -5.3183    4.1007   25.0789 C.3     1  UNL1        0.0323
     35 C          -4.3976    4.0477   26.2619 C.2     1  UNL1       -0.0304
     36 C          -3.0362    3.6517   25.7723 C.2     1  UNL1       -0.0294
     37 C          -3.1155    3.4599   24.2867 C.3     1  UNL1        0.0404
     38 C          -4.5260    3.7374   23.8582 C.3     1  UNL1        0.0109
     39 C          -6.6232    4.0825   22.7460 C.2     1  UNL1        0.2208
     40 N          -7.9834    3.8729   23.3427 N.am    1  UNL1       -0.3288
     41 O          -6.4886    4.4659   21.3021 O.2     1  UNL1       -0.2753
     42 H          -8.0717    3.6213   24.2904 H       1  UNL1        0.1449
     43 H          -8.7877    3.9869   22.7867 H       1  UNL1        0.1449
@<TRIPOS>BOND
     1    21    22    1
     2    22     3    1
     3     3     4   ar
     4     4     1    1
     5     1    23    1
     6    23    24   ar
     7    24    25   ar
     8    25    26   ar
     9    26    27    1
    10    26    28   ar
    11    28    30    1
    12    32    30    1
    13    32    33    1
    14    33    39    1
    15    39    40   am
    16    39    41    2
    17    33    34    1
    18    34    35    1
    19    35    36    2
    20    37    36    1
    21    37    38    1
    22    28    29   ar
    23     4     5   ar
    24     5     6   ar
    25     6     7   ar
    26     7     8   ar
    27     8     9    1
    28     9    10    1
    29    10    11    1
    30    11    12    1
    31    12    14    1
    32    14    15    1
    33    15    16    1
    34    16    17    1
    35    17    18    1
    36    17    19    1
    37    19    20    1
    38    12    13    1
    39     8     3   ar
    40    20    14    1
    41    29    23   ar
    42    13     7    1
    43    37    32    1
    44    38    34    1
    45     1     2    1
    46    30    31    1
    47    40    42    1
    48    40    43    1
@<TRIPOS>MOLECULE
*****
 43 48 0 0 0
SMALL
GASTEIGER

@<TRIPOS>ATOM
      1 N           7.3499   -4.2017   26.0090 N.pl3   1  UNL1       -0.2801
      2 H           8.1123   -4.6380   25.5643 H       1  UNL1        0.1552
      3 C           6.1105   -3.7835   23.7642 C.ar    1  UNL1        0.1477
      4 C           6.3543   -3.4244   25.2001 C.ar    1  UNL1        0.0846
      5 C           5.6023   -2.2879   25.8271 C.ar    1  UNL1        0.0174
      6 C           4.6066   -1.5106   25.0182 C.ar    1  UNL1       -0.0031
      7 C           4.3629   -1.8697   23.5823 C.ar    1  UNL1       -0.0218
      8 C           5.1148   -3.0061   22.9554 C.ar    1  UNL1        0.0091
      9 C           5.0242   -3.5259   21.5512 C.3     1  UNL1        0.0292
     10 C           4.1592   -3.0375   20.4272 C.3     1  UNL1        0.0062
     11 C           3.1713   -1.9089   20.4298 C.3     1  UNL1        0.0166
     12 C           2.8042   -0.9897   21.5569 C.3     1  UNL1        0.0619
     13 C           3.3345   -0.9723   22.9599 C.3     1  UNL1        0.0421
     14 N           1.7702    0.0493   21.2391 N.3     1  UNL1       -0.2713
     15 C           1.2587    0.9539   22.3208 C.3     1  UNL1        0.0896
     16 C           0.2245    1.9930   22.0029 C.3     1  UNL1        0.0897
     17 N          -0.2980    2.1275   20.6033 N.3     1  UNL1       -0.2691
     18 C          -1.3320    3.1665   20.2854 C.3     1  UNL1        0.0897
     19 C           0.2135    1.2229   19.5215 C.3     1  UNL1        0.0897
     20 C           1.2477    0.1838   19.8395 C.3     1  UNL1        0.0896
     21 C           8.2464   -4.6992   22.6027 C.3     1  UNL1        0.2525
     22 O           6.8625   -4.9199   23.1372 O.3     1  UNL1       -0.4705
     23 C           7.1841   -4.3143   27.4956 C.ar    1  UNL1        0.2219
     24 N           7.2601   -5.6574   28.1592 N.ar    1  UNL1       -0.2110
     25 C           7.0942   -5.7701   29.6457 C.ar    1  UNL1        0.1160
     26 C           6.8523   -4.5395   30.4687 C.ar    1  UNL1        0.1082
     27 CL          6.6865   -4.6521   31.9552 Cl      1  UNL1       -0.0777
     28 C           6.7763   -3.1964   29.8052 C.ar    1  UNL1        0.1435
     29 N           6.9422   -3.0838   28.3186 N.ar    1  UNL1       -0.1979
     30 N           6.5344   -1.9658   30.6281 N.pl3   1  UNL1       -0.3181
     31 H           7.2626   -1.5855   31.1706 H       1  UNL1        0.1482
     32 C           5.1831   -1.3148   30.6246 C.3     1  UNL1        0.0832
     33 C           4.2603   -1.1925   31.8007 C.3     1  UNL1        0.0984
     34 C           3.0242   -0.4739   31.3473 C.3     1  UNL1        0.0323
     35 C           2.3584    0.1691   30.1669 C.2     1  UNL1       -0.0304
     36 C           3.2812    0.0467   28.9907 C.2     1  UNL1       -0.0294
     37 C           4.5173   -0.6719   29.4442 C.3     1  UNL1        0.0404
     38 C           4.3585   -0.9936   30.9007 C.3     1  UNL1        0.0109
     39 C           4.5268   -1.6996   33.1871 C.2     1  UNL1        0.2208
     40 N           5.4180   -0.9238   34.1111 N.am    1  UNL1       -0.3288
     41 O           3.9022   -2.9827   33.6493 O.2     1  UNL1       -0.2753
     42 H           5.8280   -0.0817   33.8077 H       1  UNL1        0.1449
     43 H           5.5929   -1.2566   35.0210 H       1  UNL1        0.1449
@<TRIPOS>BOND
     1    21    22    1
     2    22     3    1
     3     3     4   ar
     4     4     1    1
     5     1    23    1
     6    23    24   ar
     7    24    25   ar
     8    25    26   ar
     9    26    27    1
    10    26    28   ar
    11    28    30    1
    12    32    30    1
    13    32    33    1
    14    33    39    1
    15    39    40   am
    16    39    41    2
    17    33    34    1
    18    34    35    1
    19    35    36    2
    20    37    36    1
    21    37    38    1
    22    28    29   ar
    23     4     5   ar
    24     5     6   ar
    25     6     7   ar
    26     7     8   ar
    27     8     9    1
    28     9    10    1
    29    10    11    1
    30    11    12    1
    31    12    14    1
    32    14    15    1
    33    15    16    1
    34    16    17    1
    35    17    18    1
    36    17    19    1
    37    19    20    1
    38    12    13    1
    39     8     3   ar
    40    20    14    1
    41    29    23   ar
    42    13     7    1
    43    37    32    1
    44    38    34    1
    45     1     2    1
    46    30    31    1
    47    40    42    1
    48    40    43    1
