@<TRIPOS>MOLECULE
*****
 32 34 0 0 0
SMALL
GASTEIGER

@<TRIPOS>ATOM
      1 C           8.1618   -6.3634   25.2732 C.ar    1  UNL1        0.1378
      2 C           8.0715   -7.7992   25.6975 C.ar    1  UNL1        0.0475
      3 C           8.1710   -8.1597   27.1502 C.ar    1  UNL1        0.1378
      4 N           8.3608   -7.0844   28.1785 N.ar    1  UNL1       -0.2193
      5 C           8.4511   -5.6484   27.7542 C.ar    1  UNL1        0.1991
      6 N           8.3516   -5.2879   26.3016 N.ar    1  UNL1       -0.2193
      7 N           7.5597   -4.6485   23.4167 N.am    1  UNL1       -0.2957
      8 C           8.0622   -6.0029   23.8206 C.2     1  UNL1        0.2639
      9 O           8.4652   -6.9968   22.7719 O.2     1  UNL1       -0.2685
     10 H           7.2953   -3.9962   24.1050 H       1  UNL1        0.1501
     11 C           7.4602   -4.2880   21.9640 C.3     1  UNL1        0.1166
     12 C           3.2971   -1.2526   22.6381 C.3     1  UNL1        0.0334
     13 C           4.1204   -2.1534   21.7660 C.ar    1  UNL1        0.0053
     14 C           5.3786   -2.7703   22.3011 C.ar    1  UNL1       -0.0047
     15 C           6.2020   -3.6711   21.4289 C.ar    1  UNL1       -0.0027
     16 C           5.7672   -3.9549   20.0217 C.ar    1  UNL1       -0.0003
     17 C           4.5090   -3.3380   19.4866 C.ar    1  UNL1        0.0290
     18 C           3.6856   -2.4372   20.3588 C.ar    1  UNL1        0.1361
     19 F           2.4274   -1.8203   19.8236 F       1  UNL1       -0.2045
     20 C           8.0807   -9.5957   27.5744 C.2     1  UNL1        0.2639
     21 O           9.3302  -10.3675   27.8797 O.2     1  UNL1       -0.2685
     22 N           6.7410  -10.2598   27.6935 N.am    1  UNL1       -0.2957
     23 H           5.9210   -9.7532   27.4932 H       1  UNL1        0.1501
     24 C           6.6508  -11.6956   28.1178 C.3     1  UNL1        0.1166
     25 C           5.3493  -12.4321   28.0001 C.ar    1  UNL1       -0.0027
     26 C           5.1051  -13.3415   26.8324 C.ar    1  UNL1       -0.0003
     27 C           3.8037  -14.0779   26.7146 C.ar    1  UNL1        0.0290
     28 C           2.7464  -13.9051   27.7646 C.ar    1  UNL1        0.1361
     29 F           1.4450  -14.6416   27.6469 F       1  UNL1       -0.2045
     30 C           2.9906  -12.9958   28.9323 C.ar    1  UNL1        0.0053
     31 C           1.9335  -12.8229   29.9822 C.3     1  UNL1        0.0334
     32 C           4.2921  -12.2593   29.0500 C.ar    1  UNL1       -0.0047
@<TRIPOS>BOND
     1    12    13    1
     2    13    14   ar
     3    14    15   ar
     4    15    11    1
     5    11     7    1
     6     7     8   am
     7     8     9    2
     8     8     1    1
     9     1     2   ar
    10     2     3   ar
    11     3    20    1
    12    20    21    2
    13    20    22   am
    14    22    24    1
    15    24    25    1
    16    25    26   ar
    17    26    27   ar
    18    27    28   ar
    19    28    29    1
    20    28    30   ar
    21    30    31    1
    22    30    32   ar
    23     3     4   ar
    24     4     5   ar
    25     5     6   ar
    26    15    16   ar
    27    16    17   ar
    28    17    18   ar
    29    18    19    1
    30    18    13   ar
    31     6     1   ar
    32    32    25   ar
    33     7    10    1
    34    22    23    1
@<TRIPOS>MOLECULE
*****
 32 34 0 0 0
SMALL
GASTEIGER

@<TRIPOS>ATOM
      1 C           5.9788   -2.6916   25.9092 C.ar    1  UNL1        0.1378
      2 C           5.5548   -2.6884   24.4704 C.ar    1  UNL1        0.0475
      3 C           6.1160   -3.7048   23.5208 C.ar    1  UNL1        0.1378
      4 N           7.1013   -4.7246   24.0100 N.ar    1  UNL1       -0.2193
      5 C           7.5254   -4.7278   25.4488 C.ar    1  UNL1        0.1991
      6 N           6.9642   -3.7114   26.3984 N.ar    1  UNL1       -0.2193
      7 N           3.9902   -1.7765   27.3084 N.am    1  UNL1       -0.2957
      8 C           5.4176   -1.6751   26.8588 C.2     1  UNL1        0.2639
      9 O           6.2838   -0.5572   27.3589 O.2     1  UNL1       -0.2685
     10 H           3.4216   -2.5102   26.9802 H       1  UNL1        0.1501
     11 C           3.4289   -0.7600   28.2580 C.3     1  UNL1        0.1166
     12 C          -1.6115    0.1271   29.1567 C.3     1  UNL1        0.0334
     13 C          -0.3640    0.4023   28.3705 C.ar    1  UNL1        0.0053
     14 C           0.9087   -0.3164   28.7073 C.ar    1  UNL1       -0.0047
     15 C           2.1562   -0.0412   27.9211 C.ar    1  UNL1       -0.0027
     16 C           2.1308    0.9527   26.7980 C.ar    1  UNL1       -0.0003
     17 C           0.8581    1.6714   26.4611 C.ar    1  UNL1        0.0290
     18 C          -0.3893    1.3962   27.2473 C.ar    1  UNL1        0.1361
     19 F          -1.6621    2.1150   26.9104 F       1  UNL1       -0.2045
     20 C           5.6919   -3.7016   22.0820 C.2     1  UNL1        0.2639
     21 O           6.4807   -4.4731   21.0658 O.2     1  UNL1       -0.2685
     22 N           4.4790   -2.9268   21.6593 N.am    1  UNL1       -0.2957
     23 H           3.9613   -2.4205   22.3263 H       1  UNL1        0.1501
     24 C           4.0549   -2.9236   20.2206 C.3     1  UNL1        0.1166
     25 C           3.2911   -1.7576   19.6664 C.ar    1  UNL1       -0.0027
     26 C           3.7350   -1.1092   18.3886 C.ar    1  UNL1       -0.0003
     27 C           2.9712    0.0567   17.8345 C.ar    1  UNL1        0.0290
     28 C           1.7635    0.5744   18.5580 C.ar    1  UNL1        0.1361
     29 F           0.9997    1.7404   18.0039 F       1  UNL1       -0.2045
     30 C           1.3196   -0.0739   19.8358 C.ar    1  UNL1        0.0053
     31 C           0.1120    0.4437   20.5593 C.3     1  UNL1        0.0334
     32 C           2.0834   -1.2399   20.3900 C.ar    1  UNL1       -0.0047
@<TRIPOS>BOND
     1    12    13    1
     2    13    14   ar
     3    14    15   ar
     4    15    11    1
     5    11     7    1
     6     7     8   am
     7     8     9    2
     8     8     1    1
     9     1     2   ar
    10     2     3   ar
    11     3    20    1
    12    20    21    2
    13    20    22   am
    14    22    24    1
    15    24    25    1
    16    25    26   ar
    17    26    27   ar
    18    27    28   ar
    19    28    29    1
    20    28    30   ar
    21    30    31    1
    22    30    32   ar
    23     3     4   ar
    24     4     5   ar
    25     5     6   ar
    26    15    16   ar
    27    16    17   ar
    28    17    18   ar
    29    18    19    1
    30    18    13   ar
    31     6     1   ar
    32    32    25   ar
    33     7    10    1
    34    22    23    1
@<TRIPOS>MOLECULE
*****
 32 34 0 0 0
SMALL
GASTEIGER

@<TRIPOS>ATOM
      1 C           6.1641   -3.7476   23.5210 C.ar    1  UNL1        0.1378
      2 C           5.6085   -2.7187   24.4605 C.ar    1  UNL1        0.0475
      3 C           5.9905   -2.7433   25.9108 C.ar    1  UNL1        0.1378
      4 N           6.9281   -3.7967   26.4217 N.ar    1  UNL1       -0.2193
      5 C           7.4838   -4.8257   25.4822 C.ar    1  UNL1        0.1991
      6 N           7.1017   -4.8012   24.0319 N.ar    1  UNL1       -0.2193
      7 N           4.5640   -2.9675   21.6287 N.am    1  UNL1       -0.2957
      8 C           5.7820   -3.7231   22.0707 C.2     1  UNL1        0.2639
      9 O           6.6180   -4.4543   21.0624 O.2     1  UNL1       -0.2685
     10 H           4.0154   -2.4876   22.2904 H       1  UNL1        0.1501
     11 C           4.1820   -2.9429   20.1783 C.3     1  UNL1        0.1166
     12 C           0.1834    0.3524   20.5688 C.3     1  UNL1        0.0334
     13 C           1.3876   -0.1468   19.8268 C.ar    1  UNL1        0.0053
     14 C           2.1827   -1.2952   20.3735 C.ar    1  UNL1       -0.0047
     15 C           3.3869   -1.7944   19.6315 C.ar    1  UNL1       -0.0027
     16 C           3.7961   -1.1452   18.3427 C.ar    1  UNL1       -0.0003
     17 C           3.0011    0.0032   17.7960 C.ar    1  UNL1        0.0290
     18 C           1.7969    0.5024   18.5380 C.ar    1  UNL1        0.1361
     19 F           1.0018    1.6509   17.9912 F       1  UNL1       -0.2045
     20 C           5.4349   -1.7143   26.8503 C.2     1  UNL1        0.2639
     21 O           6.3000   -0.5823   27.3196 O.2     1  UNL1       -0.2685
     22 N           4.0142   -1.8173   27.3204 N.am    1  UNL1       -0.2957
     23 H           3.4464   -2.5602   27.0123 H       1  UNL1        0.1501
     24 C           3.4586   -0.7883   28.2598 C.3     1  UNL1        0.1166
     25 C           2.1883   -0.0679   27.9170 C.ar    1  UNL1       -0.0027
     26 C           2.1654    0.9139   26.7832 C.ar    1  UNL1       -0.0003
     27 C           0.8951    1.6343   26.4405 C.ar    1  UNL1        0.0290
     28 C          -0.3523    1.3728   27.2315 C.ar    1  UNL1        0.1361
     29 F          -1.6225    2.0932   26.8888 F       1  UNL1       -0.2045
     30 C          -0.3294    0.3910   28.3653 C.ar    1  UNL1        0.0053
     31 C          -1.5767    0.1296   29.1564 C.3     1  UNL1        0.0334
     32 C           0.9410   -0.3294   28.7081 C.ar    1  UNL1       -0.0047
@<TRIPOS>BOND
     1    12    13    1
     2    13    14   ar
     3    14    15   ar
     4    15    11    1
     5    11     7    1
     6     7     8   am
     7     8     9    2
     8     8     1    1
     9     1     2   ar
    10     2     3   ar
    11     3    20    1
    12    20    21    2
    13    20    22   am
    14    22    24    1
    15    24    25    1
    16    25    26   ar
    17    26    27   ar
    18    27    28   ar
    19    28    29    1
    20    28    30   ar
    21    30    31    1
    22    30    32   ar
    23     3     4   ar
    24     4     5   ar
    25     5     6   ar
    26    15    16   ar
    27    16    17   ar
    28    17    18   ar
    29    18    19    1
    30    18    13   ar
    31     6     1   ar
    32    32    25   ar
    33     7    10    1
    34    22    23    1
@<TRIPOS>MOLECULE
*****
 32 34 0 0 0
SMALL
GASTEIGER

@<TRIPOS>ATOM
      1 C           0.1560    2.4521   19.4647 C.ar    1  UNL1        0.1378
      2 C          -1.1338    2.7454   20.1720 C.ar    1  UNL1        0.0475
      3 C          -2.1738    3.6008   19.5114 C.ar    1  UNL1        0.1378
      4 N          -1.9241    4.1631   18.1434 N.ar    1  UNL1       -0.2193
      5 C          -0.6343    3.8698   17.4360 C.ar    1  UNL1        0.1991
      6 N           0.4058    3.0143   18.0966 N.ar    1  UNL1       -0.2193
      7 N           1.0390    0.1050   20.1439 N.am    1  UNL1       -0.2957
      8 C           1.1961    1.5966   20.1253 C.2     1  UNL1        0.2639
      9 O           2.3932    2.2328   20.7673 O.2     1  UNL1       -0.2685
     10 H           0.2533   -0.3125   19.7226 H       1  UNL1        0.1501
     11 C           2.0790   -0.7505   20.8046 C.3     1  UNL1        0.1166
     12 C           4.6026   -4.7704   18.6897 C.3     1  UNL1        0.0334
     13 C           4.4901   -3.2967   18.9462 C.ar    1  UNL1        0.0053
     14 C           3.3409   -2.7604   19.7471 C.ar    1  UNL1       -0.0047
     15 C           3.2284   -1.2868   20.0036 C.ar    1  UNL1       -0.0027
     16 C           4.2651   -0.3495   19.4591 C.ar    1  UNL1       -0.0003
     17 C           5.4144   -0.8858   18.6581 C.ar    1  UNL1        0.0290
     18 C           5.5269   -2.3594   18.4017 C.ar    1  UNL1        0.1361
     19 F           6.6762   -2.8957   17.6007 F       1  UNL1       -0.2045
     20 C          -3.4636    3.8941   20.2189 C.2     1  UNL1        0.2639
     21 O          -4.1178    5.2346   20.0607 O.2     1  UNL1       -0.2685
     22 N          -4.0992    2.8469   21.0845 N.am    1  UNL1       -0.2957
     23 H          -3.6698    1.9670   21.1883 H       1  UNL1        0.1501
     24 C          -5.3890    3.1402   21.7919 C.3     1  UNL1        0.1166
     25 C          -5.3708    3.6868   23.1887 C.ar    1  UNL1       -0.0027
     26 C          -6.5025    4.5438   23.6734 C.ar    1  UNL1       -0.0003
     27 C          -6.4844    5.0905   25.0700 C.ar    1  UNL1        0.0290
     28 C          -5.3346    4.7802   25.9821 C.ar    1  UNL1        0.1361
     29 F          -5.3165    5.3269   27.3788 F       1  UNL1       -0.2045
     30 C          -4.2030    3.9232   25.4974 C.ar    1  UNL1        0.0053
     31 C          -3.0532    3.6130   26.4094 C.3     1  UNL1        0.0334
     32 C          -4.2211    3.3766   24.1006 C.ar    1  UNL1       -0.0047
@<TRIPOS>BOND
     1    12    13    1
     2    13    14   ar
     3    14    15   ar
     4    15    11    1
     5    11     7    1
     6     7     8   am
     7     8     9    2
     8     8     1    1
     9     1     2   ar
    10     2     3   ar
    11     3    20    1
    12    20    21    2
    13    20    22   am
    14    22    24    1
    15    24    25    1
    16    25    26   ar
    17    26    27   ar
    18    27    28   ar
    19    28    29    1
    20    28    30   ar
    21    30    31    1
    22    30    32   ar
    23     3     4   ar
    24     4     5   ar
    25     5     6   ar
    26    15    16   ar
    27    16    17   ar
    28    17    18   ar
    29    18    19    1
    30    18    13   ar
    31     6     1   ar
    32    32    25   ar
    33     7    10    1
    34    22    23    1
@<TRIPOS>MOLECULE
*****
 32 34 0 0 0
SMALL
GASTEIGER

@<TRIPOS>ATOM
      1 C           0.9081    2.9668   19.1049 C.ar    1  UNL1        0.1378
      2 C          -0.5515    2.9292   19.4486 C.ar    1  UNL1        0.0475
      3 C          -1.2435    4.1740   19.9193 C.ar    1  UNL1        0.1378
      4 N          -0.4760    5.4565   20.0462 N.ar    1  UNL1       -0.2193
      5 C           0.9837    5.4942   19.7024 C.ar    1  UNL1        0.1991
      6 N           1.6757    4.2493   19.2318 N.ar    1  UNL1       -0.2193
      7 N           3.0982    1.6473   18.6442 N.am    1  UNL1       -0.2957
      8 C           1.6001    1.7220   18.6342 C.2     1  UNL1        0.2639
      9 O           0.7940    0.5518   18.1536 O.2     1  UNL1       -0.2685
     10 H           3.6272    2.4153   18.9596 H       1  UNL1        0.1501
     11 C           3.7902    0.4025   18.1735 C.3     1  UNL1        0.1166
     12 C           4.3045   -4.7216   18.8659 C.3     1  UNL1        0.0334
     13 C           4.1719   -3.3406   19.4361 C.ar    1  UNL1        0.0053
     14 C           4.0474   -2.1596   18.5198 C.ar    1  UNL1       -0.0047
     15 C           3.9147   -0.7785   19.0900 C.ar    1  UNL1       -0.0027
     16 C           3.9066   -0.5785   20.5765 C.ar    1  UNL1       -0.0003
     17 C           4.0311   -1.7594   21.4929 C.ar    1  UNL1        0.0290
     18 C           4.1637   -3.1405   20.9227 C.ar    1  UNL1        0.1361
     19 F           4.2882   -4.3215   21.8391 F       1  UNL1       -0.2045
     20 C          -2.7032    4.1364   20.2630 C.2     1  UNL1        0.2639
     21 O          -3.5563    5.3509   20.0462 O.2     1  UNL1       -0.2685
     22 N          -3.3096    2.8842   20.8235 N.am    1  UNL1       -0.2957
     23 H          -2.7497    2.0870   20.9658 H       1  UNL1        0.1501
     24 C          -4.7692    2.8465   21.1672 C.3     1  UNL1        0.1166
     25 C          -5.2580    3.4837   22.4341 C.ar    1  UNL1       -0.0027
     26 C          -6.5505    4.2450   22.4405 C.ar    1  UNL1       -0.0003
     27 C          -7.0394    4.8822   23.7073 C.ar    1  UNL1        0.0290
     28 C          -6.2358    4.7581   24.9679 C.ar    1  UNL1        0.1361
     29 F          -6.7247    5.3953   26.2348 F       1  UNL1       -0.2045
     30 C          -4.9434    3.9969   24.9615 C.ar    1  UNL1        0.0053
     31 C          -4.1398    3.8728   26.2220 C.3     1  UNL1        0.0334
     32 C          -4.4545    3.3596   23.6946 C.ar    1  UNL1       -0.0047
@<TRIPOS>BOND
     1    12    13    1
     2    13    14   ar
     3    14    15   ar
     4    15    11    1
     5    11     7    1
     6     7     8   am
     7     8     9    2
     8     8     1    1
     9     1     2   ar
    10     2     3   ar
    11     3    20    1
    12    20    21    2
    13    20    22   am
    14    22    24    1
    15    24    25    1
    16    25    26   ar
    17    26    27   ar
    18    27    28   ar
    19    28    29    1
    20    28    30   ar
    21    30    31    1
    22    30    32   ar
    23     3     4   ar
    24     4     5   ar
    25     5     6   ar
    26    15    16   ar
    27    16    17   ar
    28    17    18   ar
    29    18    19    1
    30    18    13   ar
    31     6     1   ar
    32    32    25   ar
    33     7    10    1
    34    22    23    1
@<TRIPOS>MOLECULE
*****
 32 34 0 0 0
SMALL
GASTEIGER

@<TRIPOS>ATOM
      1 C          -2.9805    3.3786   21.4951 C.ar    1  UNL1        0.1378
      2 C          -2.4614    3.5098   22.8962 C.ar    1  UNL1        0.0475
      3 C          -3.4198    3.6614   24.0400 C.ar    1  UNL1        0.1378
      4 N          -4.8974    3.6816   23.7828 N.ar    1  UNL1       -0.2193
      5 C          -5.4166    3.5504   22.3816 C.ar    1  UNL1        0.1991
      6 N          -4.4582    3.3988   21.2377 N.ar    1  UNL1       -0.2193
      7 N          -0.8680    2.2751   20.4608 N.am    1  UNL1       -0.2957
      8 C          -2.0221    3.2270   20.3512 C.2     1  UNL1        0.2639
      9 O          -2.2177    4.0274   19.0977 O.2     1  UNL1       -0.2685
     10 H          -0.7396    1.7498   21.2835 H       1  UNL1        0.1501
     11 C           0.0904    2.1236   19.3169 C.3     1  UNL1        0.1166
     12 C           4.2554   -0.1999   17.2544 C.3     1  UNL1        0.0334
     13 C           3.1609   -0.1669   18.2795 C.ar    1  UNL1        0.0053
     14 C           2.1730    0.9618   18.2857 C.ar    1  UNL1       -0.0047
     15 C           1.0784    0.9948   19.3108 C.ar    1  UNL1       -0.0027
     16 C           0.9717   -0.1008   20.3296 C.ar    1  UNL1       -0.0003
     17 C           1.9596   -1.2294   20.3234 C.ar    1  UNL1        0.0290
     18 C           3.0542   -1.2625   19.2983 C.ar    1  UNL1        0.1361
     19 F           4.0421   -2.3912   19.2922 F       1  UNL1       -0.2045
     20 C          -2.9006    3.7927   25.4412 C.2     1  UNL1        0.2639
     21 O          -3.8490    3.7289   26.6016 O.2     1  UNL1       -0.2685
     22 N          -1.4330    3.9878   25.6820 N.am    1  UNL1       -0.2957
     23 H          -0.8105    4.0297   24.9204 H       1  UNL1        0.1501
     24 C          -0.9138    4.1191   27.0831 C.3     1  UNL1        0.1166
     25 C          -0.3153    2.9306   27.7757 C.ar    1  UNL1       -0.0027
     26 C           1.0872    2.9978   28.3034 C.ar    1  UNL1       -0.0003
     27 C           1.6856    1.8095   28.9959 C.ar    1  UNL1        0.0290
     28 C           0.8816    0.5539   29.1607 C.ar    1  UNL1        0.1361
     29 F           1.4801   -0.6345   29.8533 F       1  UNL1       -0.2045
     30 C          -0.5208    0.4867   28.6330 C.ar    1  UNL1        0.0053
     31 C          -1.3248   -0.7688   28.7977 C.3     1  UNL1        0.0334
     32 C          -1.1193    1.6751   27.9404 C.ar    1  UNL1       -0.0047
@<TRIPOS>BOND
     1    12    13    1
     2    13    14   ar
     3    14    15   ar
     4    15    11    1
     5    11     7    1
     6     7     8   am
     7     8     9    2
     8     8     1    1
     9     1     2   ar
    10     2     3   ar
    11     3    20    1
    12    20    21    2
    13    20    22   am
    14    22    24    1
    15    24    25    1
    16    25    26   ar
    17    26    27   ar
    18    27    28   ar
    19    28    29    1
    20    28    30   ar
    21    30    31    1
    22    30    32   ar
    23     3     4   ar
    24     4     5   ar
    25     5     6   ar
    26    15    16   ar
    27    16    17   ar
    28    17    18   ar
    29    18    19    1
    30    18    13   ar
    31     6     1   ar
    32    32    25   ar
    33     7    10    1
    34    22    23    1
@<TRIPOS>MOLECULE
*****
 32 34 0 0 0
SMALL
GASTEIGER

@<TRIPOS>ATOM
      1 C          -1.1448    4.1466   20.0230 C.ar    1  UNL1        0.1378
      2 C          -0.4774    2.9040   19.5125 C.ar    1  UNL1        0.0475
      3 C           0.9882    2.9169   19.1934 C.ar    1  UNL1        0.1378
      4 N           1.7864    4.1724   19.3849 N.ar    1  UNL1       -0.2193
      5 C           1.1190    5.4150   19.8954 C.ar    1  UNL1        0.1991
      6 N          -0.3466    5.4021   20.2145 N.ar    1  UNL1       -0.2193
      7 N          -3.2107    2.9635   21.0634 N.am    1  UNL1       -0.2957
      8 C          -2.6104    4.1337   20.3420 C.2     1  UNL1        0.2639
      9 O          -3.4758    5.2910   19.9397 O.2     1  UNL1       -0.2685
     10 H          -2.6427    2.2040   21.3275 H       1  UNL1        0.1501
     11 C          -4.6763    2.9506   21.3824 C.3     1  UNL1        0.1166
     12 C          -4.0523    3.9216   26.4488 C.3     1  UNL1        0.0334
     13 C          -4.8596    4.0507   25.1912 C.ar    1  UNL1        0.0053
     14 C          -4.3643    3.4361   23.9156 C.ar    1  UNL1       -0.0047
     15 C          -5.1716    3.5652   22.6580 C.ar    1  UNL1       -0.0027
     16 C          -6.4742    4.3088   22.6760 C.ar    1  UNL1       -0.0003
     17 C          -6.9695    4.9233   23.9515 C.ar    1  UNL1        0.0290
     18 C          -6.1622    4.7942   25.2091 C.ar    1  UNL1        0.1361
     19 F          -6.6575    5.4088   26.4847 F       1  UNL1       -0.2045
     20 C           1.6556    1.6743   18.6829 C.2     1  UNL1        0.2639
     21 O           0.8259    0.5186   18.2077 O.2     1  UNL1       -0.2685
     22 N           3.1526    1.5875   18.6475 N.am    1  UNL1       -0.2957
     23 H           3.6972    2.3461   18.9593 H       1  UNL1        0.1501
     24 C           3.8199    0.3450   18.1369 C.3     1  UNL1        0.1166
     25 C           3.9577   -0.8530   19.0291 C.ar    1  UNL1       -0.0027
     26 C           3.8748   -0.6926   20.5182 C.ar    1  UNL1       -0.0003
     27 C           4.0126   -1.8905   21.4104 C.ar    1  UNL1        0.0290
     28 C           4.2333   -3.2489   20.8135 C.ar    1  UNL1        0.1361
     29 F           4.3710   -4.4468   21.7057 F       1  UNL1       -0.2045
     30 C           4.3162   -3.4093   19.3244 C.ar    1  UNL1        0.0053
     31 C           4.5369   -4.7675   18.7275 C.3     1  UNL1        0.0334
     32 C           4.1784   -2.2113   18.4322 C.ar    1  UNL1       -0.0047
@<TRIPOS>BOND
     1    12    13    1
     2    13    14   ar
     3    14    15   ar
     4    15    11    1
     5    11     7    1
     6     7     8   am
     7     8     9    2
     8     8     1    1
     9     1     2   ar
    10     2     3   ar
    11     3    20    1
    12    20    21    2
    13    20    22   am
    14    22    24    1
    15    24    25    1
    16    25    26   ar
    17    26    27   ar
    18    27    28   ar
    19    28    29    1
    20    28    30   ar
    21    30    31    1
    22    30    32   ar
    23     3     4   ar
    24     4     5   ar
    25     5     6   ar
    26    15    16   ar
    27    16    17   ar
    28    17    18   ar
    29    18    19    1
    30    18    13   ar
    31     6     1   ar
    32    32    25   ar
    33     7    10    1
    34    22    23    1
@<TRIPOS>MOLECULE
*****
 32 34 0 0 0
SMALL
GASTEIGER

@<TRIPOS>ATOM
      1 C          -3.6341  -18.7628   21.8793 C.ar    1  UNL1        0.1378
      2 C          -5.0064  -19.1005   21.3766 C.ar    1  UNL1        0.0475
      3 C          -5.1741  -20.0855   20.2579 C.ar    1  UNL1        0.1378
      4 N          -3.9694  -20.7330   19.6418 N.ar    1  UNL1       -0.2193
      5 C          -2.5970  -20.3953   20.1445 C.ar    1  UNL1        0.1991
      6 N          -2.4294  -19.4103   21.2632 N.ar    1  UNL1       -0.2193
      7 N          -4.6098  -16.8915   23.3945 N.am    1  UNL1       -0.2957
      8 C          -3.4665  -17.7778   22.9980 C.2     1  UNL1        0.2639
      9 O          -2.1554  -17.6790   23.7201 O.2     1  UNL1       -0.2685
     10 H          -5.4702  -16.9564   22.9206 H       1  UNL1        0.1501
     11 C          -4.4421  -15.9065   24.5133 C.3     1  UNL1        0.1166
     12 C          -9.5719  -15.5132   25.2419 C.3     1  UNL1        0.0334
     13 C          -8.1716  -15.3728   25.7609 C.ar    1  UNL1        0.0053
     14 C          -7.0070  -15.7098   24.8776 C.ar    1  UNL1       -0.0047
     15 C          -5.6067  -15.5694   25.3966 C.ar    1  UNL1       -0.0027
     16 C          -5.3709  -15.0920   26.7989 C.ar    1  UNL1       -0.0003
     17 C          -6.5355  -14.7550   27.6822 C.ar    1  UNL1        0.0290
     18 C          -7.9358  -14.8954   27.1632 C.ar    1  UNL1        0.1361
     19 F          -9.1004  -14.5584   28.0465 F       1  UNL1       -0.2045
     20 C          -6.5465  -20.4232   19.7552 C.2     1  UNL1        0.2639
     21 O          -6.8648  -21.8254   19.3280 O.2     1  UNL1       -0.2685
     22 N          -7.6005  -19.3586   19.6798 N.am    1  UNL1       -0.2957
     23 H          -7.3916  -18.4383   19.9601 H       1  UNL1        0.1501
     24 C          -8.9728  -19.6963   19.1771 C.3     1  UNL1        0.1166
     25 C         -10.1834  -19.2123   19.9190 C.ar    1  UNL1       -0.0027
     26 C         -10.8315  -20.0886   20.9496 C.ar    1  UNL1       -0.0003
     27 C         -12.0420  -19.6047   21.6914 C.ar    1  UNL1        0.0290
     28 C         -12.6045  -18.2444   21.4027 C.ar    1  UNL1        0.1361
     29 F         -13.8151  -17.7605   22.1446 F       1  UNL1       -0.2045
     30 C         -11.9565  -17.3681   20.3722 C.ar    1  UNL1        0.0053
     31 C         -12.5189  -16.0079   20.0835 C.3     1  UNL1        0.0334
     32 C         -10.7459  -17.8521   19.6303 C.ar    1  UNL1       -0.0047
@<TRIPOS>BOND
     1    12    13    1
     2    13    14   ar
     3    14    15   ar
     4    15    11    1
     5    11     7    1
     6     7     8   am
     7     8     9    2
     8     8     1    1
     9     1     2   ar
    10     2     3   ar
    11     3    20    1
    12    20    21    2
    13    20    22   am
    14    22    24    1
    15    24    25    1
    16    25    26   ar
    17    26    27   ar
    18    27    28   ar
    19    28    29    1
    20    28    30   ar
    21    30    31    1
    22    30    32   ar
    23     3     4   ar
    24     4     5   ar
    25     5     6   ar
    26    15    16   ar
    27    16    17   ar
    28    17    18   ar
    29    18    19    1
    30    18    13   ar
    31     6     1   ar
    32    32    25   ar
    33     7    10    1
    34    22    23    1
@<TRIPOS>MOLECULE
*****
 32 34 0 0 0
SMALL
GASTEIGER

@<TRIPOS>ATOM
      1 C          -2.1949    3.5659   19.7063 C.ar    1  UNL1        0.1378
      2 C          -1.1852    2.6509   20.3334 C.ar    1  UNL1        0.0475
      3 C           0.0501    2.2649   19.5751 C.ar    1  UNL1        0.1378
      4 N           0.2757    2.7938   18.1898 N.ar    1  UNL1       -0.2193
      5 C          -0.7340    3.7089   17.5626 C.ar    1  UNL1        0.1991
      6 N          -1.9693    4.0949   18.3209 N.ar    1  UNL1       -0.2193
      7 N          -4.2680    2.8953   21.1213 N.am    1  UNL1       -0.2957
      8 C          -3.4302    3.9520   20.4646 C.2     1  UNL1        0.2639
      9 O          -3.8277    5.3949   20.5661 O.2     1  UNL1       -0.2685
     10 H          -4.0072    1.9483   21.0547 H       1  UNL1        0.1501
     11 C          -5.5033    3.2813   21.8796 C.3     1  UNL1        0.1166
     12 C          -2.8807    3.5716   26.3559 C.3     1  UNL1        0.0334
     13 C          -4.0812    3.9240   25.5285 C.ar    1  UNL1        0.0053
     14 C          -4.1921    3.4265   24.1178 C.ar    1  UNL1       -0.0047
     15 C          -5.3926    3.7789   23.2904 C.ar    1  UNL1       -0.0027
     16 C          -6.4823    4.6287   23.8737 C.ar    1  UNL1       -0.0003
     17 C          -6.3715    5.1261   25.2844 C.ar    1  UNL1        0.0290
     18 C          -5.1710    4.7738   26.1118 C.ar    1  UNL1        0.1361
     19 F          -5.0602    5.2713   27.5226 F       1  UNL1       -0.2045
     20 C           1.0598    1.3498   20.2023 C.2     1  UNL1        0.2639
     21 O           2.1157    1.9076   21.1100 O.2     1  UNL1       -0.2685
     22 N           1.0135   -0.1230   19.9217 N.am    1  UNL1       -0.2957
     23 H           0.3205   -0.4891   19.3260 H       1  UNL1        0.1501
     24 C           2.0232   -1.0380   20.5489 C.3     1  UNL1        0.1166
     25 C           3.2427   -1.4498   19.7786 C.ar    1  UNL1       -0.0027
     26 C           3.7850   -2.8411   19.9206 C.ar    1  UNL1       -0.0003
     27 C           5.0044   -3.2530   19.1504 C.ar    1  UNL1        0.0290
     28 C           5.6816   -2.2736   18.2380 C.ar    1  UNL1        0.1361
     29 F           6.9010   -2.6855   17.4678 F       1  UNL1       -0.2045
     30 C           5.1392   -0.8823   18.0960 C.ar    1  UNL1        0.0053
     31 C           5.8163    0.0971   17.1837 C.3     1  UNL1        0.0334
     32 C           3.9197   -0.4705   18.8663 C.ar    1  UNL1       -0.0047
@<TRIPOS>BOND
     1    12    13    1
     2    13    14   ar
     3    14    15   ar
     4    15    11    1
     5    11     7    1
     6     7     8   am
     7     8     9    2
     8     8     1    1
     9     1     2   ar
    10     2     3   ar
    11     3    20    1
    12    20    21    2
    13    20    22   am
    14    22    24    1
    15    24    25    1
    16    25    26   ar
    17    26    27   ar
    18    27    28   ar
    19    28    29    1
    20    28    30   ar
    21    30    31    1
    22    30    32   ar
    23     3     4   ar
    24     4     5   ar
    25     5     6   ar
    26    15    16   ar
    27    16    17   ar
    28    17    18   ar
    29    18    19    1
    30    18    13   ar
    31     6     1   ar
    32    32    25   ar
    33     7    10    1
    34    22    23    1
