@<TRIPOS>MOLECULE
*****
 27 28 0 0 0
SMALL
GASTEIGER

@<TRIPOS>ATOM
      1 C           6.6977   -4.4476   28.5151 C.ar    1  UNK1        0.1680
      2 N           6.4335   -3.1519   27.8070 N.ar    1  UNK1       -0.2356
      3 C           6.5181   -3.0840   26.3109 C.ar    0  UNK0        0.1074
      4 C           6.8668   -4.3118   25.5230 C.ar    1  UNK1        0.0639
      5 C           7.1309   -5.6075   26.2311 C.ar    1  UNK1        0.0481
      6 C           7.0464   -5.6754   27.7272 C.ar    1  UNK1        0.1563
      7 O           7.3105   -6.9711   28.4353 O.3     1  UNK1       -0.5038
      8 H           7.5283   -7.7381   27.9430 H       1  UNK1        0.2923
      9 N           6.2690   -3.2866   30.7995 N.am    2  GLY2       -0.2946
     10 C           6.6131   -4.5155   30.0112 C.2     1  UNK1        0.2669
     11 O           6.8726   -5.8122   30.7190 O.2     1  UNK1       -0.2684
     12 H           6.0987   -2.4354   30.3349 H       2  GLY2        0.1501
     13 CA          6.1844   -3.3545   32.2955 C.3     2  GLY2        0.1319
     14 O           5.6267   -0.9852   33.2043 O.co2   2  GLY2       -0.5474
     15 C           5.2640   -2.4311   33.0374 C.2     2  GLY2        0.0702
     16 OXT         3.9809   -2.9537   33.6123 O.co2   2  GLY2       -0.5474
     17 C           6.9514   -4.2439   24.0269 C.1     1  UNK1       -0.0591
     18 C           7.0360   -4.1761   22.5308 C.1     1  UNK1       -0.0392
     19 C           7.1206   -4.1082   21.0348 C.3     1  UNK1        0.2814
     20 O           5.9061   -4.3916   20.2013 O.3     1  UNK1       -0.4612
     21 C           5.0874   -3.2578   19.6589 C.ar    1  UNK1        0.1401
     22 C           4.0054   -2.6453   20.4981 C.ar    1  UNK1        0.0378
     23 C           3.1868   -1.5115   19.9557 C.ar    1  UNK1        0.0145
     24 C           3.4501   -0.9901   18.5741 C.ar    1  UNK1        0.0579
     25 CL          2.6314    0.1437   18.0317 Cl      1  UNK1       -0.0822
     26 C           4.5320   -1.6025   17.7349 C.ar    1  UNK1        0.0145
     27 C           5.3507   -2.7364   18.2773 C.ar    1  UNK1        0.0378
@<TRIPOS>UNITY_ATOM_ATTR
14 1
charge -1
@<TRIPOS>BOND
     1    14    15   ar
     2    15    16   ar
     3    15    13    1
     4    13     9    1
     5     9    10   am
     6    10    11    2
     7    10     1    1
     8     1     2   ar
     9     2     3   ar
    10     3     4   ar
    11     4    17    1
    12    17    18    3
    13    18    19    1
    14    19    20    1
    15    20    21    1
    16    21    22   ar
    17    22    23   ar
    18    23    24   ar
    19    24    25    1
    20    24    26   ar
    21    26    27   ar
    22     4     5   ar
    23     5     6   ar
    24     6     7    1
    25     6     1   ar
    26    27    21   ar
    27     9    12    1
    28     7     8    1
@<TRIPOS>MOLECULE
*****
 27 28 0 0 0
SMALL
GASTEIGER

@<TRIPOS>ATOM
      1 C           7.9407   -7.9954   26.7453 C.ar    1  UNK1        0.1680
      2 N           7.9892   -7.8664   25.2517 N.ar    1  UNK1       -0.2356
      3 C           7.8273   -6.5205   24.6096 C.ar    0  UNK0        0.1074
      4 C           7.6170   -5.3036   25.4610 C.ar    1  UNK1        0.0639
      5 C           7.5686   -5.4327   26.9546 C.ar    1  UNK1        0.0481
      6 C           7.7305   -6.7786   27.5968 C.ar    1  UNK1        0.1563
      7 O           7.6820   -6.9076   29.0905 O.3     1  UNK1       -0.5038
      8 H           7.5507   -6.1475   29.6224 H       1  UNK1        0.2923
      9 N           6.9002  -10.2022   27.6383 N.am    2  GLY2       -0.2946
     10 C           8.1026   -9.3413   27.3875 C.2     1  UNK1        0.2669
     11 O           9.4670   -9.8264   27.7788 O.2     1  UNK1       -0.2684
     12 H           6.0047   -9.8838   27.3814 H       2  GLY2        0.1501
     13 CA          7.0620  -11.5481   28.2805 C.3     2  GLY2        0.1319
     14 O           5.2051  -13.1421   29.1526 O.co2   2  GLY2       -0.5474
     15 C           6.0511  -12.6268   28.0264 C.2     2  GLY2        0.0702
     16 OXT         5.8863  -13.1900   26.6459 O.co2   2  GLY2       -0.5474
     17 C           7.4551   -3.9577   24.8189 C.1     1  UNK1       -0.0591
     18 C           7.2932   -2.6118   24.1767 C.1     1  UNK1       -0.0392
     19 C           7.1313   -1.2660   23.5346 C.3     1  UNK1        0.2814
     20 O           7.0424   -1.1532   22.0415 O.3     1  UNK1       -0.4612
     21 C           6.0560   -1.9913   21.2835 C.ar    1  UNK1        0.1401
     22 C           4.6405   -1.5217   21.1221 C.ar    1  UNK1        0.0378
     23 C           3.6541   -2.3598   20.3640 C.ar    1  UNK1        0.0145
     24 C           4.0832   -3.6675   19.7674 C.ar    1  UNK1        0.0579
     25 CL          3.0968   -4.5057   19.0094 Cl      1  UNK1       -0.0822
     26 C           5.4986   -4.1370   19.9288 C.ar    1  UNK1        0.0145
     27 C           6.4850   -3.2989   20.6868 C.ar    1  UNK1        0.0378
@<TRIPOS>UNITY_ATOM_ATTR
14 1
charge -1
@<TRIPOS>BOND
     1    14    15   ar
     2    15    16   ar
     3    15    13    1
     4    13     9    1
     5     9    10   am
     6    10    11    2
     7    10     1    1
     8     1     2   ar
     9     2     3   ar
    10     3     4   ar
    11     4    17    1
    12    17    18    3
    13    18    19    1
    14    19    20    1
    15    20    21    1
    16    21    22   ar
    17    22    23   ar
    18    23    24   ar
    19    24    25    1
    20    24    26   ar
    21    26    27   ar
    22     4     5   ar
    23     5     6   ar
    24     6     7    1
    25     6     1   ar
    26    27    21   ar
    27     9    12    1
    28     7     8    1
@<TRIPOS>MOLECULE
*****
 27 28 0 0 0
SMALL
GASTEIGER

@<TRIPOS>ATOM
      1 C           0.9245    1.2646   23.8302 C.ar    1  UNK1        0.1680
      2 N           0.3467    1.8780   22.5894 N.ar    1  UNK1       -0.2356
      3 C           0.8849    1.4949   21.2427 C.ar    0  UNK0        0.1074
      4 C           2.0009    0.4983   21.1369 C.ar    1  UNK1        0.0639
      5 C           2.5788   -0.1151   22.3777 C.ar    1  UNK1        0.0481
      6 C           2.0406    0.2680   23.7244 C.ar    1  UNK1        0.1563
      7 O           2.6184   -0.3455   24.9653 O.3     1  UNK1       -0.5038
      8 H           3.3156   -0.9680   24.8992 H       1  UNK1        0.2923
      9 N           0.1918    0.6001   26.2326 N.am    2  GLY2       -0.2946
     10 C           0.3863    1.6477   25.1769 C.2     1  UNK1        0.2669
     11 O           0.0427    3.0785   25.4679 O.2     1  UNK1       -0.2684
     12 H           0.4173   -0.3390   26.0416 H       2  GLY2        0.1501
     13 CA         -0.3465    0.9832   27.5793 C.3     2  GLY2        0.1319
     14 O          -1.6846   -0.9288   28.7211 O.co2   2  GLY2       -0.5474
     15 C          -0.4703   -0.0504   28.6593 C.2     2  GLY2        0.0702
     16 OXT         0.6203   -0.2057   29.6774 O.co2   2  GLY2       -0.5474
     17 C           2.5392    0.1152   19.7902 C.1     1  UNK1       -0.0591
     18 C           3.0774   -0.2680   18.4435 C.1     1  UNK1       -0.0392
     19 C           3.6156   -0.6511   17.0968 C.3     1  UNK1        0.2814
     20 O           4.6627   -1.7191   16.9838 O.3     1  UNK1       -0.4612
     21 C           5.2603   -2.3177   18.2226 C.ar    1  UNK1        0.1401
     22 C           6.4866   -1.7073   18.8340 C.ar    1  UNK1        0.0378
     23 C           7.0843   -2.3059   20.0728 C.ar    1  UNK1        0.0145
     24 C           6.4556   -3.5147   20.7002 C.ar    1  UNK1        0.0579
     25 CL          7.0532   -4.1132   21.9390 Cl      1  UNK1       -0.0822
     26 C           5.2294   -4.1250   20.0888 C.ar    1  UNK1        0.0145
     27 C           4.6317   -3.5265   18.8500 C.ar    1  UNK1        0.0378
@<TRIPOS>UNITY_ATOM_ATTR
14 1
charge -1
@<TRIPOS>BOND
     1    14    15   ar
     2    15    16   ar
     3    15    13    1
     4    13     9    1
     5     9    10   am
     6    10    11    2
     7    10     1    1
     8     1     2   ar
     9     2     3   ar
    10     3     4   ar
    11     4    17    1
    12    17    18    3
    13    18    19    1
    14    19    20    1
    15    20    21    1
    16    21    22   ar
    17    22    23   ar
    18    23    24   ar
    19    24    25    1
    20    24    26   ar
    21    26    27   ar
    22     4     5   ar
    23     5     6   ar
    24     6     7    1
    25     6     1   ar
    26    27    21   ar
    27     9    12    1
    28     7     8    1
@<TRIPOS>MOLECULE
*****
 27 28 0 0 0
SMALL
GASTEIGER

@<TRIPOS>ATOM
      1 C         -11.8937   -2.3223   18.2936 C.ar    1  UNK1        0.1680
      2 N         -13.2572   -2.5932   18.8569 N.ar    1  UNK1       -0.2356
      3 C         -14.2280   -1.4656   19.0464 C.ar    0  UNK0        0.1074
      4 C         -13.8354   -0.0671   18.6725 C.ar    1  UNK1        0.0639
      5 C         -12.4719    0.2039   18.1092 C.ar    1  UNK1        0.0481
      6 C         -11.5010   -0.9238   17.9197 C.ar    1  UNK1        0.1563
      7 O         -10.1374   -0.6528   17.3564 O.3     1  UNK1       -0.5038
      8 H          -9.8922    0.2209   17.1228 H       1  UNK1        0.2923
      9 N         -10.6047   -4.3660   19.2484 N.am    2  GLY2       -0.2946
     10 C         -10.9228   -3.4499   18.1041 C.2     1  UNK1        0.2669
     11 O         -10.2701   -3.6615   16.7703 O.2     1  UNK1       -0.2684
     12 H         -11.0331   -4.2272   20.1239 H       2  GLY2        0.1501
     13 CA         -9.6338   -5.4936   19.0590 C.3     2  GLY2        0.1319
     14 O          -9.1672   -7.9576   18.3797 O.co2   2  GLY2       -0.5474
     15 C         -10.1363   -6.8698   18.7367 C.2     2  GLY2        0.0702
     16 OXT       -11.6080   -7.1581   18.7714 O.co2   2  GLY2       -0.5474
     17 C         -14.8062    1.0606   18.8620 C.1     1  UNK1       -0.0591
     18 C         -15.7771    2.1882   19.0515 C.1     1  UNK1       -0.0392
     19 C         -16.7479    3.3158   19.2410 C.3     1  UNK1        0.2814
     20 O         -16.3080    4.5779   19.9217 O.3     1  UNK1       -0.4612
     21 C         -15.9324    4.5552   21.3738 C.ar    1  UNK1        0.1401
     22 C         -14.6258    5.1419   21.8198 C.ar    1  UNK1        0.0378
     23 C         -14.2502    5.1191   23.2718 C.ar    1  UNK1        0.0145
     24 C         -15.1812    4.5096   24.2778 C.ar    1  UNK1        0.0579
     25 CL        -14.8055    4.4869   25.7299 Cl      1  UNK1       -0.0822
     26 C         -16.4876    3.9230   23.8318 C.ar    1  UNK1        0.0145
     27 C         -16.8632    3.9457   22.3798 C.ar    1  UNK1        0.0378
@<TRIPOS>UNITY_ATOM_ATTR
14 1
charge -1
@<TRIPOS>BOND
     1    14    15   ar
     2    15    16   ar
     3    15    13    1
     4    13     9    1
     5     9    10   am
     6    10    11    2
     7    10     1    1
     8     1     2   ar
     9     2     3   ar
    10     3     4   ar
    11     4    17    1
    12    17    18    3
    13    18    19    1
    14    19    20    1
    15    20    21    1
    16    21    22   ar
    17    22    23   ar
    18    23    24   ar
    19    24    25    1
    20    24    26   ar
    21    26    27   ar
    22     4     5   ar
    23     5     6   ar
    24     6     7    1
    25     6     1   ar
    26    27    21   ar
    27     9    12    1
    28     7     8    1
@<TRIPOS>MOLECULE
*****
 27 28 0 0 0
SMALL
GASTEIGER

@<TRIPOS>ATOM
      1 C          -1.2739    2.8185   20.0663 C.ar    1  UNK1        0.1680
      2 N          -0.7446    1.5573   20.6819 N.ar    1  UNK1       -0.2356
      3 C           0.4542    0.8787   20.0881 C.ar    0  UNK0        0.1074
      4 C           1.1235    1.4613   18.8788 C.ar    1  UNK1        0.0639
      5 C           0.5941    2.7226   18.2633 C.ar    1  UNK1        0.0481
      6 C          -0.6046    3.4012   18.8570 C.ar    1  UNK1        0.1563
      7 O          -1.1340    4.6625   18.2414 O.3     1  UNK1       -0.5038
      8 H          -0.7158    5.0265   17.4860 H       1  UNK1        0.2923
      9 N          -3.7496    2.7333   20.8498 N.am    2  GLY2       -0.2946
     10 C          -2.4727    3.4971   20.6601 C.2     1  UNK1        0.2669
     11 O          -2.3945    4.9395   21.0641 O.2     1  UNK1       -0.2684
     12 H          -3.8009    1.7866   20.5846 H       2  GLY2        0.1501
     13 CA         -4.9483    3.4119   21.4436 C.3     2  GLY2        0.1319
     14 O          -6.3701    3.9902   23.5398 O.co2   2  GLY2       -0.5474
     15 C          -5.0714    3.5499   22.9322 C.2     2  GLY2        0.0702
     16 OXT        -3.8956    3.2474   23.8131 O.co2   2  GLY2       -0.5474
     17 C           2.3222    0.7827   18.2850 C.1     1  UNK1       -0.0591
     18 C           3.5210    0.1041   17.6913 C.1     1  UNK1       -0.0392
     19 C           4.7197   -0.5745   17.0975 C.3     1  UNK1        0.2814
     20 O           4.9526   -2.0358   17.3431 O.3     1  UNK1       -0.4612
     21 C           5.2062   -2.5312   18.7360 C.ar    1  UNK1        0.1401
     22 C           4.1696   -3.3570   19.4387 C.ar    1  UNK1        0.0378
     23 C           4.4232   -3.8523   20.8316 C.ar    1  UNK1        0.0145
     24 C           5.7133   -3.5219   21.5219 C.ar    1  UNK1        0.0579
     25 CL          5.9669   -4.0173   22.9148 Cl      1  UNK1       -0.0822
     26 C           6.7498   -2.6962   20.8192 C.ar    1  UNK1        0.0145
     27 C           6.4962   -2.2008   19.4263 C.ar    1  UNK1        0.0378
@<TRIPOS>UNITY_ATOM_ATTR
14 1
charge -1
@<TRIPOS>BOND
     1    14    15   ar
     2    15    16   ar
     3    15    13    1
     4    13     9    1
     5     9    10   am
     6    10    11    2
     7    10     1    1
     8     1     2   ar
     9     2     3   ar
    10     3     4   ar
    11     4    17    1
    12    17    18    3
    13    18    19    1
    14    19    20    1
    15    20    21    1
    16    21    22   ar
    17    22    23   ar
    18    23    24   ar
    19    24    25    1
    20    24    26   ar
    21    26    27   ar
    22     4     5   ar
    23     5     6   ar
    24     6     7    1
    25     6     1   ar
    26    27    21   ar
    27     9    12    1
    28     7     8    1
@<TRIPOS>MOLECULE
*****
 27 28 0 0 0
SMALL
GASTEIGER

@<TRIPOS>ATOM
      1 C           7.8193   -4.8409   25.8206 C.ar    1  UNK1        0.1680
      2 N           7.8078   -5.1262   27.2932 N.ar    1  UNK1       -0.2356
      3 C           7.7389   -6.5425   27.7823 C.ar    0  UNK0        0.1074
      4 C           7.6815   -7.6736   26.7989 C.ar    1  UNK1        0.0639
      5 C           7.6930   -7.3884   25.3263 C.ar    1  UNK1        0.0481
      6 C           7.7619   -5.9721   24.8372 C.ar    1  UNK1        0.1563
      7 O           7.7734   -5.6869   23.3645 O.3     1  UNK1       -0.5038
      8 H           7.7376   -6.3935   22.7502 H       1  UNK1        0.2923
      9 N           7.1313   -3.0181   24.1020 N.am    2  GLY2       -0.2946
     10 C           7.8882   -3.4246   25.3315 C.2     1  UNK1        0.2669
     11 O           8.7139   -2.4148   26.0720 O.2     1  UNK1       -0.2684
     12 H           6.5893   -3.6809   23.6160 H       2  GLY2        0.1501
     13 CA          7.2002   -1.6017   23.6129 C.3     2  GLY2        0.1319
     14 O           8.7286   -1.4452   21.5178 O.co2   2  GLY2       -0.5474
     15 C           7.3739   -1.3212   22.1496 C.2     2  GLY2        0.0702
     16 OXT         6.1928   -0.9167   21.3181 O.co2   2  GLY2       -0.5474
     17 C           7.6126   -9.0900   27.2880 C.1     1  UNK1       -0.0591
     18 C           7.5437  -10.5063   27.7771 C.1     1  UNK1       -0.0392
     19 C           7.4748  -11.9227   28.2662 C.3     1  UNK1        0.2814
     20 O           6.5869  -12.9131   27.5730 O.3     1  UNK1       -0.4612
     21 C           5.1272  -12.9777   27.9121 C.ar    1  UNK1        0.1401
     22 C           4.6081  -12.2717   29.1296 C.ar    1  UNK1        0.0378
     23 C           3.1483  -12.3362   29.4686 C.ar    1  UNK1        0.0145
     24 C           2.2077  -13.1068   28.5903 C.ar    1  UNK1        0.0579
     25 CL          0.7479  -13.1713   28.9293 Cl      1  UNK1       -0.0822
     26 C           2.7268  -13.8128   27.3729 C.ar    1  UNK1        0.0145
     27 C           4.1865  -13.7482   27.0338 C.ar    1  UNK1        0.0378
@<TRIPOS>UNITY_ATOM_ATTR
14 1
charge -1
@<TRIPOS>BOND
     1    14    15   ar
     2    15    16   ar
     3    15    13    1
     4    13     9    1
     5     9    10   am
     6    10    11    2
     7    10     1    1
     8     1     2   ar
     9     2     3   ar
    10     3     4   ar
    11     4    17    1
    12    17    18    3
    13    18    19    1
    14    19    20    1
    15    20    21    1
    16    21    22   ar
    17    22    23   ar
    18    23    24   ar
    19    24    25    1
    20    24    26   ar
    21    26    27   ar
    22     4     5   ar
    23     5     6   ar
    24     6     7    1
    25     6     1   ar
    26    27    21   ar
    27     9    12    1
    28     7     8    1
@<TRIPOS>MOLECULE
*****
 27 28 0 0 0
SMALL
GASTEIGER

@<TRIPOS>ATOM
      1 C           1.3108    0.7431   27.9877 C.ar    1  UNK1        0.1680
      2 N           2.4681    0.7331   27.0335 N.ar    1  UNK1       -0.2356
      3 C           2.2386    0.9890   25.5735 C.ar    0  UNK0        0.1074
      4 C           0.8517    1.2549   25.0676 C.ar    1  UNK1        0.0639
      5 C          -0.3055    1.2649   26.0218 C.ar    1  UNK1        0.0481
      6 C          -0.0760    1.0090   27.4818 C.ar    1  UNK1        0.1563
      7 O          -1.2334    1.0190   28.4361 O.3     1  UNK1       -0.5038
      8 H          -2.0997    1.1851   28.1200 H       1  UNK1        0.2923
      9 N           2.7385   -0.2982   29.8923 N.am    2  GLY2       -0.2946
     10 C           1.5403    0.4872   29.4478 C.2     1  UNK1        0.2669
     11 O           0.5717    1.0166   30.4634 O.2     1  UNK1       -0.2684
     12 H           3.3742   -0.6457   29.2257 H       2  GLY2        0.1501
     13 CA          2.9680   -0.5541   31.3524 C.3     2  GLY2        0.1319
     14 O           3.9049   -2.4619   32.8467 O.co2   2  GLY2       -0.5474
     15 C           4.1141   -1.4165   31.7916 C.2     2  GLY2        0.0702
     16 OXT         5.4695   -1.2334   31.1755 O.co2   2  GLY2       -0.5474
     17 C           0.6222    1.5108   23.6075 C.1     1  UNK1       -0.0591
     18 C           0.3927    1.7667   22.1474 C.1     1  UNK1       -0.0392
     19 C           0.1631    2.0226   20.6873 C.3     1  UNK1        0.2814
     20 O           0.0865    0.8727   19.7273 O.3     1  UNK1       -0.4612
     21 C           1.3296    0.1174   19.3610 C.ar    1  UNK1        0.1401
     22 C           2.1298    0.5271   18.1602 C.ar    1  UNK1        0.0378
     23 C           3.3729   -0.2282   17.7939 C.ar    1  UNK1        0.0145
     24 C           3.8158   -1.3933   18.6285 C.ar    1  UNK1        0.0579
     25 CL          5.0589   -2.1486   18.2622 Cl      1  UNK1       -0.0822
     26 C           3.0157   -1.8030   19.8292 C.ar    1  UNK1        0.0145
     27 C           1.7726   -1.0477   20.1955 C.ar    1  UNK1        0.0378
@<TRIPOS>UNITY_ATOM_ATTR
14 1
charge -1
@<TRIPOS>BOND
     1    14    15   ar
     2    15    16   ar
     3    15    13    1
     4    13     9    1
     5     9    10   am
     6    10    11    2
     7    10     1    1
     8     1     2   ar
     9     2     3   ar
    10     3     4   ar
    11     4    17    1
    12    17    18    3
    13    18    19    1
    14    19    20    1
    15    20    21    1
    16    21    22   ar
    17    22    23   ar
    18    23    24   ar
    19    24    25    1
    20    24    26   ar
    21    26    27   ar
    22     4     5   ar
    23     5     6   ar
    24     6     7    1
    25     6     1   ar
    26    27    21   ar
    27     9    12    1
    28     7     8    1
@<TRIPOS>MOLECULE
*****
 27 28 0 0 0
SMALL
GASTEIGER

@<TRIPOS>ATOM
      1 C           7.9110   -5.7346   24.6250 C.ar    1  UNK1        0.1680
      2 N           8.6787   -6.0987   23.3889 N.ar    1  UNK1       -0.2356
      3 C           8.4482   -5.3439   22.1134 C.ar    0  UNK0        0.1074
      4 C           7.4501   -4.2249   22.0739 C.ar    1  UNK1        0.0639
      5 C           6.6825   -3.8607   23.3101 C.ar    1  UNK1        0.0481
      6 C           6.9129   -4.6156   24.5856 C.ar    1  UNK1        0.1563
      7 O           6.1452   -4.2514   25.8218 O.3     1  UNK1       -0.5038
      8 H           5.5217   -3.5524   25.7972 H       1  UNK1        0.2923
      9 N           8.4190   -5.7452   27.1729 N.am    2  GLY2       -0.2946
     10 C           8.1414   -6.4895   25.9006 C.2     1  UNK1        0.2669
     11 O           8.0943   -7.9887   25.9038 O.2     1  UNK1       -0.2684
     12 H           8.4499   -4.7611   27.1708 H       2  GLY2        0.1501
     13 CA          8.6494   -6.5000   28.4485 C.3     2  GLY2        0.1319
     14 O           6.5058   -5.5236   29.5447 O.co2   2  GLY2       -0.5474
     15 C           7.8593   -6.1566   29.6765 C.2     2  GLY2        0.0702
     16 OXT         8.4227   -6.4462   31.0361 O.co2   2  GLY2       -0.5474
     17 C           7.2197   -3.4700   20.7984 C.1     1  UNK1       -0.0591
     18 C           6.9893   -2.7151   19.5228 C.1     1  UNK1       -0.0392
     19 C           6.7588   -1.9602   18.2472 C.3     1  UNK1        0.2814
     20 O           5.4326   -2.0492   17.5522 O.3     1  UNK1       -0.4612
     21 C           4.2151   -1.4364   18.1783 C.ar    1  UNK1        0.1401
     22 C           3.5808   -0.2269   17.5579 C.ar    1  UNK1        0.0378
     23 C           2.3632    0.3859   18.1841 C.ar    1  UNK1        0.0145
     24 C           1.7800   -0.2108   19.4306 C.ar    1  UNK1        0.0579
     25 CL          0.5625    0.4020   20.0568 Cl      1  UNK1       -0.0822
     26 C           2.4143   -1.4202   20.0510 C.ar    1  UNK1        0.0145
     27 C           3.6318   -2.0330   19.4248 C.ar    1  UNK1        0.0378
@<TRIPOS>UNITY_ATOM_ATTR
14 1
charge -1
@<TRIPOS>BOND
     1    14    15   ar
     2    15    16   ar
     3    15    13    1
     4    13     9    1
     5     9    10   am
     6    10    11    2
     7    10     1    1
     8     1     2   ar
     9     2     3   ar
    10     3     4   ar
    11     4    17    1
    12    17    18    3
    13    18    19    1
    14    19    20    1
    15    20    21    1
    16    21    22   ar
    17    22    23   ar
    18    23    24   ar
    19    24    25    1
    20    24    26   ar
    21    26    27   ar
    22     4     5   ar
    23     5     6   ar
    24     6     7    1
    25     6     1   ar
    26    27    21   ar
    27     9    12    1
    28     7     8    1
@<TRIPOS>MOLECULE
*****
 27 28 0 0 0
SMALL
GASTEIGER

@<TRIPOS>ATOM
      1 C         -12.7163   -3.1362   18.5884 C.ar    1  UNK1        0.1680
      2 N         -12.9039   -1.7692   18.0001 N.ar    1  UNK1       -0.2356
      3 C         -13.9946   -0.8757   18.5120 C.ar    0  UNK0        0.1074
      4 C         -14.8976   -1.3491   19.6121 C.ar    1  UNK1        0.0639
      5 C         -14.7100   -2.7161   20.2004 C.ar    1  UNK1        0.0481
      6 C         -13.6193   -3.6096   19.6885 C.ar    1  UNK1        0.1563
      7 O         -13.4317   -4.9767   20.2768 O.3     1  UNK1       -0.5038
      8 H         -13.9958   -5.2724   20.9641 H       1  UNK1        0.2923
      9 N         -11.9338   -5.4480   17.6976 N.am    2  GLY2       -0.2946
     10 C         -11.6256   -4.0297   18.0765 C.2     1  UNK1        0.2669
     11 O         -10.2267   -3.5051   17.9435 O.2     1  UNK1       -0.2684
     12 H         -12.8520   -5.7924   17.7849 H       2  GLY2        0.1501
     13 CA        -10.8432   -6.3415   17.1858 C.3     2  GLY2        0.1319
     14 O          -9.4638   -6.4481   19.3849 O.co2   2  GLY2       -0.5474
     15 C          -9.9927   -7.1147   18.1497 C.2     2  GLY2        0.0702
     16 OXT        -9.6713   -8.5545   17.8783 O.co2   2  GLY2       -0.5474
     17 C         -15.9883   -0.4556   20.1240 C.1     1  UNK1       -0.0591
     18 C         -17.0789    0.4380   20.6359 C.1     1  UNK1       -0.0392
     19 C         -18.1696    1.3315   21.1478 C.3     1  UNK1        0.2814
     20 O         -17.9979    2.8212   21.1111 O.3     1  UNK1       -0.4612
     21 C         -16.9427    3.4755   21.9528 C.ar    1  UNK1        0.1401
     22 C         -17.0920    3.5162   23.4449 C.ar    1  UNK1        0.0378
     23 C         -16.0368    4.1704   24.2866 C.ar    1  UNK1        0.0145
     24 C         -14.8323    4.7840   23.6363 C.ar    1  UNK1        0.0579
     25 CL        -13.7771    5.4383   24.4780 Cl      1  UNK1       -0.0822
     26 C         -14.6831    4.7433   22.1443 C.ar    1  UNK1        0.0145
     27 C         -15.7382    4.0890   21.3026 C.ar    1  UNK1        0.0378
@<TRIPOS>UNITY_ATOM_ATTR
14 1
charge -1
@<TRIPOS>BOND
     1    14    15   ar
     2    15    16   ar
     3    15    13    1
     4    13     9    1
     5     9    10   am
     6    10    11    2
     7    10     1    1
     8     1     2   ar
     9     2     3   ar
    10     3     4   ar
    11     4    17    1
    12    17    18    3
    13    18    19    1
    14    19    20    1
    15    20    21    1
    16    21    22   ar
    17    22    23   ar
    18    23    24   ar
    19    24    25    1
    20    24    26   ar
    21    26    27   ar
    22     4     5   ar
    23     5     6   ar
    24     6     7    1
    25     6     1   ar
    26    27    21   ar
    27     9    12    1
    28     7     8    1
