@<TRIPOS>MOLECULE
*****
 34 38 0 0 0
SMALL
GASTEIGER

@<TRIPOS>ATOM
      1 N          -7.4895  -18.7244   21.7484 N.3     1  UNL1       -0.2679
      2 C          -8.8159  -19.1152   22.3300 C.3     1  UNL1        0.0978
      3 C          -8.8897  -20.1893   23.3743 C.3     1  UNL1        0.0224
      4 C         -10.2160  -20.5801   23.9558 C.3     1  UNL1        0.0065
      5 C         -11.4685  -19.8966   23.4931 C.3     1  UNL1        0.0277
      6 C         -11.3946  -18.8225   22.4488 C.ar    1  UNL1       -0.0073
      7 C         -12.6471  -18.1389   21.9860 C.ar    1  UNL1       -0.0015
      8 C         -12.5733  -17.0648   20.9417 C.ar    1  UNL1        0.0203
      9 C         -11.2470  -16.6740   20.3601 C.ar    1  UNL1        0.0985
     10 N          -9.9945  -17.3575   20.8229 N.ar    1  UNL1       -0.2471
     11 C         -10.0683  -18.4317   21.8672 C.ar    1  UNL1        0.0695
     12 C          -6.6133  -19.7635   21.1141 C.3     1  UNL1        0.0724
     13 C          -2.2638  -18.8861   20.3643 C.3     1  UNL1        0.0155
     14 C          -3.2611  -18.7383   19.2536 C.3     1  UNL1        0.0014
     15 C          -4.7109  -19.0308   19.5036 C.3     1  UNL1        0.0014
     16 C          -5.1635  -19.4711   20.8642 C.3     1  UNL1        0.0160
     17 C          -4.1662  -19.6189   21.9749 C.3     1  UNL1        0.0014
     18 C          -2.7164  -19.3264   21.7250 C.3     1  UNL1        0.0014
     19 N          -0.3957  -17.8994   18.8521 N.3     1  UNL1       -0.3211
     20 C          -0.8140  -18.5936   20.1143 C.3     1  UNL1        0.0651
     21 H           0.6176  -17.7825   18.8481 H       1  UNL1        0.1189
     22 H          -0.8438  -16.9844   18.8028 H       1  UNL1        0.1189
     23 C          -7.0395  -17.2945   21.8011 C.3     1  UNL1        0.0886
     24 C          -6.7734  -16.6402   23.1244 C.3     1  UNL1        0.0748
     25 C          -7.8935  -16.4435   24.1025 C.3     1  UNL1        0.0432
     26 C          -7.6274  -15.7892   25.4259 C.ar    1  UNL1       -0.0234
     27 C          -8.7475  -15.5924   26.4039 C.ar    1  UNL1       -0.0045
     28 C          -8.4814  -14.9382   27.7272 C.ar    1  UNL1       -0.0003
     29 C          -7.0952  -14.4807   28.0724 C.ar    1  UNL1       -0.0003
     30 C          -5.9751  -14.6775   27.0944 C.ar    1  UNL1       -0.0032
     31 C          -6.2412  -15.3317   25.7711 C.ar    1  UNL1       -0.0103
     32 C          -5.1211  -15.5285   24.7929 C.3     1  UNL1        0.0953
     33 N          -5.3872  -16.1828   23.4697 N.3     1  UNL1       -0.2934
     34 H          -4.7852  -17.0048   23.4213 H       1  UNL1        0.1236
@<TRIPOS>BOND
     1    19    20    1
     2    13    20    1
     3    13    14    1
     4    14    15    1
     5    15    16    1
     6    16    12    1
     7    12     1    1
     8     1    23    1
     9    24    23    1
    10    24    25    1
    11    25    26    1
    12    26    27   ar
    13    27    28   ar
    14    28    29   ar
    15    29    30   ar
    16    30    31   ar
    17    31    32    1
    18    32    33    1
    19     2     1    1
    20     2     3    1
    21     3     4    1
    22     4     5    1
    23     5     6    1
    24     6     7   ar
    25     7     8   ar
    26     8     9   ar
    27     9    10   ar
    28    10    11   ar
    29    16    17    1
    30    17    18    1
    31    18    13    1
    32    33    24    1
    33    11     2    1
    34    31    26   ar
    35    11     6   ar
    36    19    21    1
    37    19    22    1
    38    33    34    1
@<TRIPOS>MOLECULE
*****
 34 38 0 0 0
SMALL
GASTEIGER

@<TRIPOS>ATOM
      1 N          -7.6466  -18.4864   22.0912 N.3     1  UNL1       -0.2679
      2 C          -9.0291  -18.8365   22.5559 C.3     1  UNL1        0.0978
      3 C          -9.2266  -19.9229   23.5710 C.3     1  UNL1        0.0224
      4 C         -10.6092  -20.2730   24.0357 C.3     1  UNL1        0.0065
      5 C         -11.7943  -19.5366   23.4852 C.3     1  UNL1        0.0277
      6 C         -11.5969  -18.4501   22.4700 C.ar    1  UNL1       -0.0073
      7 C         -12.7821  -17.7136   21.9195 C.ar    1  UNL1       -0.0015
      8 C         -12.5846  -16.6272   20.9043 C.ar    1  UNL1        0.0203
      9 C         -11.2020  -16.2771   20.4397 C.ar    1  UNL1        0.0985
     10 N         -10.0169  -17.0135   20.9902 N.ar    1  UNL1       -0.2471
     11 C         -10.2143  -18.1001   22.0054 C.ar    1  UNL1        0.0695
     12 C          -7.1426  -17.0804   22.2289 C.3     1  UNL1        0.0724
     13 C          -6.7494  -15.2203   26.3076 C.3     1  UNL1        0.0155
     14 C          -8.1083  -15.5223   25.7488 C.3     1  UNL1        0.0014
     15 C          -8.2393  -16.1423   24.3892 C.3     1  UNL1        0.0014
     16 C          -7.0115  -16.4604   23.5885 C.3     1  UNL1        0.0160
     17 C          -5.6526  -16.1584   24.1473 C.3     1  UNL1        0.0014
     18 C          -5.5215  -15.5384   25.5068 C.3     1  UNL1        0.0014
     19 N          -7.8106  -13.9664   28.3205 N.3     1  UNL1       -0.3211
     20 C          -6.6184  -14.6003   27.6672 C.3     1  UNL1        0.0651
     21 H          -7.5426  -13.5984   29.2332 H       1  UNL1        0.1189
     22 H          -8.5453  -14.6643   28.4376 H       1  UNL1        0.1189
     23 C          -6.7679  -19.5424   21.4889 C.3     1  UNL1        0.0886
     24 C          -5.2953  -19.2981   21.3409 C.3     1  UNL1        0.0748
     25 C          -4.7447  -18.8022   20.0368 C.3     1  UNL1        0.0432
     26 C          -3.2721  -18.5579   19.8888 C.ar    1  UNL1       -0.0234
     27 C          -2.7214  -18.0620   18.5847 C.ar    1  UNL1       -0.0045
     28 C          -1.2489  -17.8177   18.4368 C.ar    1  UNL1       -0.0003
     29 C          -0.3270  -18.0694   19.5930 C.ar    1  UNL1       -0.0003
     30 C          -0.8776  -18.5653   20.8971 C.ar    1  UNL1       -0.0032
     31 C          -2.3502  -18.8096   21.0450 C.ar    1  UNL1       -0.0103
     32 C          -2.9009  -19.3055   22.3492 C.3     1  UNL1        0.0953
     33 N          -4.3734  -19.5498   22.4971 N.3     1  UNL1       -0.2934
     34 H          -4.6944  -18.9585   23.2637 H       1  UNL1        0.1236
@<TRIPOS>BOND
     1    19    20    1
     2    13    20    1
     3    13    14    1
     4    14    15    1
     5    15    16    1
     6    16    12    1
     7    12     1    1
     8     1    23    1
     9    24    23    1
    10    24    25    1
    11    25    26    1
    12    26    27   ar
    13    27    28   ar
    14    28    29   ar
    15    29    30   ar
    16    30    31   ar
    17    31    32    1
    18    32    33    1
    19     2     1    1
    20     2     3    1
    21     3     4    1
    22     4     5    1
    23     5     6    1
    24     6     7   ar
    25     7     8   ar
    26     8     9   ar
    27     9    10   ar
    28    10    11   ar
    29    16    17    1
    30    17    18    1
    31    18    13    1
    32    33    24    1
    33    11     2    1
    34    31    26   ar
    35    11     6   ar
    36    19    21    1
    37    19    22    1
    38    33    34    1
@<TRIPOS>MOLECULE
*****
 34 38 0 0 0
SMALL
GASTEIGER

@<TRIPOS>ATOM
      1 N          -5.9990  -19.2760   21.2805 N.3     1  UNL1       -0.2679
      2 C          -5.5209  -18.3686   22.3750 C.3     1  UNL1        0.0978
      3 C          -4.2435  -18.6754   23.0991 C.3     1  UNL1        0.0224
      4 C          -3.7653  -17.7680   24.1936 C.3     1  UNL1        0.0065
      5 C          -4.5645  -16.5539   24.5641 C.3     1  UNL1        0.0277
      6 C          -5.8418  -16.2471   23.8400 C.ar    1  UNL1       -0.0073
      7 C          -6.6410  -15.0330   24.2105 C.ar    1  UNL1       -0.0015
      8 C          -7.9183  -14.7262   23.4864 C.ar    1  UNL1        0.0203
      9 C          -8.3965  -15.6336   22.3919 C.ar    1  UNL1        0.0985
     10 N          -7.5974  -16.8477   22.0214 N.ar    1  UNL1       -0.2471
     11 C          -6.3200  -17.1545   22.7455 C.ar    1  UNL1        0.0695
     12 C          -5.2895  -19.2959   19.9591 C.3     1  UNL1        0.0724
     13 C          -0.9415  -18.1605   19.7227 C.3     1  UNL1        0.0155
     14 C          -1.9686  -17.3530   18.9859 C.3     1  UNL1        0.0014
     15 C          -3.4179  -17.7315   19.0647 C.3     1  UNL1        0.0014
     16 C          -3.8402  -18.9174   19.8803 C.3     1  UNL1        0.0160
     17 C          -2.8130  -19.7250   20.6171 C.3     1  UNL1        0.0014
     18 C          -1.3637  -19.3466   20.5383 C.3     1  UNL1        0.0014
     19 N           1.4023  -17.9877   20.8304 N.3     1  UNL1       -0.3211
     20 C           0.5078  -17.7821   19.6439 C.3     1  UNL1        0.0651
     21 H           2.3469  -17.6780   20.6019 H       1  UNL1        0.1189
     22 H           1.4190  -18.9775   21.0761 H       1  UNL1        0.1189
     23 C          -7.1868  -20.1635   21.5073 C.3     1  UNL1        0.0886
     24 C          -8.5578  -19.5663   21.6251 C.3     1  UNL1        0.0748
     25 C          -9.2898  -19.6207   22.9332 C.3     1  UNL1        0.0432
     26 C         -10.6607  -19.0235   23.0509 C.ar    1  UNL1       -0.0234
     27 C         -11.3927  -19.0779   24.3591 C.ar    1  UNL1       -0.0045
     28 C         -12.7636  -18.4807   24.4768 C.ar    1  UNL1       -0.0003
     29 C         -13.4025  -17.8290   23.2863 C.ar    1  UNL1       -0.0003
     30 C         -12.6706  -17.7745   21.9782 C.ar    1  UNL1       -0.0032
     31 C         -11.2997  -18.3718   21.8605 C.ar    1  UNL1       -0.0103
     32 C         -10.5676  -18.3173   20.5524 C.3     1  UNL1        0.0953
     33 N          -9.1967  -18.9146   20.4347 N.3     1  UNL1       -0.2934
     34 H          -8.5727  -18.1635   20.1399 H       1  UNL1        0.1236
@<TRIPOS>BOND
     1    19    20    1
     2    13    20    1
     3    13    14    1
     4    14    15    1
     5    15    16    1
     6    16    12    1
     7    12     1    1
     8     1    23    1
     9    24    23    1
    10    24    25    1
    11    25    26    1
    12    26    27   ar
    13    27    28   ar
    14    28    29   ar
    15    29    30   ar
    16    30    31   ar
    17    31    32    1
    18    32    33    1
    19     2     1    1
    20     2     3    1
    21     3     4    1
    22     4     5    1
    23     5     6    1
    24     6     7   ar
    25     7     8   ar
    26     8     9   ar
    27     9    10   ar
    28    10    11   ar
    29    16    17    1
    30    17    18    1
    31    18    13    1
    32    33    24    1
    33    11     2    1
    34    31    26   ar
    35    11     6   ar
    36    19    21    1
    37    19    22    1
    38    33    34    1
@<TRIPOS>MOLECULE
*****
 34 38 0 0 0
SMALL
GASTEIGER

@<TRIPOS>ATOM
      1 N          -8.4510  -17.6632   21.4349 N.3     1  UNL1       -0.2679
      2 C          -9.9487  -17.5885   21.3986 C.3     1  UNL1        0.0978
      3 C         -10.6447  -17.0797   20.1713 C.3     1  UNL1        0.0224
      4 C         -12.1424  -17.0050   20.1350 C.3     1  UNL1        0.0065
      5 C         -12.9441  -17.4392   21.3261 C.3     1  UNL1        0.0277
      6 C         -12.2480  -17.9481   22.5535 C.ar    1  UNL1       -0.0073
      7 C         -13.0497  -18.3824   23.7447 C.ar    1  UNL1       -0.0015
      8 C         -12.3536  -18.8913   24.9720 C.ar    1  UNL1        0.0203
      9 C         -10.8559  -18.9659   25.0083 C.ar    1  UNL1        0.0985
     10 N         -10.0543  -18.5317   23.8172 N.ar    1  UNL1       -0.2471
     11 C         -10.7503  -18.0228   22.5897 C.ar    1  UNL1        0.0695
     12 C          -7.6478  -16.4472   21.7902 C.3     1  UNL1        0.0724
     13 C          -6.8004  -15.4921   26.1052 C.3     1  UNL1        0.0155
     14 C          -8.1883  -15.3304   25.5598 C.3     1  UNL1        0.0014
     15 C          -8.4708  -15.6488   24.1215 C.3     1  UNL1        0.0014
     16 C          -7.3653  -16.1288   23.2285 C.3     1  UNL1        0.0160
     17 C          -5.9773  -16.2905   23.7739 C.3     1  UNL1        0.0014
     18 C          -5.6948  -15.9722   25.2122 C.3     1  UNL1        0.0014
     19 N          -7.2880  -14.0890   28.2368 N.3     1  UNL1       -0.3211
     20 C          -6.5179  -15.1737   27.5436 C.3     1  UNL1        0.0651
     21 H          -6.9684  -14.0089   29.2022 H       1  UNL1        0.1189
     22 H          -8.2820  -14.3173   28.2256 H       1  UNL1        0.1189
     23 C          -7.7564  -18.9539   21.1159 C.3     1  UNL1        0.0886
     24 C          -6.2587  -19.0285   21.1520 C.3     1  UNL1        0.0748
     25 C          -5.4547  -18.5309   19.9876 C.3     1  UNL1        0.0432
     26 C          -3.9569  -18.6055   20.0237 C.ar    1  UNL1       -0.0234
     27 C          -3.1529  -18.1080   18.8592 C.ar    1  UNL1       -0.0045
     28 C          -1.6552  -18.1826   18.8954 C.ar    1  UNL1       -0.0003
     29 C          -0.9616  -18.7548   20.0960 C.ar    1  UNL1       -0.0003
     30 C          -1.7656  -19.2523   21.2604 C.ar    1  UNL1       -0.0032
     31 C          -3.2632  -19.1777   21.2243 C.ar    1  UNL1       -0.0103
     32 C          -4.0673  -19.6753   22.3888 C.3     1  UNL1        0.0953
     33 N          -5.5650  -19.6006   22.3526 N.3     1  UNL1       -0.2934
     34 H          -5.8512  -19.0381   23.1539 H       1  UNL1        0.1236
@<TRIPOS>BOND
     1    19    20    1
     2    13    20    1
     3    13    14    1
     4    14    15    1
     5    15    16    1
     6    16    12    1
     7    12     1    1
     8     1    23    1
     9    24    23    1
    10    24    25    1
    11    25    26    1
    12    26    27   ar
    13    27    28   ar
    14    28    29   ar
    15    29    30   ar
    16    30    31   ar
    17    31    32    1
    18    32    33    1
    19     2     1    1
    20     2     3    1
    21     3     4    1
    22     4     5    1
    23     5     6    1
    24     6     7   ar
    25     7     8   ar
    26     8     9   ar
    27     9    10   ar
    28    10    11   ar
    29    16    17    1
    30    17    18    1
    31    18    13    1
    32    33    24    1
    33    11     2    1
    34    31    26   ar
    35    11     6   ar
    36    19    21    1
    37    19    22    1
    38    33    34    1
@<TRIPOS>MOLECULE
*****
 34 38 0 0 0
SMALL
GASTEIGER

@<TRIPOS>ATOM
      1 N          -7.9330  -17.2804   22.6090 N.3     1  UNL1       -0.2679
      2 C          -7.1907  -16.4797   23.6375 C.3     1  UNL1        0.0978
      3 C          -6.0012  -15.6596   23.2344 C.3     1  UNL1        0.0224
      4 C          -5.2589  -14.8589   24.2629 C.3     1  UNL1        0.0065
      5 C          -5.7061  -14.8782   25.6945 C.3     1  UNL1        0.0277
      6 C          -6.8955  -15.6983   26.0977 C.ar    1  UNL1       -0.0073
      7 C          -7.3427  -15.7178   27.5294 C.ar    1  UNL1       -0.0015
      8 C          -8.5322  -16.5379   27.9325 C.ar    1  UNL1        0.0203
      9 C          -9.2745  -17.3386   26.9040 C.ar    1  UNL1        0.0985
     10 N          -8.8274  -17.3192   25.4724 N.ar    1  UNL1       -0.2471
     11 C          -7.6378  -16.4991   25.0692 C.ar    1  UNL1        0.0695
     12 C          -9.2349  -16.7752   22.0615 C.3     1  UNL1        0.0724
     13 C         -13.1143  -18.0236   23.9698 C.3     1  UNL1        0.0155
     14 C         -11.9066  -18.9065   24.0789 C.3     1  UNL1        0.0014
     15 C         -10.6135  -18.4903   23.4428 C.3     1  UNL1        0.0014
     16 C         -10.5280  -17.1914   22.6976 C.3     1  UNL1        0.0160
     17 C         -11.7358  -16.3084   22.5885 C.3     1  UNL1        0.0014
     18 C         -13.0289  -16.7246   23.2246 C.3     1  UNL1        0.0014
     19 N         -14.4851  -18.6306   26.0917 N.3     1  UNL1       -0.3211
     20 C         -14.4075  -18.4398   24.6059 C.3     1  UNL1        0.0651
     21 H         -15.4313  -18.9113   26.3495 H       1  UNL1        0.1189
     22 H         -14.2508  -17.7551   26.5597 H       1  UNL1        0.1189
     23 C          -7.3735  -18.5863   22.1280 C.3     1  UNL1        0.0886
     24 C          -6.0789  -18.6142   21.3708 C.3     1  UNL1        0.0748
     25 C          -4.7755  -18.5641   22.1116 C.3     1  UNL1        0.0432
     26 C          -3.4809  -18.5919   21.3544 C.ar    1  UNL1       -0.0234
     27 C          -2.1776  -18.5418   22.0951 C.ar    1  UNL1       -0.0045
     28 C          -0.8830  -18.5697   21.3379 C.ar    1  UNL1       -0.0003
     29 C          -0.8919  -18.6477   19.8400 C.ar    1  UNL1       -0.0003
     30 C          -2.1952  -18.6979   19.0992 C.ar    1  UNL1       -0.0032
     31 C          -3.4897  -18.6700   19.8564 C.ar    1  UNL1       -0.0103
     32 C          -4.7932  -18.7202   19.1157 C.3     1  UNL1        0.0953
     33 N          -6.0877  -18.6923   19.8729 N.3     1  UNL1       -0.2934
     34 H          -6.5920  -19.5436   19.6254 H       1  UNL1        0.1236
@<TRIPOS>BOND
     1    19    20    1
     2    13    20    1
     3    13    14    1
     4    14    15    1
     5    15    16    1
     6    16    12    1
     7    12     1    1
     8     1    23    1
     9    24    23    1
    10    24    25    1
    11    25    26    1
    12    26    27   ar
    13    27    28   ar
    14    28    29   ar
    15    29    30   ar
    16    30    31   ar
    17    31    32    1
    18    32    33    1
    19     2     1    1
    20     2     3    1
    21     3     4    1
    22     4     5    1
    23     5     6    1
    24     6     7   ar
    25     7     8   ar
    26     8     9   ar
    27     9    10   ar
    28    10    11   ar
    29    16    17    1
    30    17    18    1
    31    18    13    1
    32    33    24    1
    33    11     2    1
    34    31    26   ar
    35    11     6   ar
    36    19    21    1
    37    19    22    1
    38    33    34    1
@<TRIPOS>MOLECULE
*****
 34 38 0 0 0
SMALL
GASTEIGER

@<TRIPOS>ATOM
      1 N          -9.0194  -17.7431   20.9509 N.3     1  UNL1       -0.2679
      2 C          -7.9309  -18.7723   20.8738 C.3     1  UNL1        0.0978
      3 C          -6.7671  -18.7051   21.8177 C.3     1  UNL1        0.0224
      4 C          -5.6786  -19.7343   21.7407 C.3     1  UNL1        0.0065
      5 C          -5.7539  -20.8306   20.7197 C.3     1  UNL1        0.0277
      6 C          -6.9177  -20.8978   19.7759 C.ar    1  UNL1       -0.0073
      7 C          -6.9931  -21.9942   18.7549 C.ar    1  UNL1       -0.0015
      8 C          -8.1569  -22.0613   17.8110 C.ar    1  UNL1        0.0203
      9 C          -9.2454  -21.0322   17.8881 C.ar    1  UNL1        0.0985
     10 N          -9.1701  -19.9358   18.9090 N.ar    1  UNL1       -0.2471
     11 C          -8.0062  -19.8686   19.8529 C.ar    1  UNL1        0.0695
     12 C         -10.4367  -18.1260   20.6435 C.3     1  UNL1        0.0724
     13 C         -13.5149  -18.1809   23.9255 C.3     1  UNL1        0.0155
     14 C         -13.7864  -17.4310   22.6552 C.3     1  UNL1        0.0014
     15 C         -12.7603  -17.4127   21.5612 C.3     1  UNL1        0.0014
     16 C         -11.4628  -18.1443   21.7375 C.3     1  UNL1        0.0160
     17 C         -11.1913  -18.8943   23.0079 C.3     1  UNL1        0.0014
     18 C         -12.2173  -18.9126   24.1020 C.3     1  UNL1        0.0014
     19 N         -14.1716  -18.6956   26.3861 N.3     1  UNL1       -0.3211
     20 C         -14.5410  -18.1993   25.0196 C.3     1  UNL1        0.0651
     21 H         -14.9841  -18.6379   26.9999 H       1  UNL1        0.1189
     22 H         -13.4183  -18.1212   26.7643 H       1  UNL1        0.1189
     23 C          -8.6906  -16.3310   21.3353 C.3     1  UNL1        0.0886
     24 C          -8.0800  -16.0410   22.6744 C.3     1  UNL1        0.0748
     25 C          -8.7709  -16.4917   23.9272 C.3     1  UNL1        0.0432
     26 C          -8.1602  -16.2017   25.2663 C.ar    1  UNL1       -0.0234
     27 C          -8.8512  -16.6524   26.5191 C.ar    1  UNL1       -0.0045
     28 C          -8.2405  -16.3624   27.8581 C.ar    1  UNL1       -0.0003
     29 C          -6.9390  -15.6217   27.9443 C.ar    1  UNL1       -0.0003
     30 C          -6.2481  -15.1711   26.6915 C.ar    1  UNL1       -0.0032
     31 C          -6.8587  -15.4611   25.3525 C.ar    1  UNL1       -0.0103
     32 C          -6.1678  -15.0104   24.0996 C.3     1  UNL1        0.0953
     33 N          -6.7784  -15.3004   22.7606 N.3     1  UNL1       -0.2934
     34 H          -6.0940  -15.8459   22.2368 H       1  UNL1        0.1236
@<TRIPOS>BOND
     1    19    20    1
     2    13    20    1
     3    13    14    1
     4    14    15    1
     5    15    16    1
     6    16    12    1
     7    12     1    1
     8     1    23    1
     9    24    23    1
    10    24    25    1
    11    25    26    1
    12    26    27   ar
    13    27    28   ar
    14    28    29   ar
    15    29    30   ar
    16    30    31   ar
    17    31    32    1
    18    32    33    1
    19     2     1    1
    20     2     3    1
    21     3     4    1
    22     4     5    1
    23     5     6    1
    24     6     7   ar
    25     7     8   ar
    26     8     9   ar
    27     9    10   ar
    28    10    11   ar
    29    16    17    1
    30    17    18    1
    31    18    13    1
    32    33    24    1
    33    11     2    1
    34    31    26   ar
    35    11     6   ar
    36    19    21    1
    37    19    22    1
    38    33    34    1
@<TRIPOS>MOLECULE
*****
 34 38 0 0 0
SMALL
GASTEIGER

@<TRIPOS>ATOM
      1 N          -8.5544  -18.3869   20.8673 N.3     1  UNL1       -0.2679
      2 C          -7.2967  -19.1939   20.7368 C.3     1  UNL1        0.0978
      3 C          -7.2449  -20.3536   19.7869 C.3     1  UNL1        0.0224
      4 C          -5.9872  -21.1607   19.6565 C.3     1  UNL1        0.0065
      5 C          -4.7814  -20.8080   20.4759 C.3     1  UNL1        0.0277
      6 C          -4.8333  -19.6483   21.4258 C.ar    1  UNL1       -0.0073
      7 C          -3.6274  -19.2955   22.2454 C.ar    1  UNL1       -0.0015
      8 C          -3.6792  -18.1358   23.1953 C.ar    1  UNL1        0.0203
      9 C          -4.9369  -17.3288   23.3257 C.ar    1  UNL1        0.0985
     10 N          -6.1427  -17.6815   22.5062 N.ar    1  UNL1       -0.2471
     11 C          -6.0909  -18.8413   21.5563 C.ar    1  UNL1        0.0695
     12 C          -9.8911  -19.0552   20.7386 C.3     1  UNL1        0.0724
     13 C         -13.1020  -18.2707   23.7922 C.3     1  UNL1        0.0155
     14 C         -13.1446  -17.5758   22.4636 C.3     1  UNL1        0.0014
     15 C         -12.0743  -17.8373   21.4458 C.3     1  UNL1        0.0014
     16 C         -10.9614  -18.7937   21.7565 C.3     1  UNL1        0.0160
     17 C         -10.9187  -19.4887   23.0851 C.3     1  UNL1        0.0014
     18 C         -11.9890  -19.2272   24.1030 C.3     1  UNL1        0.0014
     19 N         -14.0975  -18.6578   26.1606 N.3     1  UNL1       -0.3211
     20 C         -14.1723  -18.0092   24.8101 C.3     1  UNL1        0.0651
     21 H         -14.9006  -18.3712   26.7204 H       1  UNL1        0.1189
     22 H         -13.2375  -18.3713   26.6282 H       1  UNL1        0.1189
     23 C          -8.4753  -16.9116   21.1263 C.3     1  UNL1        0.0886
     24 C          -8.3003  -16.4044   22.5272 C.3     1  UNL1        0.0748
     25 C          -8.7995  -17.2151   23.6862 C.3     1  UNL1        0.0432
     26 C          -8.6245  -16.7079   25.0870 C.ar    1  UNL1       -0.0234
     27 C          -9.1237  -17.5187   26.2461 C.ar    1  UNL1       -0.0045
     28 C          -8.9487  -17.0115   27.6468 C.ar    1  UNL1       -0.0003
     29 C          -8.2745  -15.6935   27.8884 C.ar    1  UNL1       -0.0003
     30 C          -7.7753  -14.8828   26.7294 C.ar    1  UNL1       -0.0032
     31 C          -7.9503  -15.3900   25.3287 C.ar    1  UNL1       -0.0103
     32 C          -7.4511  -14.5792   24.1695 C.3     1  UNL1        0.0953
     33 N          -7.6261  -15.0864   22.7688 N.3     1  UNL1       -0.2934
     34 H          -6.6935  -15.1537   22.3613 H       1  UNL1        0.1236
@<TRIPOS>BOND
     1    19    20    1
     2    13    20    1
     3    13    14    1
     4    14    15    1
     5    15    16    1
     6    16    12    1
     7    12     1    1
     8     1    23    1
     9    24    23    1
    10    24    25    1
    11    25    26    1
    12    26    27   ar
    13    27    28   ar
    14    28    29   ar
    15    29    30   ar
    16    30    31   ar
    17    31    32    1
    18    32    33    1
    19     2     1    1
    20     2     3    1
    21     3     4    1
    22     4     5    1
    23     5     6    1
    24     6     7   ar
    25     7     8   ar
    26     8     9   ar
    27     9    10   ar
    28    10    11   ar
    29    16    17    1
    30    17    18    1
    31    18    13    1
    32    33    24    1
    33    11     2    1
    34    31    26   ar
    35    11     6   ar
    36    19    21    1
    37    19    22    1
    38    33    34    1
@<TRIPOS>MOLECULE
*****
 34 38 0 0 0
SMALL
GASTEIGER

@<TRIPOS>ATOM
      1 N          -6.0560  -18.4140   22.0057 N.3     1  UNL1       -0.2679
      2 C          -4.9460  -19.0124   21.1933 C.3     1  UNL1        0.0978
      3 C          -5.1615  -20.3075   20.4680 C.3     1  UNL1        0.0224
      4 C          -4.0515  -20.9058   19.6556 C.3     1  UNL1        0.0065
      5 C          -2.7260  -20.2091   19.5686 C.3     1  UNL1        0.0277
      6 C          -2.5105  -18.9140   20.2940 C.ar    1  UNL1       -0.0073
      7 C          -1.1850  -18.2171   20.2070 C.ar    1  UNL1       -0.0015
      8 C          -0.9695  -16.9220   20.9324 C.ar    1  UNL1        0.0203
      9 C          -2.0795  -16.3237   21.7448 C.ar    1  UNL1        0.0985
     10 N          -3.4050  -17.0204   21.8318 N.ar    1  UNL1       -0.2471
     11 C          -3.6205  -18.3156   21.1064 C.ar    1  UNL1        0.0695
     12 C          -6.0960  -16.9339   22.2457 C.3     1  UNL1        0.0724
     13 C          -6.8795  -15.3456   26.3825 C.3     1  UNL1        0.0155
     14 C          -8.0058  -15.4648   25.3991 C.3     1  UNL1        0.0014
     15 C          -7.7447  -15.9943   24.0202 C.3     1  UNL1        0.0014
     16 C          -6.3572  -16.4045   23.6246 C.3     1  UNL1        0.0160
     17 C          -5.2307  -16.2853   24.6080 C.3     1  UNL1        0.0014
     18 C          -5.4919  -15.7558   25.9870 C.3     1  UNL1        0.0014
     19 N          -8.5158  -14.3500   28.1379 N.3     1  UNL1       -0.3211
     20 C          -7.1406  -14.8162   27.7614 C.3     1  UNL1        0.0651
     21 H          -8.5118  -14.0249   29.1047 H       1  UNL1        0.1189
     22 H          -9.1749  -15.1225   28.0416 H       1  UNL1        0.1189
     23 C          -7.1259  -19.2958   22.5781 C.3     1  UNL1        0.0886
     24 C          -8.5661  -18.8877   22.4802 C.3     1  UNL1        0.0748
     25 C          -9.4801  -19.0751   23.6546 C.3     1  UNL1        0.0432
     26 C         -10.9203  -18.6670   23.5568 C.ar    1  UNL1       -0.0234
     27 C         -11.8344  -18.8544   24.7312 C.ar    1  UNL1       -0.0045
     28 C         -13.2744  -18.4463   24.6333 C.ar    1  UNL1       -0.0003
     29 C         -13.8004  -17.8508   23.3610 C.ar    1  UNL1       -0.0003
     30 C         -12.8863  -17.6634   22.1866 C.ar    1  UNL1       -0.0032
     31 C         -11.4463  -18.0715   22.2845 C.ar    1  UNL1       -0.0103
     32 C         -10.5321  -17.8841   21.1100 C.3     1  UNL1        0.0953
     33 N          -9.0920  -18.2922   21.2079 N.3     1  UNL1       -0.2934
     34 H          -8.5362  -17.4576   21.0216 H       1  UNL1        0.1236
@<TRIPOS>BOND
     1    19    20    1
     2    13    20    1
     3    13    14    1
     4    14    15    1
     5    15    16    1
     6    16    12    1
     7    12     1    1
     8     1    23    1
     9    24    23    1
    10    24    25    1
    11    25    26    1
    12    26    27   ar
    13    27    28   ar
    14    28    29   ar
    15    29    30   ar
    16    30    31   ar
    17    31    32    1
    18    32    33    1
    19     2     1    1
    20     2     3    1
    21     3     4    1
    22     4     5    1
    23     5     6    1
    24     6     7   ar
    25     7     8   ar
    26     8     9   ar
    27     9    10   ar
    28    10    11   ar
    29    16    17    1
    30    17    18    1
    31    18    13    1
    32    33    24    1
    33    11     2    1
    34    31    26   ar
    35    11     6   ar
    36    19    21    1
    37    19    22    1
    38    33    34    1
@<TRIPOS>MOLECULE
*****
 34 38 0 0 0
SMALL
GASTEIGER

@<TRIPOS>ATOM
      1 N          -7.4704  -19.7835   22.0384 N.3     1  UNL1       -0.2679
      2 C          -8.3000  -19.3869   23.2234 C.3     1  UNL1        0.0978
      3 C          -9.2832  -20.3565   23.8090 C.3     1  UNL1        0.0224
      4 C         -10.1128  -19.9598   24.9941 C.3     1  UNL1        0.0065
      5 C          -9.9592  -18.5935   25.5936 C.3     1  UNL1        0.0277
      6 C          -8.9760  -17.6238   25.0080 C.ar    1  UNL1       -0.0073
      7 C          -8.8224  -16.2574   25.6075 C.ar    1  UNL1       -0.0015
      8 C          -7.8391  -15.2877   25.0219 C.ar    1  UNL1        0.0203
      9 C          -7.0095  -15.6844   23.8368 C.ar    1  UNL1        0.0985
     10 N          -7.1631  -17.0507   23.2373 N.ar    1  UNL1       -0.2471
     11 C          -8.1464  -18.0205   23.8229 C.ar    1  UNL1        0.0695
     12 C          -8.0099  -19.6021   20.6506 C.3     1  UNL1        0.0724
     13 C         -11.6206  -17.0062   19.9618 C.3     1  UNL1        0.0155
     14 C         -10.4623  -16.4837   20.7587 C.3     1  UNL1        0.0014
     15 C          -9.2587  -17.3490   20.9883 C.3     1  UNL1        0.0014
     16 C          -9.2135  -18.7368   20.4210 C.3     1  UNL1        0.0160
     17 C         -10.3719  -19.2594   19.6240 C.3     1  UNL1        0.0014
     18 C         -11.5755  -18.3941   19.3944 C.3     1  UNL1        0.0014
     19 N         -12.7445  -14.9816   18.7837 N.3     1  UNL1       -0.3211
     20 C         -12.8242  -16.1409   19.7322 C.3     1  UNL1        0.0651
     21 H         -13.6469  -14.5074   18.7498 H       1  UNL1        0.1189
     22 H         -12.5032  -15.3203   17.8523 H       1  UNL1        0.1189
     23 C          -6.1012  -20.3617   22.2411 C.3     1  UNL1        0.0886
     24 C          -4.8871  -19.5067   22.0286 C.3     1  UNL1        0.0748
     25 C          -4.2022  -19.4950   20.6942 C.3     1  UNL1        0.0432
     26 C          -2.9881  -18.6400   20.4818 C.ar    1  UNL1       -0.0234
     27 C          -2.3033  -18.6283   19.1473 C.ar    1  UNL1       -0.0045
     28 C          -1.0892  -17.7734   18.9350 C.ar    1  UNL1       -0.0003
     29 C          -0.5600  -16.9302   20.0571 C.ar    1  UNL1       -0.0003
     30 C          -1.2448  -16.9420   21.3915 C.ar    1  UNL1       -0.0032
     31 C          -2.4589  -17.7969   21.6039 C.ar    1  UNL1       -0.0103
     32 C          -3.1438  -17.8087   22.9384 C.3     1  UNL1        0.0953
     33 N          -4.3579  -18.6636   23.1507 N.3     1  UNL1       -0.2934
     34 H          -5.1133  -18.0379   23.4305 H       1  UNL1        0.1236
@<TRIPOS>BOND
     1    19    20    1
     2    13    20    1
     3    13    14    1
     4    14    15    1
     5    15    16    1
     6    16    12    1
     7    12     1    1
     8     1    23    1
     9    24    23    1
    10    24    25    1
    11    25    26    1
    12    26    27   ar
    13    27    28   ar
    14    28    29   ar
    15    29    30   ar
    16    30    31   ar
    17    31    32    1
    18    32    33    1
    19     2     1    1
    20     2     3    1
    21     3     4    1
    22     4     5    1
    23     5     6    1
    24     6     7   ar
    25     7     8   ar
    26     8     9   ar
    27     9    10   ar
    28    10    11   ar
    29    16    17    1
    30    17    18    1
    31    18    13    1
    32    33    24    1
    33    11     2    1
    34    31    26   ar
    35    11     6   ar
    36    19    21    1
    37    19    22    1
    38    33    34    1
