@<TRIPOS>MOLECULE
*****
 47 52 0 0 0
SMALL
GASTEIGER

@<TRIPOS>ATOM
      1 C           7.3556   -4.2245   22.6084 C.ar    1  UNL1        0.1428
      2 N           6.1645   -4.2743   21.6982 N.ar    1  UNL1       -0.2121
      3 C           6.1476   -3.4584   20.4396 C.ar    1  UNL1        0.1545
      4 C           7.3220   -2.5927   20.0912 C.ar    1  UNL1        0.1484
      5 N           7.5895   -1.6848   18.9276 N.ar    1  UNL1       -0.2180
      6 C           8.9460   -1.0739   19.1187 C.ar    1  UNL1        0.2004
      7 N           9.5169   -1.6042   20.4004 N.ar    1  UNL1       -0.2051
      8 C           8.5132   -2.5429   21.0015 C.ar    1  UNL1        0.1640
      9 N           8.5300   -3.3588   22.2601 N.ar    1  UNL1       -0.3226
     10 H           9.3118   -3.3261   22.8575 H       1  UNL1        0.1688
     11 C           6.3437   -3.0448   25.1745 C.3     1  UNL1        0.0324
     12 C           6.8666   -4.4505   25.1500 C.ar    1  UNL1       -0.0055
     13 C           6.8834   -5.2664   26.4087 C.ar    1  UNL1        0.0466
     14 C           7.4063   -6.6721   26.3842 C.ar    1  UNL1        0.0144
     15 C           7.9122   -7.2619   25.1012 C.ar    1  UNL1        0.0014
     16 C           7.8953   -6.4460   23.8426 C.ar    1  UNL1        0.0028
     17 C           7.3725   -5.0403   23.8671 C.ar    1  UNL1        0.0313
     18 N           6.3775   -4.6766   27.6916 N.am    1  UNL1       -0.2806
     19 C           7.2835   -3.8316   28.5373 C.2     1  UNL1        0.2495
     20 O           8.6954   -3.5765   28.1000 O.2     1  UNL1       -0.2698
     21 H           5.4508   -4.8441   27.9786 H       1  UNL1        0.1552
     22 C           6.7775   -3.2418   29.8203 C.ar    1  UNL1        0.0537
     23 C           5.9426   -1.9958   29.7951 C.ar    1  UNL1        0.0042
     24 C           5.4366   -1.4060   31.0779 C.ar    1  UNL1       -0.0041
     25 C           5.7653   -2.0620   32.3862 C.ar    1  UNL1       -0.0228
     26 C           6.6001   -3.3080   32.4115 C.ar    1  UNL1       -0.0041
     27 C           7.1062   -3.8979   31.1285 C.ar    1  UNL1        0.0042
     28 C           5.2592   -1.4722   33.6691 C.3     1  UNL1        0.0189
     29 C           4.0808   -2.3994   33.6306 C.3     1  UNL1        0.0044
     30 C           6.4376   -0.5449   33.7076 C.3     1  UNL1        0.0044
     31 C           4.7531   -0.8822   34.9520 C.3     1  UNL1        0.0044
     32 N           4.9563   -3.5083   19.5293 N.pl3   1  UNL1       -0.2966
     33 H           4.7153   -4.3503   19.0797 H       1  UNL1        0.1537
     34 C           4.1323   -2.2754   19.3042 C.ar    1  UNL1        0.0494
     35 C           3.2017   -1.7894   20.3756 C.ar    1  UNL1        0.0148
     36 C           2.3776   -0.5564   20.1505 C.ar    1  UNL1        0.0058
     37 C           2.4842    0.1906   18.8542 C.ar    1  UNL1        0.0537
     38 C           3.4148   -0.2954   17.7828 C.ar    1  UNL1        0.0058
     39 C           4.2389   -1.5284   18.0078 C.ar    1  UNL1        0.0148
     40 C           1.6601    1.4236   18.6290 C.2     1  UNL1        0.2492
     41 O           0.2618    1.3049   18.0993 O.2     1  UNL1       -0.2699
     42 N           2.2345    2.7754   18.9337 N.am    1  UNL1       -0.2709
     43 C           3.6328    2.8941   19.4634 C.3     1  UNL1        0.1258
     44 C           4.2071    4.2459   19.7681 C.3     1  UNL1        0.1637
     45 O           3.3832    5.4790   19.5430 O.3     1  UNL1       -0.3501
     46 C           1.9849    5.3602   19.0133 C.3     1  UNL1        0.1637
     47 C           1.4105    4.0085   18.7086 C.3     1  UNL1        0.1258
@<TRIPOS>BOND
     1    11    12    1
     2    12    13   ar
     3    13    18    1
     4    18    19   am
     5    19    20    2
     6    19    22    1
     7    22    23   ar
     8    23    24   ar
     9    24    25   ar
    10    25    28    1
    11    28    29    1
    12    28    30    1
    13    28    31    1
    14    25    26   ar
    15    26    27   ar
    16    13    14   ar
    17    14    15   ar
    18    15    16   ar
    19    16    17   ar
    20    17     1    1
    21     1     2   ar
    22     2     3   ar
    23     3    32    1
    24    32    34    1
    25    34    35   ar
    26    35    36   ar
    27    36    37   ar
    28    37    40    1
    29    40    41    2
    30    40    42   am
    31    42    43    1
    32    43    44    1
    33    44    45    1
    34    45    46    1
    35    46    47    1
    36    37    38   ar
    37    38    39   ar
    38     3     4   ar
    39     4     5   ar
    40     5     6   ar
    41     6     7   ar
    42     7     8   ar
    43     8     9   ar
    44    17    12   ar
    45     9     1   ar
    46    27    22   ar
    47    39    34   ar
    48     8     4    1
    49    47    42    1
    50    18    21    1
    51    32    33    1
    52     9    10    1
@<TRIPOS>MOLECULE
*****
 47 52 0 0 0
SMALL
GASTEIGER

@<TRIPOS>ATOM
      1 C           3.8055    0.4127   32.1891 C.ar    1  UNL1        0.1428
      2 N           5.2121   -0.0486   31.9471 N.ar    1  UNL1       -0.2121
      3 C           6.1406   -0.2640   33.1055 C.ar    1  UNL1        0.1545
      4 C           5.6623   -0.0182   34.5057 C.ar    1  UNL1        0.1484
      5 N           6.3442   -0.1440   35.8358 N.ar    1  UNL1       -0.2180
      6 C           5.3589    0.2395   36.8999 C.ar    1  UNL1        0.2004
      7 N           4.0681    0.6024   36.2274 N.ar    1  UNL1       -0.2051
      8 C           4.2556    0.4431   34.7477 C.ar    1  UNL1        0.1640
      9 N           3.3272    0.6585   33.5894 N.ar    1  UNL1       -0.3226
     10 H           2.4040    0.9613   33.7482 H       1  UNL1        0.1688
     11 C           4.3109   -0.9825   29.5818 C.3     1  UNL1        0.0324
     12 C           3.1298   -0.0694   29.7272 C.ar    1  UNL1       -0.0055
     13 C           2.2013    0.1460   28.5689 C.ar    1  UNL1        0.0466
     14 C           1.0201    1.0590   28.7143 C.ar    1  UNL1        0.0144
     15 C           0.7674    1.7566   30.0180 C.ar    1  UNL1        0.0014
     16 C           1.6959    1.5411   31.1762 C.ar    1  UNL1        0.0028
     17 C           2.8770    0.6281   31.0308 C.ar    1  UNL1        0.0313
     18 N           2.4540   -0.5516   27.2653 N.am    1  UNL1       -0.2806
     19 C           3.0337    0.2074   26.1085 C.2     1  UNL1        0.2495
     20 O           3.3606    1.6639   26.2555 O.2     1  UNL1       -0.2698
     21 H           2.2394   -1.5075   27.1689 H       1  UNL1        0.1552
     22 C           3.2864   -0.4902   24.8050 C.ar    1  UNL1        0.0537
     23 C           4.2381   -1.6482   24.7462 C.ar    1  UNL1        0.0042
     24 C           4.4908   -2.3459   23.4427 C.ar    1  UNL1       -0.0041
     25 C           3.7919   -1.8857   22.1978 C.ar    1  UNL1       -0.0228
     26 C           2.8403   -0.7278   22.2565 C.ar    1  UNL1       -0.0041
     27 C           2.5875   -0.0300   23.5601 C.ar    1  UNL1        0.0042
     28 C           4.0447   -2.5834   20.8943 C.3     1  UNL1        0.0189
     29 C           4.6187   -3.7558   21.6331 C.3     1  UNL1        0.0044
     30 C           3.4707   -1.4110   20.1554 C.3     1  UNL1        0.0044
     31 C           4.2975   -3.2811   19.5906 C.3     1  UNL1        0.0044
     32 N           7.5472   -0.7253   32.8634 N.pl3   1  UNL1       -0.2966
     33 H           8.3046   -0.1517   33.1212 H       1  UNL1        0.1537
     34 C           7.7999   -2.0607   32.2286 C.ar    1  UNL1        0.0494
     35 C           6.7560   -3.1354   32.3019 C.ar    1  UNL1        0.0148
     36 C           7.0086   -4.4708   31.6671 C.ar    1  UNL1        0.0058
     37 C           8.3049   -4.7314   30.9590 C.ar    1  UNL1        0.0537
     38 C           9.3488   -3.6567   30.8857 C.ar    1  UNL1        0.0058
     39 C           9.0962   -2.3213   31.5205 C.ar    1  UNL1        0.0148
     40 C           8.5576   -6.0668   30.3241 C.2     1  UNL1        0.2492
     41 O           9.3241   -7.1187   31.0696 O.2     1  UNL1       -0.2699
     42 N           8.0437   -6.3501   28.9437 N.am    1  UNL1       -0.2709
     43 C           7.2771   -5.2982   28.1982 C.3     1  UNL1        0.1258
     44 C           6.7632   -5.5815   26.8177 C.3     1  UNL1        0.1637
     45 O           7.0158   -6.9168   26.1828 O.3     1  UNL1       -0.3501
     46 C           7.7823   -7.9688   26.9283 C.3     1  UNL1        0.1637
     47 C           8.2963   -7.6854   28.3087 C.3     1  UNL1        0.1258
@<TRIPOS>BOND
     1    11    12    1
     2    12    13   ar
     3    13    18    1
     4    18    19   am
     5    19    20    2
     6    19    22    1
     7    22    23   ar
     8    23    24   ar
     9    24    25   ar
    10    25    28    1
    11    28    29    1
    12    28    30    1
    13    28    31    1
    14    25    26   ar
    15    26    27   ar
    16    13    14   ar
    17    14    15   ar
    18    15    16   ar
    19    16    17   ar
    20    17     1    1
    21     1     2   ar
    22     2     3   ar
    23     3    32    1
    24    32    34    1
    25    34    35   ar
    26    35    36   ar
    27    36    37   ar
    28    37    40    1
    29    40    41    2
    30    40    42   am
    31    42    43    1
    32    43    44    1
    33    44    45    1
    34    45    46    1
    35    46    47    1
    36    37    38   ar
    37    38    39   ar
    38     3     4   ar
    39     4     5   ar
    40     5     6   ar
    41     6     7   ar
    42     7     8   ar
    43     8     9   ar
    44    17    12   ar
    45     9     1   ar
    46    27    22   ar
    47    39    34   ar
    48     8     4    1
    49    47    42    1
    50    18    21    1
    51    32    33    1
    52     9    10    1
@<TRIPOS>MOLECULE
*****
 47 52 0 0 0
SMALL
GASTEIGER

@<TRIPOS>ATOM
      1 C           7.4195   -3.9066   25.2328 C.ar    1  UNL1        0.1428
      2 N           6.3482   -4.2294   24.2338 N.ar    1  UNL1       -0.2121
      3 C           6.3847   -3.6095   22.8683 C.ar    1  UNL1        0.1545
      4 C           7.4924   -2.6669   22.5020 C.ar    1  UNL1        0.1484
      5 N           7.7897   -1.9086   21.2423 N.ar    1  UNL1       -0.2180
      6 C           9.0447   -1.1172   21.4629 C.ar    1  UNL1        0.2004
      7 N           9.5231   -1.3864   22.8589 N.ar    1  UNL1       -0.2051
      8 C           8.5637   -2.3441   23.5011 C.ar    1  UNL1        0.1640
      9 N           8.5273   -2.9640   24.8665 N.ar    1  UNL1       -0.3226
     10 H           9.2304   -2.7521   25.5222 H       1  UNL1        0.1688
     11 C           6.3879   -2.3314   27.5684 C.3     1  UNL1        0.0324
     12 C           6.8673   -3.7389   27.7660 C.ar    1  UNL1       -0.0055
     13 C           6.8309   -4.3588   29.1315 C.ar    1  UNL1        0.0466
     14 C           7.3103   -5.7663   29.3292 C.ar    1  UNL1        0.0144
     15 C           7.8261   -6.5539   28.1614 C.ar    1  UNL1        0.0014
     16 C           7.8625   -5.9340   26.7960 C.ar    1  UNL1        0.0028
     17 C           7.3831   -4.5265   26.5983 C.ar    1  UNL1        0.0313
     18 N           6.3151   -3.5713   30.2992 N.am    1  UNL1       -0.2806
     19 C           7.2764   -2.8926   31.2296 C.2     1  UNL1        0.2495
     20 O           8.7535   -3.0017   30.9921 O.2     1  UNL1       -0.2698
     21 H           5.3457   -3.4997   30.4550 H       1  UNL1        0.1552
     22 C           6.7605   -2.1050   32.3972 C.ar    1  UNL1        0.0537
     23 C           7.6795   -1.1869   33.1474 C.ar    1  UNL1        0.0042
     24 C           7.1638   -0.3993   34.3150 C.ar    1  UNL1       -0.0041
     25 C           5.7290   -0.5297   34.7327 C.ar    1  UNL1       -0.0228
     26 C           4.8100   -1.4478   33.9826 C.ar    1  UNL1       -0.0041
     27 C           5.3258   -2.2355   32.8149 C.ar    1  UNL1        0.0042
     28 C           5.2133    0.2579   35.9004 C.3     1  UNL1        0.0189
     29 C           4.0913    0.7799   35.0528 C.3     1  UNL1        0.0044
     30 C           6.3353   -0.2641   36.7481 C.3     1  UNL1        0.0044
     31 C           4.6975    1.0455   37.0683 C.3     1  UNL1        0.0044
     32 N           5.3133   -3.9323   21.8693 N.pl3   1  UNL1       -0.2966
     33 H           5.2652   -4.8321   21.4725 H       1  UNL1        0.1537
     34 C           4.3153   -2.8844   21.4748 C.ar    1  UNL1        0.0494
     35 C           3.8626   -1.8647   22.4774 C.ar    1  UNL1        0.0148
     36 C           2.8646   -0.8166   22.0830 C.ar    1  UNL1        0.0058
     37 C           2.3193   -0.7883   20.6860 C.ar    1  UNL1        0.0537
     38 C           2.7720   -1.8080   19.6833 C.ar    1  UNL1        0.0058
     39 C           3.7700   -2.8560   20.0777 C.ar    1  UNL1        0.0148
     40 C           1.3212    0.2598   20.2914 C.2     1  UNL1        0.2492
     41 O          -0.1237    0.0956   20.6589 O.2     1  UNL1       -0.2699
     42 N           1.7683    1.4720   19.5294 N.am    1  UNL1       -0.2709
     43 C           3.2133    1.6361   19.1619 C.3     1  UNL1        0.1258
     44 C           3.6603    2.8483   18.3998 C.3     1  UNL1        0.1637
     45 O           2.6624    3.8964   18.0052 O.3     1  UNL1       -0.3501
     46 C           1.2174    3.7322   18.3727 C.3     1  UNL1        0.1637
     47 C           0.7704    2.5200   19.1348 C.3     1  UNL1        0.1258
@<TRIPOS>BOND
     1    11    12    1
     2    12    13   ar
     3    13    18    1
     4    18    19   am
     5    19    20    2
     6    19    22    1
     7    22    23   ar
     8    23    24   ar
     9    24    25   ar
    10    25    28    1
    11    28    29    1
    12    28    30    1
    13    28    31    1
    14    25    26   ar
    15    26    27   ar
    16    13    14   ar
    17    14    15   ar
    18    15    16   ar
    19    16    17   ar
    20    17     1    1
    21     1     2   ar
    22     2     3   ar
    23     3    32    1
    24    32    34    1
    25    34    35   ar
    26    35    36   ar
    27    36    37   ar
    28    37    40    1
    29    40    41    2
    30    40    42   am
    31    42    43    1
    32    43    44    1
    33    44    45    1
    34    45    46    1
    35    46    47    1
    36    37    38   ar
    37    38    39   ar
    38     3     4   ar
    39     4     5   ar
    40     5     6   ar
    41     6     7   ar
    42     7     8   ar
    43     8     9   ar
    44    17    12   ar
    45     9     1   ar
    46    27    22   ar
    47    39    34   ar
    48     8     4    1
    49    47    42    1
    50    18    21    1
    51    32    33    1
    52     9    10    1
@<TRIPOS>MOLECULE
*****
 47 52 0 0 0
SMALL
GASTEIGER

@<TRIPOS>ATOM
      1 C          -1.4973    3.2477   22.8410 C.ar    1  UNL1        0.1428
      2 N          -0.2902    3.4309   21.9698 N.ar    1  UNL1       -0.2121
      3 C          -0.4570    3.6870   20.5012 C.ar    1  UNL1        0.1545
      4 C          -1.8311    3.7601   19.9040 C.ar    1  UNL1        0.1484
      5 N          -2.3041    3.9974   18.5005 N.ar    1  UNL1       -0.2180
      6 C          -3.8036    3.9610   18.5044 C.ar    1  UNL1        0.2004
      7 N          -4.2574    3.7011   19.9103 N.ar    1  UNL1       -0.2051
      8 C          -3.0382    3.5769   20.7753 C.ar    1  UNL1        0.1640
      9 N          -2.8714    3.3208   22.2438 N.ar    1  UNL1       -0.3226
     10 H          -3.6637    3.2005   22.8157 H       1  UNL1        0.1688
     11 C           0.5359    1.2590   23.7955 C.3     1  UNL1        0.0324
     12 C          -0.3140    1.9972   24.7868 C.ar    1  UNL1       -0.0055
     13 C          -0.1472    1.7410   26.2554 C.ar    1  UNL1        0.0466
     14 C          -0.9971    2.4793   27.2467 C.ar    1  UNL1        0.0144
     15 C          -2.0137    3.4737   26.7694 C.ar    1  UNL1        0.0014
     16 C          -2.1804    3.7298   25.3009 C.ar    1  UNL1        0.0028
     17 C          -1.3306    2.9915   24.3096 C.ar    1  UNL1        0.0313
     18 N           0.8694    0.7467   26.7326 N.am    1  UNL1       -0.2806
     19 C           2.2465    1.2051   27.1114 C.2     1  UNL1        0.2495
     20 O           2.6070    2.6578   27.0131 O.2     1  UNL1       -0.2698
     21 H           0.6328   -0.2067   26.7971 H       1  UNL1        0.1552
     22 C           3.2630    0.2107   27.5886 C.ar    1  UNL1        0.0537
     23 C           3.6106    0.1340   29.0458 C.ar    1  UNL1        0.0042
     24 C           4.6271   -0.8604   29.5231 C.ar    1  UNL1       -0.0041
     25 C           5.2961   -1.7781   28.5432 C.ar    1  UNL1       -0.0228
     26 C           4.9486   -1.7015   27.0861 C.ar    1  UNL1       -0.0041
     27 C           3.9321   -0.7071   26.6087 C.ar    1  UNL1        0.0042
     28 C           6.3127   -2.7725   29.0205 C.3     1  UNL1        0.0189
     29 C           6.4402   -3.3113   27.6265 C.3     1  UNL1        0.0044
     30 C           6.1851   -2.2338   30.4146 C.3     1  UNL1        0.0044
     31 C           7.3292   -3.7669   29.4979 C.3     1  UNL1        0.0044
     32 N           0.7503    3.8702   19.6300 N.pl3   1  UNL1       -0.2966
     33 H           1.0292    4.7747   19.3592 H       1  UNL1        0.1537
     34 C           1.5324    2.6753   19.1714 C.ar    1  UNL1        0.0494
     35 C           0.8195    1.4060   18.8099 C.ar    1  UNL1        0.0148
     36 C           1.6016    0.2110   18.3513 C.ar    1  UNL1        0.0058
     37 C           3.0966    0.2853   18.2541 C.ar    1  UNL1        0.0537
     38 C           3.8095    1.5546   18.6155 C.ar    1  UNL1        0.0058
     39 C           3.0274    2.7496   19.0742 C.ar    1  UNL1        0.0148
     40 C           3.8788   -0.9096   17.7954 C.2     1  UNL1        0.2492
     41 O           4.2860   -1.0326   16.3570 O.2     1  UNL1       -0.2699
     42 N           4.2538   -1.9816   18.7753 N.am    1  UNL1       -0.2709
     43 C           3.8466   -1.8587   20.2137 C.3     1  UNL1        0.1258
     44 C           4.2216   -2.9307   21.1936 C.3     1  UNL1        0.1637
     45 O           5.0037   -4.1257   20.7351 O.3     1  UNL1       -0.3501
     46 C           5.4109   -4.2486   19.2967 C.3     1  UNL1        0.1637
     47 C           5.0359   -3.1766   18.3168 C.3     1  UNL1        0.1258
@<TRIPOS>BOND
     1    11    12    1
     2    12    13   ar
     3    13    18    1
     4    18    19   am
     5    19    20    2
     6    19    22    1
     7    22    23   ar
     8    23    24   ar
     9    24    25   ar
    10    25    28    1
    11    28    29    1
    12    28    30    1
    13    28    31    1
    14    25    26   ar
    15    26    27   ar
    16    13    14   ar
    17    14    15   ar
    18    15    16   ar
    19    16    17   ar
    20    17     1    1
    21     1     2   ar
    22     2     3   ar
    23     3    32    1
    24    32    34    1
    25    34    35   ar
    26    35    36   ar
    27    36    37   ar
    28    37    40    1
    29    40    41    2
    30    40    42   am
    31    42    43    1
    32    43    44    1
    33    44    45    1
    34    45    46    1
    35    46    47    1
    36    37    38   ar
    37    38    39   ar
    38     3     4   ar
    39     4     5   ar
    40     5     6   ar
    41     6     7   ar
    42     7     8   ar
    43     8     9   ar
    44    17    12   ar
    45     9     1   ar
    46    27    22   ar
    47    39    34   ar
    48     8     4    1
    49    47    42    1
    50    18    21    1
    51    32    33    1
    52     9    10    1
@<TRIPOS>MOLECULE
*****
 47 52 0 0 0
SMALL
GASTEIGER

@<TRIPOS>ATOM
      1 C           6.3997   -3.0007   25.6935 C.ar    1  UNL1        0.1428
      2 N           6.6113   -2.9024   24.2119 N.ar    1  UNL1       -0.2121
      3 C           7.1310   -4.0844   23.4483 C.ar    1  UNL1        0.1545
      4 C           7.4391   -5.3646   24.1667 C.ar    1  UNL1        0.1484
      5 N           7.9591   -6.6862   23.6840 N.ar    1  UNL1       -0.2180
      6 C           8.0688   -7.6013   24.8675 C.ar    1  UNL1        0.2004
      7 N           7.6167   -6.8453   26.0816 N.ar    1  UNL1       -0.2051
      8 C           7.2275   -5.4629   25.6484 C.ar    1  UNL1        0.1640
      9 N           6.7078   -4.2809   26.4119 N.ar    1  UNL1       -0.3226
     10 H           6.5689   -4.3454   27.3844 H       1  UNL1        0.1688
     11 C           3.9834   -1.5217   24.7065 C.3     1  UNL1        0.0324
     12 C           4.6719   -1.0792   25.9635 C.ar    1  UNL1       -0.0055
     13 C           4.1522    0.1028   26.7270 C.ar    1  UNL1        0.0466
     14 C           4.8407    0.5452   27.9840 C.ar    1  UNL1        0.0144
     15 C           6.0488   -0.1942   28.4776 C.ar    1  UNL1        0.0014
     16 C           6.5685   -1.3762   27.7141 C.ar    1  UNL1        0.0028
     17 C           5.8800   -1.8186   26.4570 C.ar    1  UNL1        0.0313
     18 N           2.9441    0.8422   26.2335 N.am    1  UNL1       -0.2806
     19 C           1.6824    0.8438   27.0448 C.2     1  UNL1        0.2495
     20 O           1.6290    0.1060   28.3497 O.2     1  UNL1       -0.2698
     21 H           2.9792    1.3264   25.3770 H       1  UNL1        0.1552
     22 C           0.4743    1.5833   26.5512 C.ar    1  UNL1        0.0537
     23 C          -0.6255    1.9445   27.5051 C.ar    1  UNL1        0.0042
     24 C          -1.8336    2.6840   27.0116 C.ar    1  UNL1       -0.0041
     25 C          -1.9420    3.0622   25.5642 C.ar    1  UNL1       -0.0228
     26 C          -0.8422    2.7010   24.6102 C.ar    1  UNL1       -0.0041
     27 C           0.3660    1.9615   25.1038 C.ar    1  UNL1        0.0042
     28 C          -3.1501    3.8017   25.0707 C.3     1  UNL1        0.0189
     29 C          -2.6074    3.7558   23.6731 C.3     1  UNL1        0.0044
     30 C          -3.6929    3.8477   26.4683 C.3     1  UNL1        0.0044
     31 C          -4.3583    4.5412   24.5772 C.3     1  UNL1        0.0044
     32 N           7.3426   -3.9860   21.9666 N.pl3   1  UNL1       -0.2966
     33 H           8.1087   -4.4407   21.5475 H       1  UNL1        0.1537
     34 C           6.3871   -3.1949   21.1234 C.ar    1  UNL1        0.0494
     35 C           5.0652   -3.7864   20.7324 C.ar    1  UNL1        0.0148
     36 C           4.1096   -2.9954   19.8892 C.ar    1  UNL1        0.0058
     37 C           4.4757   -1.6129   19.4370 C.ar    1  UNL1        0.0537
     38 C           5.7976   -1.0213   19.8281 C.ar    1  UNL1        0.0058
     39 C           6.7532   -1.8124   20.6712 C.ar    1  UNL1        0.0148
     40 C           3.5201   -0.8217   18.5938 C.2     1  UNL1        0.2492
     41 O           3.6511   -0.8338   17.0996 O.2     1  UNL1       -0.2699
     42 N           2.4335   -0.0184   19.2449 N.am    1  UNL1       -0.2709
     43 C           2.3024   -0.0063   20.7392 C.3     1  UNL1        0.1258
     44 C           1.2158    0.7970   21.3903 C.3     1  UNL1        0.1637
     45 O           0.2602    1.5881   20.5472 O.3     1  UNL1       -0.3501
     46 C           0.3912    1.5760   19.0530 C.3     1  UNL1        0.1637
     47 C           1.4778    0.7727   18.4019 C.3     1  UNL1        0.1258
@<TRIPOS>BOND
     1    11    12    1
     2    12    13   ar
     3    13    18    1
     4    18    19   am
     5    19    20    2
     6    19    22    1
     7    22    23   ar
     8    23    24   ar
     9    24    25   ar
    10    25    28    1
    11    28    29    1
    12    28    30    1
    13    28    31    1
    14    25    26   ar
    15    26    27   ar
    16    13    14   ar
    17    14    15   ar
    18    15    16   ar
    19    16    17   ar
    20    17     1    1
    21     1     2   ar
    22     2     3   ar
    23     3    32    1
    24    32    34    1
    25    34    35   ar
    26    35    36   ar
    27    36    37   ar
    28    37    40    1
    29    40    41    2
    30    40    42   am
    31    42    43    1
    32    43    44    1
    33    44    45    1
    34    45    46    1
    35    46    47    1
    36    37    38   ar
    37    38    39   ar
    38     3     4   ar
    39     4     5   ar
    40     5     6   ar
    41     6     7   ar
    42     7     8   ar
    43     8     9   ar
    44    17    12   ar
    45     9     1   ar
    46    27    22   ar
    47    39    34   ar
    48     8     4    1
    49    47    42    1
    50    18    21    1
    51    32    33    1
    52     9    10    1
@<TRIPOS>MOLECULE
*****
 47 52 0 0 0
SMALL
GASTEIGER

@<TRIPOS>ATOM
      1 C           6.5897   -3.4785   22.2337 C.ar    1  UNL1        0.1428
      2 N           5.1631   -3.2898   21.8106 N.ar    1  UNL1       -0.2121
      3 C           4.8438   -2.4769   20.5910 C.ar    1  UNL1        0.1545
      4 C           5.9511   -1.8528   19.7947 C.ar    1  UNL1        0.1484
      5 N           5.9430   -1.0054   18.5570 N.ar    1  UNL1       -0.2180
      6 C           7.3646   -0.6704   18.2153 C.ar    1  UNL1        0.2004
      7 N           8.2513   -1.3107   19.2417 N.ar    1  UNL1       -0.2051
      8 C           7.3778   -2.0414   20.2179 C.ar    1  UNL1        0.1640
      9 N           7.6971   -2.8543   21.4374 N.ar    1  UNL1       -0.3226
     10 H           8.6334   -2.9782   21.7152 H       1  UNL1        0.1688
     11 C           5.6508   -2.5660   24.9330 C.3     1  UNL1        0.0324
     12 C           6.4396   -3.8351   24.8028 C.ar    1  UNL1       -0.0055
     13 C           6.7590   -4.6480   26.0224 C.ar    1  UNL1        0.0466
     14 C           7.5478   -5.9172   25.8923 C.ar    1  UNL1        0.0144
     15 C           8.0173   -6.3734   24.5427 C.ar    1  UNL1        0.0014
     16 C           7.6979   -5.5605   23.3232 C.ar    1  UNL1        0.0028
     17 C           6.9091   -4.2914   23.4533 C.ar    1  UNL1        0.0313
     18 N           6.2895   -4.1918   27.3720 N.am    1  UNL1       -0.2806
     19 C           7.1572   -3.2947   28.2042 C.2     1  UNL1        0.2495
     20 O           8.4944   -2.8540   27.6867 O.2     1  UNL1       -0.2698
     21 H           5.4119   -4.4811   27.7116 H       1  UNL1        0.1552
     22 C           6.6877   -2.8385   29.5537 C.ar    1  UNL1        0.0537
     23 C           6.0960   -1.4700   29.7188 C.ar    1  UNL1        0.0042
     24 C           5.6265   -1.0137   31.0683 C.ar    1  UNL1       -0.0041
     25 C           5.7485   -1.9259   32.2528 C.ar    1  UNL1       -0.0228
     26 C           6.3401   -3.2943   32.0878 C.ar    1  UNL1       -0.0041
     27 C           6.8097   -3.7507   30.7382 C.ar    1  UNL1        0.0042
     28 C           5.2789   -1.4695   33.6023 C.3     1  UNL1        0.0189
     29 C           4.2024   -2.5137   33.5808 C.3     1  UNL1        0.0044
     30 C           6.3555   -0.4253   33.6238 C.3     1  UNL1        0.0044
     31 C           4.8094   -1.0131   34.9519 C.3     1  UNL1        0.0044
     32 N           3.4171   -2.2883   20.1678 N.pl3   1  UNL1       -0.2966
     33 H           3.0052   -2.9165   19.5315 H       1  UNL1        0.1537
     34 C           2.6180   -1.1425   20.7142 C.ar    1  UNL1        0.0494
     35 C           3.1725   -0.3055   21.8287 C.ar    1  UNL1        0.0148
     36 C           2.3734    0.8403   22.3751 C.ar    1  UNL1        0.0058
     37 C           1.0199    1.1491   21.8072 C.ar    1  UNL1        0.0537
     38 C           0.4654    0.3121   20.6927 C.ar    1  UNL1        0.0058
     39 C           1.2645   -0.8337   20.1462 C.ar    1  UNL1        0.0148
     40 C           0.2207    2.2949   22.3536 C.2     1  UNL1        0.2492
     41 O          -0.2020    3.4138   21.4483 O.2     1  UNL1       -0.2699
     42 N          -0.1557    2.3218   23.8053 N.am    1  UNL1       -0.2709
     43 C           0.2670    1.2030   24.7106 C.3     1  UNL1        0.1258
     44 C          -0.1094    1.2299   26.1623 C.3     1  UNL1        0.1637
     45 O          -0.9085    2.3756   26.7088 O.3     1  UNL1       -0.3501
     46 C          -1.3312    3.4945   25.8036 C.3     1  UNL1        0.1637
     47 C          -0.9548    3.4676   24.3518 C.3     1  UNL1        0.1258
@<TRIPOS>BOND
     1    11    12    1
     2    12    13   ar
     3    13    18    1
     4    18    19   am
     5    19    20    2
     6    19    22    1
     7    22    23   ar
     8    23    24   ar
     9    24    25   ar
    10    25    28    1
    11    28    29    1
    12    28    30    1
    13    28    31    1
    14    25    26   ar
    15    26    27   ar
    16    13    14   ar
    17    14    15   ar
    18    15    16   ar
    19    16    17   ar
    20    17     1    1
    21     1     2   ar
    22     2     3   ar
    23     3    32    1
    24    32    34    1
    25    34    35   ar
    26    35    36   ar
    27    36    37   ar
    28    37    40    1
    29    40    41    2
    30    40    42   am
    31    42    43    1
    32    43    44    1
    33    44    45    1
    34    45    46    1
    35    46    47    1
    36    37    38   ar
    37    38    39   ar
    38     3     4   ar
    39     4     5   ar
    40     5     6   ar
    41     6     7   ar
    42     7     8   ar
    43     8     9   ar
    44    17    12   ar
    45     9     1   ar
    46    27    22   ar
    47    39    34   ar
    48     8     4    1
    49    47    42    1
    50    18    21    1
    51    32    33    1
    52     9    10    1
@<TRIPOS>MOLECULE
*****
 47 52 0 0 0
SMALL
GASTEIGER

@<TRIPOS>ATOM
      1 C           6.3425   -3.2141   27.0694 C.ar    1  UNL1        0.1428
      2 N           7.2239   -2.8512   25.9113 N.ar    1  UNL1       -0.2121
      3 C           7.9172   -3.9280   25.1301 C.ar    1  UNL1        0.1545
      4 C           7.7290   -5.3675   25.5072 C.ar    1  UNL1        0.1484
      5 N           8.2787   -6.6370   24.9275 N.ar    1  UNL1       -0.2180
      6 C           7.7370   -7.7845   25.7274 C.ar    1  UNL1        0.2004
      7 N           6.8524   -7.2242   26.8014 N.ar    1  UNL1       -0.2051
      8 C           6.8475   -5.7304   26.6654 C.ar    1  UNL1        0.1640
      9 N           6.1542   -4.6537   27.4465 N.ar    1  UNL1       -0.3226
     10 H           5.5757   -4.8918   28.2066 H       1  UNL1        0.1688
     11 C           4.2665   -1.5002   25.7453 C.3     1  UNL1        0.0324
     12 C           4.6113   -1.2805   27.1885 C.ar    1  UNL1       -0.0055
     13 C           3.9179   -0.2038   27.9696 C.ar    1  UNL1        0.0466
     14 C           4.2627    0.0159   29.4128 C.ar    1  UNL1        0.0144
     15 C           5.3006   -0.8410   30.0749 C.ar    1  UNL1        0.0014
     16 C           5.9939   -1.9177   29.2937 C.ar    1  UNL1        0.0028
     17 C           5.6492   -2.1374   27.8505 C.ar    1  UNL1        0.0313
     18 N           2.8801    0.6531   27.3076 N.am    1  UNL1       -0.2806
     19 C           1.4368    0.5154   27.6926 C.2     1  UNL1        0.2495
     20 O           1.0316   -0.4792   28.7398 O.2     1  UNL1       -0.2698
     21 H           3.1460    1.3059   26.6203 H       1  UNL1        0.1552
     22 C           0.3990    1.3723   27.0305 C.ar    1  UNL1        0.0537
     23 C           0.2854    1.3919   25.5349 C.ar    1  UNL1        0.0042
     24 C          -0.7524    2.2488   24.8727 C.ar    1  UNL1       -0.0041
     25 C          -1.6767    3.0862   25.7060 C.ar    1  UNL1       -0.0228
     26 C          -1.5632    3.0666   27.2016 C.ar    1  UNL1       -0.0041
     27 C          -0.5254    2.2097   27.8638 C.ar    1  UNL1        0.0042
     28 C          -2.7146    3.9431   25.0438 C.3     1  UNL1        0.0189
     29 C          -3.5993    3.8012   26.2467 C.3     1  UNL1        0.0044
     30 C          -1.8299    4.0850   23.8408 C.3     1  UNL1        0.0044
     31 C          -3.7524    4.8000   24.3814 C.3     1  UNL1        0.0044
     32 N           8.7987   -3.5650   23.9720 N.pl3   1  UNL1       -0.2966
     33 H           9.7778   -3.5862   24.0729 H       1  UNL1        0.1537
     34 C           8.1884   -3.1699   22.6600 C.ar    1  UNL1        0.0494
     35 C           7.2853   -4.1235   21.9354 C.ar    1  UNL1        0.0148
     36 C           6.6750   -3.7285   20.6234 C.ar    1  UNL1        0.0058
     37 C           6.9678   -2.3797   20.0359 C.ar    1  UNL1        0.0537
     38 C           7.8709   -1.4261   20.7604 C.ar    1  UNL1        0.0058
     39 C           8.4812   -1.8211   22.0724 C.ar    1  UNL1        0.0148
     40 C           6.3575   -1.9845   18.7238 C.2     1  UNL1        0.2492
     41 O           7.0921   -2.2527   17.4438 O.2     1  UNL1       -0.2699
     42 N           5.0125   -1.3212   18.6919 N.am    1  UNL1       -0.2709
     43 C           4.2779   -1.0531   19.9719 C.3     1  UNL1        0.1258
     44 C           2.9329   -0.3897   19.9399 C.3     1  UNL1        0.1637
     45 O           2.3226    0.0055   18.6280 O.3     1  UNL1       -0.3501
     46 C           3.0572   -0.2626   17.3480 C.3     1  UNL1        0.1637
     47 C           4.4022   -0.9260   17.3799 C.3     1  UNL1        0.1258
@<TRIPOS>BOND
     1    11    12    1
     2    12    13   ar
     3    13    18    1
     4    18    19   am
     5    19    20    2
     6    19    22    1
     7    22    23   ar
     8    23    24   ar
     9    24    25   ar
    10    25    28    1
    11    28    29    1
    12    28    30    1
    13    28    31    1
    14    25    26   ar
    15    26    27   ar
    16    13    14   ar
    17    14    15   ar
    18    15    16   ar
    19    16    17   ar
    20    17     1    1
    21     1     2   ar
    22     2     3   ar
    23     3    32    1
    24    32    34    1
    25    34    35   ar
    26    35    36   ar
    27    36    37   ar
    28    37    40    1
    29    40    41    2
    30    40    42   am
    31    42    43    1
    32    43    44    1
    33    44    45    1
    34    45    46    1
    35    46    47    1
    36    37    38   ar
    37    38    39   ar
    38     3     4   ar
    39     4     5   ar
    40     5     6   ar
    41     6     7   ar
    42     7     8   ar
    43     8     9   ar
    44    17    12   ar
    45     9     1   ar
    46    27    22   ar
    47    39    34   ar
    48     8     4    1
    49    47    42    1
    50    18    21    1
    51    32    33    1
    52     9    10    1
@<TRIPOS>MOLECULE
*****
 47 52 0 0 0
SMALL
GASTEIGER

@<TRIPOS>ATOM
      1 C           3.8583   -0.4751   19.4436 C.ar    1  UNL1        0.1428
      2 N           5.0784   -0.5623   20.3117 N.ar    1  UNL1       -0.2121
      3 C           5.7279   -1.8912   20.5614 C.ar    1  UNL1        0.1545
      4 C           5.1571   -3.1329   19.9430 C.ar    1  UNL1        0.1484
      5 N           5.5773   -4.5713   20.0089 N.ar    1  UNL1       -0.2180
      6 C           4.6168   -5.3731   19.1815 C.ar    1  UNL1        0.2004
      7 N           3.6030   -4.4302   18.6043 N.ar    1  UNL1       -0.2051
      8 C           3.9369   -3.0456   19.0750 C.ar    1  UNL1        0.1640
      9 N           3.2875   -1.7168   18.8253 N.ar    1  UNL1       -0.3226
     10 H           2.4867   -1.6595   18.2555 H       1  UNL1        0.1688
     11 C           1.0288    0.0002   20.3201 C.3     1  UNL1        0.0324
     12 C           1.7942    1.0914   19.6321 C.ar    1  UNL1       -0.0055
     13 C           1.1448    2.4204   19.3823 C.ar    1  UNL1        0.0466
     14 C           1.9102    3.5116   18.6943 C.ar    1  UNL1        0.0144
     15 C           3.3249    3.2740   18.2561 C.ar    1  UNL1        0.0014
     16 C           3.9743    1.9451   18.5059 C.ar    1  UNL1        0.0028
     17 C           3.2089    0.8538   19.1939 C.ar    1  UNL1        0.0313
     18 N          -0.2699    2.6580   19.8205 N.am    1  UNL1       -0.2806
     19 C          -0.5498    3.1956   21.1927 C.2     1  UNL1        0.2495
     20 O           0.5851    3.4955   22.1265 O.2     1  UNL1       -0.2698
     21 H          -1.0147    2.4611   19.2076 H       1  UNL1        0.1552
     22 C          -1.9645    3.4331   21.6308 C.ar    1  UNL1        0.0537
     23 C          -2.2557    3.8118   23.0528 C.ar    1  UNL1        0.0042
     24 C          -3.6704    4.0494   23.4910 C.ar    1  UNL1       -0.0041
     25 C          -4.7940    3.9083   22.5073 C.ar    1  UNL1       -0.0228
     26 C          -4.5029    3.5297   21.0854 C.ar    1  UNL1       -0.0041
     27 C          -3.0881    3.2921   20.6472 C.ar    1  UNL1        0.0042
     28 C          -6.2088    4.1460   22.9456 C.3     1  UNL1        0.0189
     29 C          -5.8051    3.9185   24.3722 C.3     1  UNL1        0.0044
     30 C          -6.6125    4.3734   21.5190 C.3     1  UNL1        0.0044
     31 C          -7.6235    4.3836   23.3838 C.3     1  UNL1        0.0044
     32 N           6.9481   -1.9783   21.4295 N.pl3   1  UNL1       -0.2966
     33 H           7.7695   -1.4998   21.1736 H       1  UNL1        0.1537
     34 C           6.9168   -2.7946   22.6875 C.ar    1  UNL1        0.0494
     35 C           5.8758   -2.5221   23.7326 C.ar    1  UNL1        0.0148
     36 C           5.8444   -3.3383   24.9907 C.ar    1  UNL1        0.0058
     37 C           6.8540   -4.4271   25.2037 C.ar    1  UNL1        0.0537
     38 C           7.8950   -4.6996   24.1586 C.ar    1  UNL1        0.0058
     39 C           7.9263   -3.8833   22.9006 C.ar    1  UNL1        0.0148
     40 C           6.8227   -5.2434   26.4618 C.2     1  UNL1        0.2492
     41 O           6.7549   -6.7398   26.3835 O.2     1  UNL1       -0.2699
     42 N           6.8591   -4.5632   27.7982 N.am    1  UNL1       -0.2709
     43 C           6.9269   -3.0668   27.8765 C.3     1  UNL1        0.1258
     44 C           6.9633   -2.3865   29.2129 C.3     1  UNL1        0.1637
     45 O           6.9320   -3.2027   30.4710 O.3     1  UNL1       -0.3501
     46 C           6.8643   -4.6991   30.3927 C.3     1  UNL1        0.1637
     47 C           6.8278   -5.3794   29.0563 C.3     1  UNL1        0.1258
@<TRIPOS>BOND
     1    11    12    1
     2    12    13   ar
     3    13    18    1
     4    18    19   am
     5    19    20    2
     6    19    22    1
     7    22    23   ar
     8    23    24   ar
     9    24    25   ar
    10    25    28    1
    11    28    29    1
    12    28    30    1
    13    28    31    1
    14    25    26   ar
    15    26    27   ar
    16    13    14   ar
    17    14    15   ar
    18    15    16   ar
    19    16    17   ar
    20    17     1    1
    21     1     2   ar
    22     2     3   ar
    23     3    32    1
    24    32    34    1
    25    34    35   ar
    26    35    36   ar
    27    36    37   ar
    28    37    40    1
    29    40    41    2
    30    40    42   am
    31    42    43    1
    32    43    44    1
    33    44    45    1
    34    45    46    1
    35    46    47    1
    36    37    38   ar
    37    38    39   ar
    38     3     4   ar
    39     4     5   ar
    40     5     6   ar
    41     6     7   ar
    42     7     8   ar
    43     8     9   ar
    44    17    12   ar
    45     9     1   ar
    46    27    22   ar
    47    39    34   ar
    48     8     4    1
    49    47    42    1
    50    18    21    1
    51    32    33    1
    52     9    10    1
@<TRIPOS>MOLECULE
*****
 47 52 0 0 0
SMALL
GASTEIGER

@<TRIPOS>ATOM
      1 C           5.9112   -2.0925   28.0621 C.ar    1  UNL1        0.1428
      2 N           6.3436   -1.2197   29.2028 N.ar    1  UNL1       -0.2121
      3 C           6.8740   -1.8391   30.4619 C.ar    1  UNL1        0.1545
      4 C           6.9720   -3.3312   30.5801 C.ar    1  UNL1        0.1484
      5 N           7.4507   -4.2209   31.6888 N.ar    1  UNL1       -0.2180
      6 C           7.3142   -5.6435   31.2333 C.ar    1  UNL1        0.2004
      7 N           6.7511   -5.6330   29.8430 N.ar    1  UNL1       -0.2051
      8 C           6.5396   -4.2039   29.4393 C.ar    1  UNL1        0.1640
      9 N           6.0092   -3.5846   28.1803 N.ar    1  UNL1       -0.3226
     10 H           5.7254   -4.1574   27.4316 H       1  UNL1        0.1688
     11 C           3.1081   -1.0267   27.9800 C.3     1  UNL1        0.0324
     12 C           3.9793   -0.9403   26.7621 C.ar    1  UNL1       -0.0055
     13 C           3.4488   -0.3210   25.5030 C.ar    1  UNL1        0.0466
     14 C           4.3200   -0.2345   24.2850 C.ar    1  UNL1        0.0144
     15 C           5.7216   -0.7674   24.3261 C.ar    1  UNL1        0.0014
     16 C           6.2520   -1.3867   25.5851 C.ar    1  UNL1        0.0028
     17 C           5.3808   -1.4731   26.8031 C.ar    1  UNL1        0.0313
     18 N           2.0473    0.2119   25.4620 N.am    1  UNL1       -0.2806
     19 C           1.8049    1.6907   25.5286 C.2     1  UNL1        0.2495
     20 O           2.9640    2.6366   25.6363 O.2     1  UNL1       -0.2698
     21 H           1.2866   -0.4090   25.3913 H       1  UNL1        0.1552
     22 C           0.4033    2.2234   25.4876 C.ar    1  UNL1        0.0537
     23 C          -0.4070    2.3002   26.7477 C.ar    1  UNL1        0.0042
     24 C          -1.8085    2.8330   26.7067 C.ar    1  UNL1       -0.0041
     25 C          -2.3999    3.2889   25.4058 C.ar    1  UNL1       -0.0228
     26 C          -1.5897    3.2121   24.1458 C.ar    1  UNL1       -0.0041
     27 C          -0.1881    2.6794   24.1867 C.ar    1  UNL1        0.0042
     28 C          -3.8015    3.8216   25.3649 C.3     1  UNL1        0.0189
     29 C          -3.7921    3.9613   26.8583 C.3     1  UNL1        0.0044
     30 C          -3.8110    3.6820   23.8715 C.3     1  UNL1        0.0044
     31 C          -5.2032    4.3544   25.3239 C.3     1  UNL1        0.0044
     32 N           7.3064   -0.9663   31.6026 N.pl3   1  UNL1       -0.2966
     33 H           8.2643   -0.8500   31.7979 H       1  UNL1        0.1537
     34 C           6.2793   -0.2705   32.4458 C.ar    1  UNL1        0.0494
     35 C           6.3797    1.2072   32.6828 C.ar    1  UNL1        0.0148
     36 C           5.3527    1.9031   33.5260 C.ar    1  UNL1        0.0058
     37 C           4.2252    1.1211   34.1321 C.ar    1  UNL1        0.0537
     38 C           4.1249   -0.3566   33.8952 C.ar    1  UNL1        0.0058
     39 C           5.1519   -1.0524   33.0520 C.ar    1  UNL1        0.0148
     40 C           3.1981    1.8169   34.9754 C.2     1  UNL1        0.2492
     41 O           1.9299    2.3187   34.3509 O.2     1  UNL1       -0.2699
     42 N           3.4392    2.0108   36.4431 N.am    1  UNL1       -0.2709
     43 C           4.7073    1.5090   37.0676 C.3     1  UNL1        0.1258
     44 C           4.9485    1.7030   38.5353 C.3     1  UNL1        0.1637
     45 O           3.9214    2.3987   39.3786 O.3     1  UNL1       -0.3501
     46 C           2.6533    2.9005   38.7541 C.3     1  UNL1        0.1637
     47 C           2.4121    2.7065   37.2864 C.3     1  UNL1        0.1258
@<TRIPOS>BOND
     1    11    12    1
     2    12    13   ar
     3    13    18    1
     4    18    19   am
     5    19    20    2
     6    19    22    1
     7    22    23   ar
     8    23    24   ar
     9    24    25   ar
    10    25    28    1
    11    28    29    1
    12    28    30    1
    13    28    31    1
    14    25    26   ar
    15    26    27   ar
    16    13    14   ar
    17    14    15   ar
    18    15    16   ar
    19    16    17   ar
    20    17     1    1
    21     1     2   ar
    22     2     3   ar
    23     3    32    1
    24    32    34    1
    25    34    35   ar
    26    35    36   ar
    27    36    37   ar
    28    37    40    1
    29    40    41    2
    30    40    42   am
    31    42    43    1
    32    43    44    1
    33    44    45    1
    34    45    46    1
    35    46    47    1
    36    37    38   ar
    37    38    39   ar
    38     3     4   ar
    39     4     5   ar
    40     5     6   ar
    41     6     7   ar
    42     7     8   ar
    43     8     9   ar
    44    17    12   ar
    45     9     1   ar
    46    27    22   ar
    47    39    34   ar
    48     8     4    1
    49    47    42    1
    50    18    21    1
    51    32    33    1
    52     9    10    1
