@<TRIPOS>MOLECULE
*****
 46 52 0 0 0
SMALL
GASTEIGER

@<TRIPOS>ATOM
      1 N           3.7615    1.3261   35.5312 N.3     1  UNL1       -0.2676
      2 C           4.5809    0.4174   34.6636 C.3     1  UNL1        0.0746
      3 C           4.2473    0.2676   33.2089 C.3     1  UNL1        0.0449
      4 C           3.0943    1.0264   32.6218 C.3     1  UNL1        0.1391
      5 C           2.2749    1.9352   33.4894 C.3     1  UNL1        0.0449
      6 C           2.6085    2.0850   34.9441 C.3     1  UNL1        0.0746
      7 C           1.9769    1.7173   31.8977 C.2     1  UNL1        0.2529
      8 O           0.9970    2.6793   32.5013 O.2     1  UNL1       -0.2724
      9 N           2.0115    1.2772   30.4641 N.am    1  UNL1       -0.1907
     10 C           3.1503    0.3144   30.3021 C.2     1  UNL1        0.3219
     11 O           3.5497   -0.3728   29.0301 O.2     1  UNL1       -0.2512
     12 N           3.8194    0.1594   31.6356 N.am    1  UNL1       -0.2222
     13 C           5.0055   -0.7100   31.9312 C.ar    1  UNL1        0.1453
     14 C           4.8097   -2.1617   32.2535 C.ar    1  UNL1        0.0922
     15 C           5.9958   -3.0310   32.5491 C.ar    1  UNL1        0.2259
     16 O           5.7999   -4.4828   32.8714 O.3     1  UNL1       -0.4919
     17 N           7.3779   -2.4486   32.5223 N.ar    1  UNL1       -0.1894
     18 C           7.5738   -0.9968   32.1999 C.ar    1  UNL1        0.2027
     19 N           6.3876   -0.1275   31.9044 N.ar    1  UNL1       -0.2084
     20 H           4.9366   -4.8467   32.8882 H       1  UNL1        0.2938
     21 C           1.0723    1.7219   29.3824 C.ar    1  UNL1        0.0622
     22 C           1.1184    3.1357   28.8835 C.ar    1  UNL1        0.0154
     23 C           0.1792    3.5804   27.8018 C.ar    1  UNL1        0.0013
     24 C          -0.8062    2.6113   27.2190 C.ar    1  UNL1        0.0001
     25 C          -0.8524    1.1974   27.7179 C.ar    1  UNL1        0.0013
     26 C           0.0869    0.7527   28.7996 C.ar    1  UNL1        0.0154
     27 C          -1.7454    3.0559   26.1373 C.ar    1  UNL1        0.0001
     28 C          -1.2856    3.0845   24.7098 C.ar    1  UNL1        0.0013
     29 C          -2.2248    3.5292   23.6281 C.ar    1  UNL1        0.0145
     30 C          -3.6239    3.9453   23.9739 C.ar    1  UNL1        0.0480
     31 C          -4.0837    3.9167   25.4014 C.ar    1  UNL1        0.0145
     32 C          -3.1444    3.4720   26.4831 C.ar    1  UNL1        0.0013
     33 N          -4.5632    4.3900   22.8922 N.pl3   1  UNL1       -0.3028
     34 C          -6.0402    4.1800   23.0483 C.3     1  UNL1        0.1231
     35 C          -6.9794    4.6247   21.9666 C.3     1  UNL1        0.1636
     36 O          -6.4416    5.2794   20.7288 O.3     1  UNL1       -0.3501
     37 C          -4.9646    5.4893   20.5727 C.3     1  UNL1        0.1636
     38 C          -4.0254    5.0446   21.6544 C.3     1  UNL1        0.1231
     39 C           4.0951    1.4760   36.9860 C.3     1  UNL1        0.1183
     40 C           3.1309    4.0977   38.0801 C.3     1  UNL1        0.0323
     41 C           2.5155    2.8149   38.5552 C.ar    1  UNL1       -0.0069
     42 C           1.4180    2.8429   39.5773 C.ar    1  UNL1       -0.0015
     43 C           0.8026    1.5601   40.0523 C.ar    1  UNL1        0.0203
     44 C           1.2847    0.2493   39.5053 C.ar    1  UNL1        0.0985
     45 N           2.3822    0.2212   38.4832 N.ar    1  UNL1       -0.2471
     46 C           2.9976    1.5041   38.0081 C.ar    1  UNL1        0.0712
@<TRIPOS>BOND
     1    40    41    1
     2    41    42   ar
     3    42    43   ar
     4    43    44   ar
     5    44    45   ar
     6    45    46   ar
     7    46    39    1
     8    39     1    1
     9     1     2    1
    10     2     3    1
    11     3     4    1
    12     4     5    1
    13     5     6    1
    14     4     7    1
    15     7     8    2
    16     7     9   am
    17     9    21    1
    18    21    22   ar
    19    22    23   ar
    20    23    24   ar
    21    24    27    1
    22    27    28   ar
    23    28    29   ar
    24    29    30   ar
    25    30    33    1
    26    33    34    1
    27    34    35    1
    28    35    36    1
    29    36    37    1
    30    37    38    1
    31    30    31   ar
    32    31    32   ar
    33    24    25   ar
    34    25    26   ar
    35     9    10   am
    36    10    11    2
    37    10    12   am
    38    12    13    1
    39    13    14   ar
    40    14    15   ar
    41    15    16    1
    42    15    17   ar
    43    17    18   ar
    44    18    19   ar
    45    46    41   ar
    46     6     1    1
    47    26    21   ar
    48    19    13   ar
    49    12     4    1
    50    32    27   ar
    51    38    33    1
    52    16    20    1
@<TRIPOS>MOLECULE
*****
 46 52 0 0 0
SMALL
GASTEIGER

@<TRIPOS>ATOM
      1 N           4.4176    0.6539   35.4283 N.3     1  UNL1       -0.2676
      2 C           5.1642   -0.2456   34.4884 C.3     1  UNL1        0.0746
      3 C           4.7474   -0.3397   33.0506 C.3     1  UNL1        0.0449
      4 C           3.5841    0.4657   32.5527 C.3     1  UNL1        0.1391
      5 C           2.8375    1.3652   33.4926 C.3     1  UNL1        0.0449
      6 C           3.2543    1.4593   34.9304 C.3     1  UNL1        0.0746
      7 C           2.4470    1.2068   31.9140 C.2     1  UNL1        0.2529
      8 O           1.5270    2.1720   32.6010 O.2     1  UNL1       -0.2724
      9 N           2.3913    0.8131   30.4675 N.am    1  UNL1       -0.1907
     10 C           3.4941   -0.1713   30.2123 C.2     1  UNL1        0.3219
     11 O           3.8050   -0.8260   28.8992 O.2     1  UNL1       -0.2512
     12 N           4.2312   -0.3860   31.5010 N.am    1  UNL1       -0.2222
     13 C           5.4087   -1.2930   31.7026 C.ar    1  UNL1        0.1453
     14 C           5.1960   -2.7125   32.1383 C.ar    1  UNL1        0.0922
     15 C           6.3736   -3.6195   32.3400 C.ar    1  UNL1        0.2259
     16 O           6.1610   -5.0390   32.7757 O.3     1  UNL1       -0.4919
     17 N           7.7638   -3.1071   32.1059 N.ar    1  UNL1       -0.1894
     18 C           7.9765   -1.6876   31.6702 C.ar    1  UNL1        0.2027
     19 N           6.7989   -0.7806   31.4686 N.ar    1  UNL1       -0.2084
     20 H           5.2926   -5.3591   32.9219 H       1  UNL1        0.2938
     21 C           1.4060    1.3155   29.4543 C.ar    1  UNL1        0.0622
     22 C           1.4313    2.7549   29.0332 C.ar    1  UNL1        0.0154
     23 C           0.4460    3.2574   28.0199 C.ar    1  UNL1        0.0013
     24 C          -0.5646    2.3204   27.4278 C.ar    1  UNL1        0.0001
     25 C          -0.5899    0.8810   27.8489 C.ar    1  UNL1        0.0013
     26 C           0.3954    0.3785   28.8622 C.ar    1  UNL1        0.0154
     27 C          -1.5499    2.8229   26.4146 C.ar    1  UNL1        0.0001
     28 C          -1.1886    2.8346   24.9587 C.ar    1  UNL1        0.0013
     29 C          -2.1739    3.3371   23.9455 C.ar    1  UNL1        0.0145
     30 C          -3.5206    3.8278   24.3880 C.ar    1  UNL1        0.0480
     31 C          -3.8819    3.8161   25.8439 C.ar    1  UNL1        0.0145
     32 C          -2.8965    3.3136   26.8571 C.ar    1  UNL1        0.0013
     33 N          -4.5059    4.3303   23.3748 N.pl3   1  UNL1       -0.3028
     34 C          -4.0194    4.9910   22.1191 C.3     1  UNL1        0.1231
     35 C          -5.0047    5.4934   21.1058 C.3     1  UNL1        0.1636
     36 O          -6.4765    5.3352   21.3483 O.3     1  UNL1       -0.3501
     37 C          -6.9630    4.6745   22.6041 C.3     1  UNL1        0.1636
     38 C          -5.9777    4.1720   23.6173 C.3     1  UNL1        0.1231
     39 C           4.8344    0.7480   36.8662 C.3     1  UNL1        0.1183
     40 C           2.4003    0.9611   38.6069 C.3     1  UNL1        0.0323
     41 C           3.3575    2.1120   38.5120 C.ar    1  UNL1       -0.0069
     42 C           3.0978    3.3695   39.2874 C.ar    1  UNL1       -0.0015
     43 C           4.0550    4.5205   39.1924 C.ar    1  UNL1        0.0203
     44 C           5.2720    4.4140   38.3221 C.ar    1  UNL1        0.0985
     45 N           5.5318    3.1564   37.5467 N.ar    1  UNL1       -0.2471
     46 C           4.5746    2.0055   37.6416 C.ar    1  UNL1        0.0712
@<TRIPOS>BOND
     1    40    41    1
     2    41    42   ar
     3    42    43   ar
     4    43    44   ar
     5    44    45   ar
     6    45    46   ar
     7    46    39    1
     8    39     1    1
     9     1     2    1
    10     2     3    1
    11     3     4    1
    12     4     5    1
    13     5     6    1
    14     4     7    1
    15     7     8    2
    16     7     9   am
    17     9    21    1
    18    21    22   ar
    19    22    23   ar
    20    23    24   ar
    21    24    27    1
    22    27    28   ar
    23    28    29   ar
    24    29    30   ar
    25    30    33    1
    26    33    34    1
    27    34    35    1
    28    35    36    1
    29    36    37    1
    30    37    38    1
    31    30    31   ar
    32    31    32   ar
    33    24    25   ar
    34    25    26   ar
    35     9    10   am
    36    10    11    2
    37    10    12   am
    38    12    13    1
    39    13    14   ar
    40    14    15   ar
    41    15    16    1
    42    15    17   ar
    43    17    18   ar
    44    18    19   ar
    45    46    41   ar
    46     6     1    1
    47    26    21   ar
    48    19    13   ar
    49    12     4    1
    50    32    27   ar
    51    38    33    1
    52    16    20    1
@<TRIPOS>MOLECULE
*****
 46 52 0 0 0
SMALL
GASTEIGER

@<TRIPOS>ATOM
      1 N           2.7190    2.8124   35.0860 N.3     1  UNL1       -0.2676
      2 C           3.4963    1.6724   34.4976 C.3     1  UNL1        0.0746
      3 C           3.2733    1.2706   33.0698 C.3     1  UNL1        0.0449
      4 C           2.2731    2.0087   32.2303 C.3     1  UNL1        0.1391
      5 C           1.4958    3.1487   32.8187 C.3     1  UNL1        0.0449
      6 C           1.7187    3.5505   34.2465 C.3     1  UNL1        0.0746
      7 C           1.3118    2.6497   31.2737 C.2     1  UNL1        0.2529
      8 O           0.4046    3.8051   31.5771 O.2     1  UNL1       -0.2724
      9 N           1.4169    1.9324   29.9605 N.am    1  UNL1       -0.1907
     10 C           2.4432    0.8480   30.1055 C.2     1  UNL1        0.3219
     11 O           2.8660   -0.1144   29.0356 O.2     1  UNL1       -0.2512
     12 N           2.9723    0.8952   31.5082 N.am    1  UNL1       -0.2222
     13 C           4.0172   -0.0119   32.0874 C.ar    1  UNL1        0.1453
     14 C           5.4687    0.3502   31.9782 C.ar    1  UNL1        0.0922
     15 C           6.5136   -0.5569   32.5574 C.ar    1  UNL1        0.2259
     16 O           7.9651   -0.1948   32.4482 O.3     1  UNL1       -0.4919
     17 N           6.1070   -1.8261   33.2458 N.ar    1  UNL1       -0.1894
     18 C           4.6554   -2.1882   33.3550 C.ar    1  UNL1        0.2027
     19 N           3.6106   -1.2811   32.7758 N.ar    1  UNL1       -0.2084
     20 H           8.2192    0.5980   32.0182 H       1  UNL1        0.2938
     21 C           0.6333    2.2446   28.7201 C.ar    1  UNL1        0.0622
     22 C           0.5733    3.6521   28.2054 C.ar    1  UNL1        0.0154
     23 C          -0.2102    3.9644   26.9650 C.ar    1  UNL1        0.0013
     24 C          -0.9338    2.8690   26.2394 C.ar    1  UNL1        0.0001
     25 C          -0.8739    1.4614   26.7542 C.ar    1  UNL1        0.0013
     26 C          -0.0903    1.1492   27.9946 C.ar    1  UNL1        0.0154
     27 C          -1.7174    3.1812   24.9990 C.ar    1  UNL1        0.0001
     28 C          -1.0250    3.2411   23.6697 C.ar    1  UNL1        0.0013
     29 C          -1.8086    3.5533   22.4294 C.ar    1  UNL1        0.0145
     30 C          -3.2846    3.8057   22.5183 C.ar    1  UNL1        0.0480
     31 C          -3.9770    3.7459   23.8476 C.ar    1  UNL1        0.0145
     32 C          -3.1933    3.4336   25.0880 C.ar    1  UNL1        0.0013
     33 N          -4.0682    4.1179   21.2779 N.pl3   1  UNL1       -0.3028
     34 C          -5.2944    4.9778   21.3620 C.3     1  UNL1        0.1231
     35 C          -6.0779    5.2900   20.1216 C.3     1  UNL1        0.1636
     36 O          -5.6353    4.7423   18.7972 O.3     1  UNL1       -0.3501
     37 C          -4.4091    3.8824   18.7131 C.3     1  UNL1        0.1636
     38 C          -3.6255    3.5702   19.9535 C.3     1  UNL1        0.1231
     39 C           2.9419    3.2143   36.5139 C.3     1  UNL1        0.1183
     40 C           4.0543    0.6991   37.7125 C.3     1  UNL1        0.0323
     41 C           2.7557    1.2582   38.2136 C.ar    1  UNL1       -0.0069
     42 C           2.0133    0.5597   39.3140 C.ar    1  UNL1       -0.0015
     43 C           0.7147    1.1188   39.8151 C.ar    1  UNL1        0.0203
     44 C           0.1585    2.3763   39.2159 C.ar    1  UNL1        0.0985
     45 N           0.9009    3.0749   38.1154 N.ar    1  UNL1       -0.2471
     46 C           2.1995    2.5158   37.6143 C.ar    1  UNL1        0.0712
@<TRIPOS>BOND
     1    40    41    1
     2    41    42   ar
     3    42    43   ar
     4    43    44   ar
     5    44    45   ar
     6    45    46   ar
     7    46    39    1
     8    39     1    1
     9     1     2    1
    10     2     3    1
    11     3     4    1
    12     4     5    1
    13     5     6    1
    14     4     7    1
    15     7     8    2
    16     7     9   am
    17     9    21    1
    18    21    22   ar
    19    22    23   ar
    20    23    24   ar
    21    24    27    1
    22    27    28   ar
    23    28    29   ar
    24    29    30   ar
    25    30    33    1
    26    33    34    1
    27    34    35    1
    28    35    36    1
    29    36    37    1
    30    37    38    1
    31    30    31   ar
    32    31    32   ar
    33    24    25   ar
    34    25    26   ar
    35     9    10   am
    36    10    11    2
    37    10    12   am
    38    12    13    1
    39    13    14   ar
    40    14    15   ar
    41    15    16    1
    42    15    17   ar
    43    17    18   ar
    44    18    19   ar
    45    46    41   ar
    46     6     1    1
    47    26    21   ar
    48    19    13   ar
    49    12     4    1
    50    32    27   ar
    51    38    33    1
    52    16    20    1
@<TRIPOS>MOLECULE
*****
 46 52 0 0 0
SMALL
GASTEIGER

@<TRIPOS>ATOM
      1 N           6.5317   -2.2402   28.7826 N.3     1  UNL1       -0.2676
      2 C           6.1157   -1.8682   30.1748 C.3     1  UNL1        0.0746
      3 C           4.8688   -1.0642   30.3954 C.3     1  UNL1        0.0449
      4 C           4.0379   -0.6322   29.2236 C.3     1  UNL1        0.1391
      5 C           4.4539   -1.0042   27.8314 C.3     1  UNL1        0.0449
      6 C           5.7008   -1.8083   27.6108 C.3     1  UNL1        0.0746
      7 C           3.1111   -0.1316   28.1557 C.2     1  UNL1        0.2529
      8 O           3.2686   -0.3471   26.6796 O.2     1  UNL1       -0.2724
      9 N           1.9992    0.6225   28.8229 N.am    1  UNL1       -0.1907
     10 C           2.2388    0.5879   30.3033 C.2     1  UNL1        0.3219
     11 O           1.3708    1.2180   31.3518 O.2     1  UNL1       -0.2512
     12 N           3.4987   -0.1875   30.5510 N.am    1  UNL1       -0.2222
     13 C           4.1119   -0.4689   31.8906 C.ar    1  UNL1        0.1453
     14 C           5.0682    0.5135   32.4991 C.ar    1  UNL1        0.0922
     15 C           5.6814    0.2320   33.8388 C.ar    1  UNL1        0.2259
     16 O           6.6378    1.2144   34.4472 O.3     1  UNL1       -0.4919
     17 N           5.3382   -1.0319   34.5701 N.ar    1  UNL1       -0.1894
     18 C           4.3818   -2.0143   33.9617 C.ar    1  UNL1        0.2027
     19 N           3.7687   -1.7328   32.6220 N.ar    1  UNL1       -0.2084
     20 H           6.8522    2.0039   33.9904 H       1  UNL1        0.2938
     21 C           0.8496    1.2933   28.1312 C.ar    1  UNL1        0.0622
     22 C          -0.5581    0.8824   28.4461 C.ar    1  UNL1        0.0154
     23 C          -1.7077    1.5533   27.7544 C.ar    1  UNL1        0.0013
     24 C          -1.4495    2.6350   26.7479 C.ar    1  UNL1        0.0001
     25 C          -0.0417    3.0459   26.4330 C.ar    1  UNL1        0.0013
     26 C           1.1079    2.3751   27.1247 C.ar    1  UNL1        0.0154
     27 C          -2.5991    3.3058   26.0562 C.ar    1  UNL1        0.0001
     28 C          -2.6446    3.3600   24.5579 C.ar    1  UNL1        0.0013
     29 C          -3.7942    4.0308   23.8662 C.ar    1  UNL1        0.0145
     30 C          -4.8983    4.6475   24.6729 C.ar    1  UNL1        0.0480
     31 C          -4.8528    4.5934   26.1712 C.ar    1  UNL1        0.0145
     32 C          -3.7032    3.9225   26.8629 C.ar    1  UNL1        0.0013
     33 N          -6.0479    5.3183   23.9812 N.pl3   1  UNL1       -0.3028
     34 C          -6.0325    5.4848   22.4905 C.3     1  UNL1        0.1231
     35 C          -7.1821    6.1557   21.7989 C.3     1  UNL1        0.1636
     36 O          -8.3471    6.6600   22.5978 O.3     1  UNL1       -0.3501
     37 C          -8.3625    6.4935   24.0885 C.3     1  UNL1        0.1636
     38 C          -7.2129    5.8227   24.7802 C.3     1  UNL1        0.1231
     39 C           7.7787   -3.0443   28.5620 C.3     1  UNL1        0.1183
     40 C           6.9413   -5.7636   29.5131 C.3     1  UNL1        0.0323
     41 C           7.3472   -5.5612   28.0833 C.ar    1  UNL1       -0.0069
     42 C           7.3343   -6.7185   27.1291 C.ar    1  UNL1       -0.0015
     43 C           7.7402   -6.5162   25.6993 C.ar    1  UNL1        0.0203
     44 C           8.1588   -5.1566   25.2237 C.ar    1  UNL1        0.0985
     45 N           8.1717   -3.9993   26.1779 N.ar    1  UNL1       -0.2471
     46 C           7.7658   -4.2016   27.6077 C.ar    1  UNL1        0.0712
@<TRIPOS>BOND
     1    40    41    1
     2    41    42   ar
     3    42    43   ar
     4    43    44   ar
     5    44    45   ar
     6    45    46   ar
     7    46    39    1
     8    39     1    1
     9     1     2    1
    10     2     3    1
    11     3     4    1
    12     4     5    1
    13     5     6    1
    14     4     7    1
    15     7     8    2
    16     7     9   am
    17     9    21    1
    18    21    22   ar
    19    22    23   ar
    20    23    24   ar
    21    24    27    1
    22    27    28   ar
    23    28    29   ar
    24    29    30   ar
    25    30    33    1
    26    33    34    1
    27    34    35    1
    28    35    36    1
    29    36    37    1
    30    37    38    1
    31    30    31   ar
    32    31    32   ar
    33    24    25   ar
    34    25    26   ar
    35     9    10   am
    36    10    11    2
    37    10    12   am
    38    12    13    1
    39    13    14   ar
    40    14    15   ar
    41    15    16    1
    42    15    17   ar
    43    17    18   ar
    44    18    19   ar
    45    46    41   ar
    46     6     1    1
    47    26    21   ar
    48    19    13   ar
    49    12     4    1
    50    32    27   ar
    51    38    33    1
    52    16    20    1
@<TRIPOS>MOLECULE
*****
 46 52 0 0 0
SMALL
GASTEIGER

@<TRIPOS>ATOM
      1 N          -2.4617    3.7331   20.7019 N.3     1  UNL1       -0.2676
      2 C          -3.6546    4.2629   21.4410 C.3     1  UNL1        0.0746
      3 C          -3.6670    4.2660   22.9409 C.3     1  UNL1        0.0449
      4 C          -2.4865    3.7393   23.7017 C.3     1  UNL1        0.1391
      5 C          -1.2936    3.2094   22.9627 C.3     1  UNL1        0.0449
      6 C          -1.2812    3.2063   21.4628 C.3     1  UNL1        0.0746
      7 C          -1.3852    3.2476   24.5936 C.2     1  UNL1        0.2529
      8 O          -0.0781    2.6665   24.1421 O.2     1  UNL1       -0.2724
      9 N          -1.8204    3.4391   26.0163 N.am    1  UNL1       -0.1907
     10 C          -3.1908    4.0491   26.0037 C.2     1  UNL1        0.3219
     11 O          -4.0062    4.4102   27.2097 O.2     1  UNL1       -0.2512
     12 N          -3.6024    4.2346   24.5733 N.am    1  UNL1       -0.2222
     13 C          -4.9018    4.8138   24.0977 C.ar    1  UNL1        0.1453
     14 C          -6.1233    3.9473   24.0143 C.ar    1  UNL1        0.0922
     15 C          -7.4226    4.5266   23.5387 C.ar    1  UNL1        0.2259
     16 O          -8.6442    3.6601   23.4553 O.3     1  UNL1       -0.4919
     17 N          -7.5005    5.9724   23.1466 N.ar    1  UNL1       -0.1894
     18 C          -6.2790    6.8389   23.2301 C.ar    1  UNL1        0.2027
     19 N          -4.9796    6.2596   23.7056 N.ar    1  UNL1       -0.2084
     20 H          -8.5956    2.7570   23.7002 H       1  UNL1        0.2938
     21 C          -1.0250    3.0830   27.2372 C.ar    1  UNL1        0.0622
     22 C          -1.0190    1.6710   27.7429 C.ar    1  UNL1        0.0154
     23 C          -0.2236    1.3149   28.9638 C.ar    1  UNL1        0.0013
     24 C           0.5658    2.3710   29.6789 C.ar    1  UNL1        0.0001
     25 C           0.5598    3.7832   29.1732 C.ar    1  UNL1        0.0013
     26 C          -0.2356    4.1392   27.9523 C.ar    1  UNL1        0.0154
     27 C           1.3612    2.0150   30.8998 C.ar    1  UNL1        0.0001
     28 C           2.3289    0.8696   30.8568 C.ar    1  UNL1        0.0013
     29 C           3.1243    0.5136   32.0777 C.ar    1  UNL1        0.0145
     30 C           2.9520    1.3029   33.3416 C.ar    1  UNL1        0.0480
     31 C           1.9843    2.4482   33.3846 C.ar    1  UNL1        0.0145
     32 C           1.1889    2.8042   32.1636 C.ar    1  UNL1        0.0013
     33 N           3.7475    0.9469   34.5625 N.pl3   1  UNL1       -0.3028
     34 C           4.7531   -0.1646   34.5046 C.3     1  UNL1        0.1231
     35 C           5.5485   -0.5206   35.7255 C.3     1  UNL1        0.1636
     36 O           5.3383    0.2348   37.0042 O.3     1  UNL1       -0.3501
     37 C           4.3326    1.3463   37.0621 C.3     1  UNL1        0.1636
     38 C           3.5372    1.7023   35.8412 C.3     1  UNL1        0.1231
     39 C          -2.4493    3.7299   19.2019 C.3     1  UNL1        0.1183
     40 C          -5.2659    3.6005   18.1771 C.3     1  UNL1        0.0323
     41 C          -4.4342    4.8246   17.9323 C.ar    1  UNL1       -0.0069
     42 C          -5.0108    5.9840   17.1750 C.ar    1  UNL1       -0.0015
     43 C          -4.1791    7.2080   16.9302 C.ar    1  UNL1        0.0203
     44 C          -2.7709    7.2728   17.4426 C.ar    1  UNL1        0.0985
     45 N          -2.1942    6.1134   18.1999 N.ar    1  UNL1       -0.2471
     46 C          -3.0259    4.8893   18.4447 C.ar    1  UNL1        0.0712
@<TRIPOS>BOND
     1    40    41    1
     2    41    42   ar
     3    42    43   ar
     4    43    44   ar
     5    44    45   ar
     6    45    46   ar
     7    46    39    1
     8    39     1    1
     9     1     2    1
    10     2     3    1
    11     3     4    1
    12     4     5    1
    13     5     6    1
    14     4     7    1
    15     7     8    2
    16     7     9   am
    17     9    21    1
    18    21    22   ar
    19    22    23   ar
    20    23    24   ar
    21    24    27    1
    22    27    28   ar
    23    28    29   ar
    24    29    30   ar
    25    30    33    1
    26    33    34    1
    27    34    35    1
    28    35    36    1
    29    36    37    1
    30    37    38    1
    31    30    31   ar
    32    31    32   ar
    33    24    25   ar
    34    25    26   ar
    35     9    10   am
    36    10    11    2
    37    10    12   am
    38    12    13    1
    39    13    14   ar
    40    14    15   ar
    41    15    16    1
    42    15    17   ar
    43    17    18   ar
    44    18    19   ar
    45    46    41   ar
    46     6     1    1
    47    26    21   ar
    48    19    13   ar
    49    12     4    1
    50    32    27   ar
    51    38    33    1
    52    16    20    1
@<TRIPOS>MOLECULE
*****
 46 52 0 0 0
SMALL
GASTEIGER

@<TRIPOS>ATOM
      1 N          -2.4650    3.7391   20.6871 N.3     1  UNL1       -0.2676
      2 C          -3.6518    4.2789   21.4286 C.3     1  UNL1        0.0746
      3 C          -3.6595    4.2854   22.9285 C.3     1  UNL1        0.0449
      4 C          -2.4804    3.7520   23.6869 C.3     1  UNL1        0.1391
      5 C          -1.2936    3.2121   22.9454 C.3     1  UNL1        0.0449
      6 C          -1.2859    3.2057   21.4455 C.3     1  UNL1        0.0746
      7 C          -1.3799    3.2545   24.5765 C.2     1  UNL1        0.2529
      8 O          -0.0783    2.6632   24.1222 O.2     1  UNL1       -0.2724
      9 N          -1.8094    3.4521   26.0001 N.am    1  UNL1       -0.1907
     10 C          -3.1754    4.0718   25.9903 C.2     1  UNL1        0.3219
     11 O          -3.9845    4.4412   27.1980 O.2     1  UNL1       -0.2512
     12 N          -3.5901    4.2571   24.5608 N.am    1  UNL1       -0.2222
     13 C          -4.8868    4.8444   24.0880 C.ar    1  UNL1        0.1453
     14 C          -6.1146    3.9863   24.0096 C.ar    1  UNL1        0.0922
     15 C          -7.4112    4.5737   23.5368 C.ar    1  UNL1        0.2259
     16 O          -8.6390    3.7155   23.4584 O.3     1  UNL1       -0.4919
     17 N          -7.4803    6.0192   23.1423 N.ar    1  UNL1       -0.1894
     18 C          -6.2525    6.8774   23.2206 C.ar    1  UNL1        0.2027
     19 N          -4.9558    6.2900   23.6935 N.ar    1  UNL1       -0.2084
     20 H          -8.5959    2.8125   23.7048 H       1  UNL1        0.2938
     21 C          -1.0127    3.0931   27.2193 C.ar    1  UNL1        0.0622
     22 C          -0.2287    4.1490   27.9406 C.ar    1  UNL1        0.0154
     23 C           0.5679    3.7900   29.1598 C.ar    1  UNL1        0.0013
     24 C           0.5805    2.3752   29.6577 C.ar    1  UNL1        0.0001
     25 C          -0.2035    1.3192   28.9363 C.ar    1  UNL1        0.0013
     26 C          -1.0001    1.6782   27.7171 C.ar    1  UNL1        0.0154
     27 C           1.3772    2.0162   30.8769 C.ar    1  UNL1        0.0001
     28 C           1.1925    2.7905   32.1483 C.ar    1  UNL1        0.0013
     29 C           1.9891    2.4315   33.3675 C.ar    1  UNL1        0.0145
     30 C           2.9705    1.2982   33.3154 C.ar    1  UNL1        0.0480
     31 C           3.1552    0.5239   32.0440 C.ar    1  UNL1        0.0145
     32 C           2.3585    0.8829   30.8247 C.ar    1  UNL1        0.0013
     33 N           3.7671    0.9392   34.5346 N.pl3   1  UNL1       -0.3028
     34 C           3.5827    1.7137   35.8059 C.3     1  UNL1        0.1231
     35 C           4.3793    1.3547   37.0251 C.3     1  UNL1        0.1636
     36 O           5.3604    0.2212   36.9730 O.3     1  UNL1       -0.3501
     37 C           5.5448   -0.5533   35.7017 C.3     1  UNL1        0.1636
     38 C           4.7482   -0.1943   34.4825 C.3     1  UNL1        0.1231
     39 C          -2.4572    3.7326   19.1870 C.3     1  UNL1        0.1183
     40 C          -1.8308    6.5974   18.5543 C.3     1  UNL1        0.0323
     41 C          -3.1332    5.9991   18.1119 C.ar    1  UNL1       -0.0069
     42 C          -4.1224    6.8332   17.3532 C.ar    1  UNL1       -0.0015
     43 C          -5.4249    6.2349   16.9108 C.ar    1  UNL1        0.0203
     44 C          -5.7381    4.8025   17.2271 C.ar    1  UNL1        0.0985
     45 N          -4.7488    3.9683   17.9859 N.ar    1  UNL1       -0.2471
     46 C          -3.4464    4.5667   18.4283 C.ar    1  UNL1        0.0712
@<TRIPOS>BOND
     1    40    41    1
     2    41    42   ar
     3    42    43   ar
     4    43    44   ar
     5    44    45   ar
     6    45    46   ar
     7    46    39    1
     8    39     1    1
     9     1     2    1
    10     2     3    1
    11     3     4    1
    12     4     5    1
    13     5     6    1
    14     4     7    1
    15     7     8    2
    16     7     9   am
    17     9    21    1
    18    21    22   ar
    19    22    23   ar
    20    23    24   ar
    21    24    27    1
    22    27    28   ar
    23    28    29   ar
    24    29    30   ar
    25    30    33    1
    26    33    34    1
    27    34    35    1
    28    35    36    1
    29    36    37    1
    30    37    38    1
    31    30    31   ar
    32    31    32   ar
    33    24    25   ar
    34    25    26   ar
    35     9    10   am
    36    10    11    2
    37    10    12   am
    38    12    13    1
    39    13    14   ar
    40    14    15   ar
    41    15    16    1
    42    15    17   ar
    43    17    18   ar
    44    18    19   ar
    45    46    41   ar
    46     6     1    1
    47    26    21   ar
    48    19    13   ar
    49    12     4    1
    50    32    27   ar
    51    38    33    1
    52    16    20    1
@<TRIPOS>MOLECULE
*****
 46 52 0 0 0
SMALL
GASTEIGER

@<TRIPOS>ATOM
      1 N           6.1055   -3.4744   22.3892 N.3     1  UNL1       -0.2676
      2 C           6.7546   -4.2921   23.4663 C.3     1  UNL1        0.0746
      3 C           6.5445   -3.9355   24.9080 C.3     1  UNL1        0.0449
      4 C           5.6853   -2.7613   25.2727 C.3     1  UNL1        0.1391
      5 C           5.0363   -1.9436   24.1957 C.3     1  UNL1        0.0449
      6 C           5.2464   -2.3002   22.7539 C.3     1  UNL1        0.0746
      7 C           4.8574   -1.6213   25.7874 C.2     1  UNL1        0.2529
      8 O           4.0942   -0.6377   24.9507 O.2     1  UNL1       -0.2724
      9 N           4.9267   -1.6375   27.2858 N.am    1  UNL1       -0.1907
     10 C           5.7975   -2.7876   27.6971 C.2     1  UNL1        0.3219
     11 O           6.1393   -3.1751   29.1052 O.2     1  UNL1       -0.2512
     12 N           6.2663   -3.4821   26.4530 N.am    1  UNL1       -0.2222
     13 C           7.1594   -4.6860   26.3986 C.ar    1  UNL1        0.1453
     14 C           6.5691   -6.0623   26.4845 C.ar    1  UNL1        0.0922
     15 C           7.4622   -7.2662   26.4300 C.ar    1  UNL1        0.2259
     16 O           6.8719   -8.6424   26.5159 O.3     1  UNL1       -0.4919
     17 N           8.9457   -7.0939   26.2897 N.ar    1  UNL1       -0.1894
     18 C           9.5360   -5.7176   26.2038 C.ar    1  UNL1        0.2027
     19 N           8.6429   -4.5137   26.2583 N.ar    1  UNL1       -0.2084
     20 H           5.9452   -8.7501   26.6035 H       1  UNL1        0.2938
     21 C           4.2449   -0.6731   28.2105 C.ar    1  UNL1        0.0622
     22 C           5.0605    0.2064   29.1111 C.ar    1  UNL1        0.0154
     23 C           4.3787    1.1708   30.0358 C.ar    1  UNL1        0.0013
     24 C           2.8814    1.2558   30.0598 C.ar    1  UNL1        0.0001
     25 C           2.0658    0.3763   29.1591 C.ar    1  UNL1        0.0013
     26 C           2.7475   -0.5881   28.2344 C.ar    1  UNL1        0.0154
     27 C           2.1996    2.2203   30.9845 C.ar    1  UNL1        0.0001
     28 C           1.3379    3.3135   30.4255 C.ar    1  UNL1        0.0013
     29 C           0.6562    4.2779   31.3502 C.ar    1  UNL1        0.0145
     30 C           0.8361    4.1492   32.8339 C.ar    1  UNL1        0.0480
     31 C           1.6978    3.0560   33.3928 C.ar    1  UNL1        0.0145
     32 C           2.3796    2.0915   32.4680 C.ar    1  UNL1        0.0013
     33 N           0.1543    5.1137   33.7585 N.pl3   1  UNL1       -0.3028
     34 C          -1.1553    5.7308   33.3659 C.3     1  UNL1        0.1231
     35 C          -1.8371    6.6952   34.2906 C.3     1  UNL1        0.1636
     36 O          -1.2092    7.0425   35.6078 O.3     1  UNL1       -0.3501
     37 C           0.1004    6.4254   36.0004 C.3     1  UNL1        0.1636
     38 C           0.7822    5.4610   35.0757 C.3     1  UNL1        0.1231
     39 C           6.3156   -3.8310   20.9474 C.3     1  UNL1        0.1183
     40 C           3.7857   -4.2114   19.3804 C.3     1  UNL1        0.0323
     41 C           4.6807   -3.0437   19.0880 C.ar    1  UNL1       -0.0069
     42 C           4.3107   -2.0662   18.0121 C.ar    1  UNL1       -0.0015
     43 C           5.2057   -0.8985   17.7196 C.ar    1  UNL1        0.0203
     44 C           6.4706   -0.7083   18.5031 C.ar    1  UNL1        0.0985
     45 N           6.8406   -1.6858   19.5790 N.ar    1  UNL1       -0.2471
     46 C           5.9456   -2.8535   19.8715 C.ar    1  UNL1        0.0712
@<TRIPOS>BOND
     1    40    41    1
     2    41    42   ar
     3    42    43   ar
     4    43    44   ar
     5    44    45   ar
     6    45    46   ar
     7    46    39    1
     8    39     1    1
     9     1     2    1
    10     2     3    1
    11     3     4    1
    12     4     5    1
    13     5     6    1
    14     4     7    1
    15     7     8    2
    16     7     9   am
    17     9    21    1
    18    21    22   ar
    19    22    23   ar
    20    23    24   ar
    21    24    27    1
    22    27    28   ar
    23    28    29   ar
    24    29    30   ar
    25    30    33    1
    26    33    34    1
    27    34    35    1
    28    35    36    1
    29    36    37    1
    30    37    38    1
    31    30    31   ar
    32    31    32   ar
    33    24    25   ar
    34    25    26   ar
    35     9    10   am
    36    10    11    2
    37    10    12   am
    38    12    13    1
    39    13    14   ar
    40    14    15   ar
    41    15    16    1
    42    15    17   ar
    43    17    18   ar
    44    18    19   ar
    45    46    41   ar
    46     6     1    1
    47    26    21   ar
    48    19    13   ar
    49    12     4    1
    50    32    27   ar
    51    38    33    1
    52    16    20    1
@<TRIPOS>MOLECULE
*****
 46 52 0 0 0
SMALL
GASTEIGER

@<TRIPOS>ATOM
      1 N           3.4888    2.9857   34.1346 N.3     1  UNL1       -0.2676
      2 C           4.0345    1.6837   33.6276 C.3     1  UNL1        0.0746
      3 C           3.6689    1.2008   32.2554 C.3     1  UNL1        0.0449
      4 C           2.7575    2.0199   31.3902 C.3     1  UNL1        0.1391
      5 C           2.2119    3.3218   31.8971 C.3     1  UNL1        0.0449
      6 C           2.5775    3.8047   33.2694 C.3     1  UNL1        0.0746
      7 C           1.8621    2.7267   30.4162 C.2     1  UNL1        0.2529
      8 O           1.1750    4.0406   30.6436 O.2     1  UNL1       -0.2724
      9 N           1.7742    1.8890   29.1750 N.am    1  UNL1       -0.1907
     10 C           2.6155    0.6644   29.3818 C.2     1  UNL1        0.3219
     11 O           2.8141   -0.4461   28.3933 O.2     1  UNL1       -0.2512
     12 N           3.2232    0.7452   30.7508 N.am    1  UNL1       -0.2222
     13 C           4.1362   -0.2701   31.3716 C.ar    1  UNL1        0.1453
     14 C           3.5666   -1.3862   32.1962 C.ar    1  UNL1        0.0922
     15 C           4.4797   -2.4015   32.8169 C.ar    1  UNL1        0.2259
     16 O           3.9101   -3.5176   33.6415 O.3     1  UNL1       -0.4919
     17 N           5.9624   -2.3008   32.6132 N.ar    1  UNL1       -0.1894
     18 C           6.5320   -1.1848   31.7886 C.ar    1  UNL1        0.2027
     19 N           5.6189   -0.1694   31.1678 N.ar    1  UNL1       -0.2084
     20 H           2.9839   -3.5805   33.7688 H       1  UNL1        0.2938
     21 C           0.9840    2.2181   27.9433 C.ar    1  UNL1        0.0622
     22 C           1.6188    2.9995   26.8314 C.ar    1  UNL1        0.0154
     23 C           0.8286    3.3285   25.5997 C.ar    1  UNL1        0.0013
     24 C          -0.5965    2.8762   25.4798 C.ar    1  UNL1        0.0001
     25 C          -1.2314    2.0948   26.5917 C.ar    1  UNL1        0.0013
     26 C          -0.4411    1.7657   27.8234 C.ar    1  UNL1        0.0154
     27 C          -1.3868    3.2053   24.2481 C.ar    1  UNL1        0.0001
     28 C          -2.8373    3.5698   24.3627 C.ar    1  UNL1        0.0013
     29 C          -3.6276    3.8989   23.1310 C.ar    1  UNL1        0.0145
     30 C          -2.9673    3.8635   21.7845 C.ar    1  UNL1        0.0480
     31 C          -1.5167    3.4990   21.6699 C.ar    1  UNL1        0.0145
     32 C          -0.7265    3.1699   22.9017 C.ar    1  UNL1        0.0013
     33 N          -3.7575    4.1926   20.5528 N.pl3   1  UNL1       -0.3028
     34 C          -4.8292    3.2570   20.0770 C.3     1  UNL1        0.1231
     35 C          -5.6195    3.5861   18.8453 C.3     1  UNL1        0.1636
     36 O          -5.3380    4.8508   18.0893 O.3     1  UNL1       -0.3501
     37 C          -4.2664    5.7863   18.5651 C.3     1  UNL1        0.1636
     38 C          -3.4761    5.4572   19.7968 C.3     1  UNL1        0.1231
     39 C           3.8545    3.4687   35.5069 C.3     1  UNL1        0.1183
     40 C           1.4402    4.7662   36.7266 C.3     1  UNL1        0.0323
     41 C           1.9979    3.5084   37.3240 C.ar    1  UNL1       -0.0069
     42 C           1.3485    2.8994   38.5312 C.ar    1  UNL1       -0.0015
     43 C           1.9063    1.6416   39.1285 C.ar    1  UNL1        0.0203
     44 C           3.1134    0.9928   38.5187 C.ar    1  UNL1        0.0985
     45 N           3.7628    1.6018   37.3115 N.ar    1  UNL1       -0.2471
     46 C           3.2051    2.8596   36.7141 C.ar    1  UNL1        0.0712
@<TRIPOS>BOND
     1    40    41    1
     2    41    42   ar
     3    42    43   ar
     4    43    44   ar
     5    44    45   ar
     6    45    46   ar
     7    46    39    1
     8    39     1    1
     9     1     2    1
    10     2     3    1
    11     3     4    1
    12     4     5    1
    13     5     6    1
    14     4     7    1
    15     7     8    2
    16     7     9   am
    17     9    21    1
    18    21    22   ar
    19    22    23   ar
    20    23    24   ar
    21    24    27    1
    22    27    28   ar
    23    28    29   ar
    24    29    30   ar
    25    30    33    1
    26    33    34    1
    27    34    35    1
    28    35    36    1
    29    36    37    1
    30    37    38    1
    31    30    31   ar
    32    31    32   ar
    33    24    25   ar
    34    25    26   ar
    35     9    10   am
    36    10    11    2
    37    10    12   am
    38    12    13    1
    39    13    14   ar
    40    14    15   ar
    41    15    16    1
    42    15    17   ar
    43    17    18   ar
    44    18    19   ar
    45    46    41   ar
    46     6     1    1
    47    26    21   ar
    48    19    13   ar
    49    12     4    1
    50    32    27   ar
    51    38    33    1
    52    16    20    1
@<TRIPOS>MOLECULE
*****
 46 52 0 0 0
SMALL
GASTEIGER

@<TRIPOS>ATOM
      1 N          -0.4286    2.4039   21.4611 N.3     1  UNL1       -0.2676
      2 C          -1.6421    3.2112   21.8156 C.3     1  UNL1        0.0746
      3 C          -1.8964    3.5954   23.2430 C.3     1  UNL1        0.0449
      4 C          -0.9373    3.1724   24.3159 C.3     1  UNL1        0.1391
      5 C           0.2762    2.3651   23.9614 C.3     1  UNL1        0.0449
      6 C           0.5305    1.9808   22.5340 C.3     1  UNL1        0.0746
      7 C          -0.0720    2.8236   25.4905 C.2     1  UNL1        0.2529
      8 O           1.1996    2.0293   25.4439 O.2     1  UNL1       -0.2724
      9 N          -0.7015    3.4086   26.7200 N.am    1  UNL1       -0.1907
     10 C          -1.9559    4.1190   26.3052 C.2     1  UNL1        0.3219
     11 O          -2.8989    4.8474   27.2162 O.2     1  UNL1       -0.2512
     12 N          -2.1016    3.9730   24.8195 N.am    1  UNL1       -0.2222
     13 C          -3.2159    4.5298   23.9839 C.ar    1  UNL1        0.1453
     14 C          -4.5106    3.7817   23.8655 C.ar    1  UNL1        0.0922
     15 C          -5.6249    4.3385   23.0299 C.ar    1  UNL1        0.2259
     16 O          -6.9196    3.5904   22.9116 O.3     1  UNL1       -0.4919
     17 N          -5.4445    5.6436   22.3126 N.ar    1  UNL1       -0.1894
     18 C          -4.1498    6.3917   22.4310 C.ar    1  UNL1        0.2027
     19 N          -3.0356    5.8348   23.2666 N.ar    1  UNL1       -0.2084
     20 H          -7.0323    2.7752   23.3596 H       1  UNL1        0.2938
     21 C          -0.1700    3.3020   28.1186 C.ar    1  UNL1        0.0622
     22 C           0.0210    1.9538   28.7476 C.ar    1  UNL1        0.0154
     23 C           0.5525    1.8471   30.1462 C.ar    1  UNL1        0.0013
     24 C           0.8930    3.0887   30.9158 C.ar    1  UNL1        0.0001
     25 C           0.7020    4.4370   30.2868 C.ar    1  UNL1        0.0013
     26 C           0.1705    4.5436   28.8882 C.ar    1  UNL1        0.0154
     27 C           1.4245    2.9821   32.3144 C.ar    1  UNL1        0.0001
     28 C           1.1287    4.0611   33.3135 C.ar    1  UNL1        0.0013
     29 C           1.6602    3.9545   34.7121 C.ar    1  UNL1        0.0145
     30 C           2.4876    2.7688   35.1117 C.ar    1  UNL1        0.0480
     31 C           2.7834    1.6897   34.1126 C.ar    1  UNL1        0.0145
     32 C           2.2518    1.7964   32.7139 C.ar    1  UNL1        0.0013
     33 N           3.0191    2.6621   36.5103 N.pl3   1  UNL1       -0.3028
     34 C           2.6679    3.7069   37.5278 C.3     1  UNL1        0.1231
     35 C           3.1994    3.6002   38.9264 C.3     1  UNL1        0.1636
     36 O           4.0821    2.4488   39.3075 O.3     1  UNL1       -0.3501
     37 C           4.4332    1.4041   38.2900 C.3     1  UNL1        0.1636
     38 C           3.9017    1.5107   36.8914 C.3     1  UNL1        0.1231
     39 C          -0.1742    2.0196   20.0336 C.3     1  UNL1        0.1183
     40 C           2.2104    3.0592   18.5393 C.3     1  UNL1        0.0323
     41 C           2.1520    1.6173   18.9486 C.ar    1  UNL1       -0.0069
     42 C           3.2858    0.6952   18.6108 C.ar    1  UNL1       -0.0015
     43 C           3.2273   -0.7467   19.0201 C.ar    1  UNL1        0.0203
     44 C           2.0351   -1.2665   19.7672 C.ar    1  UNL1        0.0985
     45 N           0.9012   -0.3444   20.1051 N.ar    1  UNL1       -0.2471
     46 C           0.9596    1.0975   19.6958 C.ar    1  UNL1        0.0712
@<TRIPOS>BOND
     1    40    41    1
     2    41    42   ar
     3    42    43   ar
     4    43    44   ar
     5    44    45   ar
     6    45    46   ar
     7    46    39    1
     8    39     1    1
     9     1     2    1
    10     2     3    1
    11     3     4    1
    12     4     5    1
    13     5     6    1
    14     4     7    1
    15     7     8    2
    16     7     9   am
    17     9    21    1
    18    21    22   ar
    19    22    23   ar
    20    23    24   ar
    21    24    27    1
    22    27    28   ar
    23    28    29   ar
    24    29    30   ar
    25    30    33    1
    26    33    34    1
    27    34    35    1
    28    35    36    1
    29    36    37    1
    30    37    38    1
    31    30    31   ar
    32    31    32   ar
    33    24    25   ar
    34    25    26   ar
    35     9    10   am
    36    10    11    2
    37    10    12   am
    38    12    13    1
    39    13    14   ar
    40    14    15   ar
    41    15    16    1
    42    15    17   ar
    43    17    18   ar
    44    18    19   ar
    45    46    41   ar
    46     6     1    1
    47    26    21   ar
    48    19    13   ar
    49    12     4    1
    50    32    27   ar
    51    38    33    1
    52    16    20    1
