@<TRIPOS>MOLECULE
*****
 17 19 0 0 0
SMALL
GASTEIGER

@<TRIPOS>ATOM
      1 C          -7.9871  -19.5136   19.8583 C.3     1  UNL1        0.0896
      2 N          -9.0696  -18.6923   20.4935 N.3     1  UNL1       -0.2712
      3 C         -10.4969  -18.6116   20.0389 C.3     1  UNL1        0.0725
      4 C         -11.2244  -17.6769   20.9593 C.3     1  UNL1        0.0210
      5 C         -12.5561  -17.0494   21.2471 C.3     1  UNL1        0.0018
      6 C         -12.4015  -16.1646   22.4484 C.3     1  UNL1        0.0004
      7 C         -10.9743  -16.2452   22.9030 C.3     1  UNL1        0.0054
      8 C         -10.2468  -17.1799   21.9827 C.3     1  UNL1        0.0349
      9 C          -8.9151  -17.8074   21.6948 C.3     1  UNL1        0.0762
     10 C          -9.2692  -16.6829   23.0060 C.ar    1  UNL1       -0.0206
     11 C          -8.0999  -15.8449   22.5814 C.ar    1  UNL1       -0.0033
     12 C          -7.1223  -15.3479   23.6048 C.ar    1  UNL1        0.0119
     13 C          -7.3142  -15.6889   25.0529 C.ar    1  UNL1        0.0682
     14 CL         -6.3366  -15.1919   26.0762 Cl      1  UNL1       -0.0814
     15 C          -8.4835  -16.5270   25.4775 C.ar    1  UNL1        0.0679
     16 CL         -8.6752  -16.8680   26.9256 Cl      1  UNL1       -0.0814
     17 C          -9.4610  -17.0239   24.4541 C.ar    1  UNL1        0.0080
@<TRIPOS>BOND
     1     1     2    1
     2     2     3    1
     3     4     3    1
     4     4     5    1
     5     5     6    1
     6     6     7    1
     7     7     8    1
     8     8    10    1
     9    10    11   ar
    10    11    12   ar
    11    12    13   ar
    12    13    14    1
    13    13    15   ar
    14    15    16    1
    15    15    17   ar
    16     8     9    1
    17     9     2    1
    18     8     4    1
    19    17    10   ar
@<TRIPOS>MOLECULE
*****
 17 19 0 0 0
SMALL
GASTEIGER

@<TRIPOS>ATOM
      1 C          -5.0826  -16.2662   24.0184 C.3     1  UNL1        0.0896
      2 N          -4.8610  -17.3840   23.0431 N.3     1  UNL1       -0.2712
      3 C          -3.5308  -17.9206   22.6044 C.3     1  UNL1        0.0725
      4 C          -3.7784  -19.0298   21.6253 C.3     1  UNL1        0.0210
      5 C          -3.1093  -20.0469   20.7491 C.3     1  UNL1        0.0018
      6 C          -4.1791  -20.8244   20.0413 C.3     1  UNL1        0.0004
      7 C          -5.5094  -20.2878   20.4800 C.3     1  UNL1        0.0054
      8 C          -5.2617  -19.1786   21.4590 C.3     1  UNL1        0.0349
      9 C          -5.9308  -18.1615   22.3352 C.3     1  UNL1        0.0762
     10 C          -6.7450  -19.3275   21.2927 C.ar    1  UNL1       -0.0206
     11 C          -7.3615  -19.2192   19.9296 C.ar    1  UNL1       -0.0033
     12 C          -8.8449  -19.3680   19.7633 C.ar    1  UNL1        0.0119
     13 C          -9.7116  -19.6252   20.9602 C.ar    1  UNL1        0.0682
     14 CL        -11.1949  -19.7741   20.7939 Cl      1  UNL1       -0.0814
     15 C          -9.0951  -19.7335   22.3234 C.ar    1  UNL1        0.0679
     16 CL         -9.9619  -19.9907   23.5202 Cl      1  UNL1       -0.0814
     17 C          -7.6118  -19.5847   22.4896 C.ar    1  UNL1        0.0080
@<TRIPOS>BOND
     1     1     2    1
     2     2     3    1
     3     4     3    1
     4     4     5    1
     5     5     6    1
     6     6     7    1
     7     7     8    1
     8     8    10    1
     9    10    11   ar
    10    11    12   ar
    11    12    13   ar
    12    13    14    1
    13    13    15   ar
    14    15    16    1
    15    15    17   ar
    16     8     9    1
    17     9     2    1
    18     8     4    1
    19    17    10   ar
@<TRIPOS>MOLECULE
*****
 17 19 0 0 0
SMALL
GASTEIGER

@<TRIPOS>ATOM
      1 C          -6.4466  -20.1979   21.4252 C.3     1  UNL1        0.0896
      2 N          -6.6579  -18.9147   22.1723 N.3     1  UNL1       -0.2712
      3 C          -5.5858  -17.9569   22.6006 C.3     1  UNL1        0.0725
      4 C          -6.2438  -16.8140   23.3154 C.3     1  UNL1        0.0210
      5 C          -5.9878  -15.5158   24.0219 C.3     1  UNL1        0.0018
      6 C          -7.3084  -14.9649   24.4720 C.3     1  UNL1        0.0004
      7 C          -8.3805  -15.9226   24.0438 C.3     1  UNL1        0.0054
      8 C          -7.7225  -17.0654   23.3290 C.3     1  UNL1        0.0349
      9 C          -7.9785  -18.3637   22.6225 C.3     1  UNL1        0.0762
     10 C          -9.2012  -17.3169   23.3425 C.ar    1  UNL1       -0.0206
     11 C          -9.8022  -18.2001   24.3954 C.ar    1  UNL1       -0.0033
     12 C         -11.2810  -18.4515   24.4089 C.ar    1  UNL1        0.0119
     13 C         -12.1586  -17.8197   23.3695 C.ar    1  UNL1        0.0682
     14 CL        -13.6373  -18.0711   23.3830 Cl      1  UNL1       -0.0814
     15 C         -11.5576  -16.9364   22.3165 C.ar    1  UNL1        0.0679
     16 CL        -12.4354  -16.3046   21.2771 Cl      1  UNL1       -0.0814
     17 C         -10.0789  -16.6850   22.3031 C.ar    1  UNL1        0.0080
@<TRIPOS>BOND
     1     1     2    1
     2     2     3    1
     3     4     3    1
     4     4     5    1
     5     5     6    1
     6     6     7    1
     7     7     8    1
     8     8    10    1
     9    10    11   ar
    10    11    12   ar
    11    12    13   ar
    12    13    14    1
    13    13    15   ar
    14    15    16    1
    15    15    17   ar
    16     8     9    1
    17     9     2    1
    18     8     4    1
    19    17    10   ar
@<TRIPOS>MOLECULE
*****
 17 19 0 0 0
SMALL
GASTEIGER

@<TRIPOS>ATOM
      1 C          -5.4348  -19.3586   21.3902 C.3     1  UNL1        0.0896
      2 N          -5.8532  -18.2381   22.2952 N.3     1  UNL1       -0.2712
      3 C          -4.9365  -17.3688   23.1040 C.3     1  UNL1        0.0725
      4 C          -5.7785  -16.3834   23.8590 C.3     1  UNL1        0.0210
      5 C          -5.7322  -15.2372   24.8255 C.3     1  UNL1        0.0018
      6 C          -7.1408  -14.7891   25.0807 C.3     1  UNL1        0.0004
      7 C          -8.0575  -15.6583   24.2719 C.3     1  UNL1        0.0054
      8 C          -7.2156  -16.6436   23.5169 C.3     1  UNL1        0.0349
      9 C          -7.2618  -17.7898   22.5504 C.3     1  UNL1        0.0762
     10 C          -8.6527  -16.9039   23.1748 C.ar    1  UNL1       -0.0206
     11 C          -9.2542  -16.2892   21.9459 C.ar    1  UNL1       -0.0033
     12 C         -10.6914  -16.5495   21.6038 C.ar    1  UNL1        0.0119
     13 C         -11.5268  -17.4244   22.4906 C.ar    1  UNL1        0.0682
     14 CL        -12.9639  -17.6846   22.1484 Cl      1  UNL1       -0.0814
     15 C         -10.9252  -18.0391   23.7195 C.ar    1  UNL1        0.0679
     16 CL        -11.7607  -18.9141   24.6063 Cl      1  UNL1       -0.0814
     17 C          -9.4881  -17.7788   24.0616 C.ar    1  UNL1        0.0080
@<TRIPOS>BOND
     1     1     2    1
     2     2     3    1
     3     4     3    1
     4     4     5    1
     5     5     6    1
     6     6     7    1
     7     7     8    1
     8     8    10    1
     9    10    11   ar
    10    11    12   ar
    11    12    13   ar
    12    13    14    1
    13    13    15   ar
    14    15    16    1
    15    15    17   ar
    16     8     9    1
    17     9     2    1
    18     8     4    1
    19    17    10   ar
@<TRIPOS>MOLECULE
*****
 17 19 0 0 0
SMALL
GASTEIGER

@<TRIPOS>ATOM
      1 C          -4.1250  -16.6032   23.1195 C.3     1  UNL1        0.0896
      2 N          -5.1712  -16.2606   24.1383 N.3     1  UNL1       -0.2712
      3 C          -4.9186  -15.7093   25.5103 C.3     1  UNL1        0.0725
      4 C          -6.2450  -15.5170   26.1840 C.3     1  UNL1        0.0210
      5 C          -6.9085  -15.0574   27.4483 C.3     1  UNL1        0.0018
      6 C          -8.3910  -15.2058   27.2741 C.3     1  UNL1        0.0004
      7 C          -8.6436  -15.7570   25.9021 C.3     1  UNL1        0.0054
      8 C          -7.3172  -15.9494   25.2284 C.3     1  UNL1        0.0349
      9 C          -6.6537  -16.4089   23.9641 C.3     1  UNL1        0.0762
     10 C          -8.3895  -16.3818   24.2728 C.ar    1  UNL1       -0.0206
     11 C          -8.4389  -15.8039   22.8894 C.ar    1  UNL1       -0.0033
     12 C          -9.5113  -16.2363   21.9339 C.ar    1  UNL1        0.0119
     13 C         -10.5341  -17.2466   22.3616 C.ar    1  UNL1        0.0682
     14 CL        -11.6064  -17.6790   21.4060 Cl      1  UNL1       -0.0814
     15 C         -10.4847  -17.8245   23.7449 C.ar    1  UNL1        0.0679
     16 CL        -11.5076  -18.8349   24.1726 Cl      1  UNL1       -0.0814
     17 C          -9.4124  -17.3921   24.7005 C.ar    1  UNL1        0.0080
@<TRIPOS>BOND
     1     1     2    1
     2     2     3    1
     3     4     3    1
     4     4     5    1
     5     5     6    1
     6     6     7    1
     7     7     8    1
     8     8    10    1
     9    10    11   ar
    10    11    12   ar
    11    12    13   ar
    12    13    14    1
    13    13    15   ar
    14    15    16    1
    15    15    17   ar
    16     8     9    1
    17     9     2    1
    18     8     4    1
    19    17    10   ar
@<TRIPOS>MOLECULE
*****
 17 19 0 0 0
SMALL
GASTEIGER

@<TRIPOS>ATOM
      1 C         -14.1428   -6.9682   16.0064 C.3     1  UNL1        0.0896
      2 N         -12.9220   -6.7494   16.8499 N.3     1  UNL1       -0.2712
      3 C         -11.9366   -7.8016   17.2647 C.3     1  UNL1        0.0725
      4 C         -10.8777   -7.1425   18.0979 C.3     1  UNL1        0.0210
      5 C          -9.6144   -7.3854   18.8692 C.3     1  UNL1        0.0018
      6 C          -9.1645   -6.0759   19.4461 C.3     1  UNL1        0.0004
      7 C         -10.1497   -5.0237   19.0314 C.3     1  UNL1        0.0054
      8 C         -11.2086   -5.6828   18.1981 C.3     1  UNL1        0.0349
      9 C         -12.4720   -5.4399   17.4269 C.3     1  UNL1        0.0762
     10 C         -11.5395   -4.2232   18.2984 C.ar    1  UNL1       -0.0206
     11 C         -12.5937   -3.7574   19.2584 C.ar    1  UNL1       -0.0033
     12 C         -12.9245   -2.2977   19.3586 C.ar    1  UNL1        0.0119
     13 C         -12.2012   -1.3040   18.4987 C.ar    1  UNL1        0.0682
     14 CL        -12.5321    0.1556   18.5990 Cl      1  UNL1       -0.0814
     15 C         -11.1471   -1.7699   17.5387 C.ar    1  UNL1        0.0679
     16 CL        -10.4238   -0.7761   16.6789 Cl      1  UNL1       -0.0814
     17 C         -10.8162   -3.2296   17.4385 C.ar    1  UNL1        0.0080
@<TRIPOS>BOND
     1     1     2    1
     2     2     3    1
     3     4     3    1
     4     4     5    1
     5     5     6    1
     6     6     7    1
     7     7     8    1
     8     8    10    1
     9    10    11   ar
    10    11    12   ar
    11    12    13   ar
    12    13    14    1
    13    13    15   ar
    14    15    16    1
    15    15    17   ar
    16     8     9    1
    17     9     2    1
    18     8     4    1
    19    17    10   ar
@<TRIPOS>MOLECULE
*****
 17 19 0 0 0
SMALL
GASTEIGER

@<TRIPOS>ATOM
      1 C          -9.1248  -16.2605   23.9787 C.3     1  UNL1        0.0896
      2 N          -9.0932  -17.1621   22.7805 N.3     1  UNL1       -0.2712
      3 C         -10.2641  -17.5162   21.9122 C.3     1  UNL1        0.0725
      4 C          -9.7796  -18.4409   20.8351 C.3     1  UNL1        0.0210
      5 C         -10.2039  -19.2312   19.6329 C.3     1  UNL1        0.0018
      6 C          -8.9958  -19.9371   19.0924 C.3     1  UNL1        0.0004
      7 C          -7.8249  -19.5831   19.9605 C.3     1  UNL1        0.0054
      8 C          -8.3094  -18.6584   21.0376 C.3     1  UNL1        0.0349
      9 C          -7.8851  -17.8681   22.2399 C.3     1  UNL1        0.0762
     10 C          -6.8391  -18.8758   21.2401 C.ar    1  UNL1       -0.0206
     11 C          -6.1697  -18.3671   22.4823 C.ar    1  UNL1       -0.0033
     12 C          -4.6994  -18.5846   22.6848 C.ar    1  UNL1        0.0119
     13 C          -3.8986  -19.3108   21.6450 C.ar    1  UNL1        0.0682
     14 CL         -2.4283  -19.5283   21.8475 Cl      1  UNL1       -0.0814
     15 C          -4.5679  -19.8195   20.4027 C.ar    1  UNL1        0.0679
     16 CL         -3.7670  -20.5457   19.3630 Cl      1  UNL1       -0.0814
     17 C          -6.0382  -19.6020   20.2003 C.ar    1  UNL1        0.0080
@<TRIPOS>BOND
     1     1     2    1
     2     2     3    1
     3     4     3    1
     4     4     5    1
     5     5     6    1
     6     6     7    1
     7     7     8    1
     8     8    10    1
     9    10    11   ar
    10    11    12   ar
    11    12    13   ar
    12    13    14    1
    13    13    15   ar
    14    15    16    1
    15    15    17   ar
    16     8     9    1
    17     9     2    1
    18     8     4    1
    19    17    10   ar
@<TRIPOS>MOLECULE
*****
 17 19 0 0 0
SMALL
GASTEIGER

@<TRIPOS>ATOM
      1 C         -10.6968   -0.6261   16.6077 C.3     1  UNL1        0.0896
      2 N         -11.6154   -1.3281   17.5633 N.3     1  UNL1       -0.2712
      3 C         -12.7843   -0.7139   18.2750 C.3     1  UNL1        0.0725
      4 C         -13.4178   -1.7738   19.1266 C.3     1  UNL1        0.0210
      5 C         -14.5317   -2.0492   20.0927 C.3     1  UNL1        0.0018
      6 C         -14.4427   -3.4888   20.5044 C.3     1  UNL1        0.0004
      7 C         -13.2739   -4.1032   19.7928 C.3     1  UNL1        0.0054
      8 C         -12.6404   -3.0432   18.9412 C.3     1  UNL1        0.0349
      9 C         -11.5265   -2.7678   17.9751 C.3     1  UNL1        0.0762
     10 C         -11.8631   -4.3126   18.7558 C.ar    1  UNL1       -0.0206
     11 C         -10.4329   -4.3882   19.2017 C.ar    1  UNL1       -0.0033
     12 C          -9.6556   -5.6577   19.0163 C.ar    1  UNL1        0.0119
     13 C         -10.3085   -6.8514   18.3851 C.ar    1  UNL1        0.0682
     14 CL         -9.5312   -8.1209   18.1997 Cl      1  UNL1       -0.0814
     15 C         -11.7387   -6.7759   17.9392 C.ar    1  UNL1        0.0679
     16 CL        -12.3916   -7.9698   17.3080 Cl      1  UNL1       -0.0814
     17 C         -12.5160   -5.5064   18.1246 C.ar    1  UNL1        0.0080
@<TRIPOS>BOND
     1     1     2    1
     2     2     3    1
     3     4     3    1
     4     4     5    1
     5     5     6    1
     6     6     7    1
     7     7     8    1
     8     8    10    1
     9    10    11   ar
    10    11    12   ar
    11    12    13   ar
    12    13    14    1
    13    13    15   ar
    14    15    16    1
    15    15    17   ar
    16     8     9    1
    17     9     2    1
    18     8     4    1
    19    17    10   ar
@<TRIPOS>MOLECULE
*****
 17 19 0 0 0
SMALL
GASTEIGER

@<TRIPOS>ATOM
      1 C         -12.5001   -1.7991   18.6727 C.3     1  UNL1        0.0896
      2 N         -11.8750   -3.1618   18.7173 N.3     1  UNL1       -0.2712
      3 C         -10.4072   -3.4615   18.6413 C.3     1  UNL1        0.0725
      4 C         -10.2330   -4.9492   18.7228 C.3     1  UNL1        0.0210
      5 C          -9.2181   -6.0537   18.7262 C.3     1  UNL1        0.0018
      6 C          -9.9511   -7.3561   18.8547 C.3     1  UNL1        0.0004
      7 C         -11.4189   -7.0565   18.9307 C.3     1  UNL1        0.0054
      8 C         -11.5931   -5.5689   18.8492 C.3     1  UNL1        0.0349
      9 C         -12.6079   -4.4643   18.8458 C.3     1  UNL1        0.0762
     10 C         -12.9532   -6.1886   18.9756 C.ar    1  UNL1       -0.0206
     11 C         -14.0088   -5.5183   19.8042 C.ar    1  UNL1       -0.0033
     12 C         -15.3689   -6.1381   19.9305 C.ar    1  UNL1        0.0119
     13 C         -15.6734   -7.4281   19.2284 C.ar    1  UNL1        0.0682
     14 CL        -17.0336   -8.0478   19.3548 Cl      1  UNL1       -0.0814
     15 C         -14.6179   -8.0984   18.3999 C.ar    1  UNL1        0.0679
     16 CL        -14.9225   -9.3885   17.6978 Cl      1  UNL1       -0.0814
     17 C         -13.2577   -7.4786   18.2735 C.ar    1  UNL1        0.0080
@<TRIPOS>BOND
     1     1     2    1
     2     2     3    1
     3     4     3    1
     4     4     5    1
     5     5     6    1
     6     6     7    1
     7     7     8    1
     8     8    10    1
     9    10    11   ar
    10    11    12   ar
    11    12    13   ar
    12    13    14    1
    13    13    15   ar
    14    15    16    1
    15    15    17   ar
    16     8     9    1
    17     9     2    1
    18     8     4    1
    19    17    10   ar
