@<TRIPOS>MOLECULE
*****
 31 32 0 0 0
SMALL
GASTEIGER

@<TRIPOS>ATOM
      1 C          -9.1062  -18.3032   23.5793 C.ar    1  UNL1        0.0577
      2 C          -8.7589  -19.6992   23.1546 C.ar    1  UNL1        0.0462
      3 C          -7.4667  -19.9666   22.4414 C.ar    1  UNL1        0.1602
      4 F          -7.1194  -21.3628   22.0167 F       1  UNL1       -0.2027
      5 C          -6.5217  -18.8380   22.1530 C.ar    1  UNL1        0.1534
      6 C          -6.8690  -17.4420   22.5777 C.ar    1  UNL1        0.0351
      7 C          -8.1612  -17.1746   23.2909 C.ar    1  UNL1        0.0722
      8 CL         -8.5085  -15.7784   23.7156 Cl      1  UNL1       -0.0809
      9 S          -5.2295  -19.1054   21.4398 S.O2    1  UNL1        0.0772
     10 O          -5.8433  -18.6394   20.1529 O.2     1  UNL1       -0.1498
     11 O          -4.6157  -19.5715   22.7267 O.2     1  UNL1       -0.1498
     12 N          -3.9373  -19.3729   20.7266 N.pl3   1  UNL1       -0.1936
     13 H          -3.8106  -20.2179   20.2377 H       1  UNL1        0.1758
     14 C          -2.8380  -18.3528   20.7585 C.ar    1  UNL1        0.1807
     15 N          -2.8990  -17.0114   21.4271 N.ar    1  UNL1       -0.2190
     16 C          -1.5834  -16.3245   21.2092 C.ar    1  UNL1        0.1372
     17 C          -0.7093  -17.2414   20.4058 C.ar    1  UNL1        0.1915
     18 F           0.6938  -16.9550   19.9594 F       1  UNL1       -0.1953
     19 S          -1.4847  -18.4949   20.1272 S.2     1  UNL1       -0.0209
     20 N         -10.3984  -18.0357   24.2925 N.pl3   1  UNL1       -0.3309
     21 H         -10.4451  -17.3320   24.9794 H       1  UNL1        0.1469
     22 C         -11.6195  -18.8406   23.9592 C.3     1  UNL1        0.1030
     23 C         -12.8164  -18.1708   23.3518 C.3     1  UNL1        0.0738
     24 C         -14.1714  -18.5141   25.5418 C.3     1  UNL1        0.0859
     25 N         -14.0139  -17.8614   24.2005 N.3     1  UNL1       -0.2960
     26 H         -14.0080  -16.8543   24.3620 H       1  UNL1        0.1233
     27 C         -12.8158  -17.8106   21.8956 C.3     1  UNL1        0.0175
     28 C         -11.7779  -16.8719   21.3557 C.3     1  UNL1        0.0013
     29 C         -11.3086  -17.9357   20.4081 C.3     1  UNL1        0.0000
     30 C         -12.2472  -15.8080   22.3033 C.3     1  UNL1        0.0000
     31 C         -10.7400  -15.9331   20.8158 C.3     1  UNL1        0.0000
@<TRIPOS>BOND
     1    24    25    1
     2    25    23    1
     3    23    22    1
     4    22    20    1
     5    20     1    1
     6     1     2   ar
     7     2     3   ar
     8     3     4    1
     9     3     5   ar
    10     5     9    1
    11     9    10    2
    12     9    11    2
    13     9    12    1
    14    12    14    1
    15    14    15   ar
    16    15    16   ar
    17    16    17   ar
    18    17    18    1
    19    17    19   ar
    20     5     6   ar
    21     6     7   ar
    22     7     8    1
    23    23    27    1
    24    27    28    1
    25    28    29    1
    26    28    30    1
    27    28    31    1
    28     7     1   ar
    29    19    14   ar
    30    25    26    1
    31    20    21    1
    32    12    13    1
@<TRIPOS>MOLECULE
*****
 31 32 0 0 0
SMALL
GASTEIGER

@<TRIPOS>ATOM
      1 C         -10.0676  -19.5832   21.3372 C.ar    1  UNL1        0.0577
      2 C          -9.2106  -19.2484   20.1525 C.ar    1  UNL1        0.0462
      3 C          -7.7163  -19.2551   20.2820 C.ar    1  UNL1        0.1602
      4 F          -6.8593  -18.9202   19.0973 F       1  UNL1       -0.2027
      5 C          -7.0788  -19.5967   21.5961 C.ar    1  UNL1        0.1534
      6 C          -7.9358  -19.9316   22.7808 C.ar    1  UNL1        0.0351
      7 C          -9.4302  -19.9249   22.6513 C.ar    1  UNL1        0.0722
      8 CL        -10.2872  -20.2598   23.8360 Cl      1  UNL1       -0.0809
      9 S          -5.5845  -19.6035   21.7256 S.O2    1  UNL1        0.0772
     10 O          -5.6399  -18.2827   22.4346 O.2     1  UNL1       -0.1498
     11 O          -5.5290  -20.9242   21.0167 O.2     1  UNL1       -0.1498
     12 N          -4.0901  -19.6102   21.8551 N.pl3   1  UNL1       -0.1936
     13 H          -3.6571  -20.1801   22.5312 H       1  UNL1        0.1758
     14 C          -3.2553  -18.7487   20.9546 C.ar    1  UNL1        0.1807
     15 N          -3.6332  -18.2855   19.5788 N.ar    1  UNL1       -0.2190
     16 C          -2.5076  -17.4496   19.0457 C.ar    1  UNL1        0.1372
     17 C          -1.4340  -17.3961   20.0919 C.ar    1  UNL1        0.1915
     18 F          -0.1277  -16.6677   19.9783 F       1  UNL1       -0.1953
     19 S          -1.8962  -18.1990   21.2717 S.2     1  UNL1       -0.0209
     20 N         -11.5620  -19.5765   21.2077 N.pl3   1  UNL1       -0.3309
     21 H         -12.0398  -20.4057   20.9767 H       1  UNL1        0.1469
     22 C         -12.3284  -18.3064   21.4301 C.3     1  UNL1        0.1030
     23 C         -12.1987  -17.5702   22.7305 C.3     1  UNL1        0.0738
     24 C         -14.2583  -18.1000   24.2229 C.3     1  UNL1        0.0859
     25 N         -12.7784  -18.1547   23.9844 N.3     1  UNL1       -0.2960
     26 H         -12.5139  -19.1397   23.9997 H       1  UNL1        0.1233
     27 C         -11.4894  -16.2493   22.7770 C.3     1  UNL1        0.0175
     28 C         -10.0144  -16.1804   22.5129 C.3     1  UNL1        0.0013
     29 C          -9.7415  -16.5729   23.9347 C.3     1  UNL1        0.0000
     30 C         -10.2873  -15.7879   21.0911 C.3     1  UNL1        0.0000
     31 C          -8.5394  -16.1115   22.2488 C.3     1  UNL1        0.0000
@<TRIPOS>BOND
     1    24    25    1
     2    25    23    1
     3    23    22    1
     4    22    20    1
     5    20     1    1
     6     1     2   ar
     7     2     3   ar
     8     3     4    1
     9     3     5   ar
    10     5     9    1
    11     9    10    2
    12     9    11    2
    13     9    12    1
    14    12    14    1
    15    14    15   ar
    16    15    16   ar
    17    16    17   ar
    18    17    18    1
    19    17    19   ar
    20     5     6   ar
    21     6     7   ar
    22     7     8    1
    23    23    27    1
    24    27    28    1
    25    28    29    1
    26    28    30    1
    27    28    31    1
    28     7     1   ar
    29    19    14   ar
    30    25    26    1
    31    20    21    1
    32    12    13    1
@<TRIPOS>MOLECULE
*****
 31 32 0 0 0
SMALL
GASTEIGER

@<TRIPOS>ATOM
      1 C          -9.6767  -17.8799   21.3625 C.ar    1  UNL1        0.0577
      2 C          -8.6262  -17.2330   22.2157 C.ar    1  UNL1        0.0462
      3 C          -7.1950  -17.6672   22.1013 C.ar    1  UNL1        0.1602
      4 F          -6.1445  -17.0203   22.9545 F       1  UNL1       -0.2027
      5 C          -6.8143  -18.7483   21.1337 C.ar    1  UNL1        0.1534
      6 C          -7.8648  -19.3952   20.2805 C.ar    1  UNL1        0.0351
      7 C          -9.2960  -18.9610   20.3949 C.ar    1  UNL1        0.0722
      8 CL        -10.3465  -19.6080   19.5417 Cl      1  UNL1       -0.0809
      9 S          -5.3831  -19.1825   21.0193 S.O2    1  UNL1        0.0772
     10 O          -5.2808  -18.4952   19.6900 O.2     1  UNL1       -0.1498
     11 O          -5.4853  -19.8699   22.3486 O.2     1  UNL1       -0.1498
     12 N          -3.9519  -19.6167   20.9049 N.pl3   1  UNL1       -0.1936
     13 H          -3.7304  -20.5748   20.8571 H       1  UNL1        0.1758
     14 C          -2.8580  -18.5912   20.8634 C.ar    1  UNL1        0.1807
     15 N          -2.8747  -17.2561   21.5470 N.ar    1  UNL1       -0.2190
     16 C          -1.5824  -16.5604   21.2371 C.ar    1  UNL1        0.1372
     17 C          -0.7670  -17.4655   20.3619 C.ar    1  UNL1        0.1915
     18 F           0.5972  -17.1678   19.8139 F       1  UNL1       -0.1953
     19 S          -1.5554  -18.7206   20.1309 S.2     1  UNL1       -0.0209
     20 N         -11.1079  -17.4457   21.4769 N.pl3   1  UNL1       -0.3309
     21 H         -11.6888  -17.4504   20.6821 H       1  UNL1        0.1469
     22 C         -11.6542  -17.0044   22.8024 C.3     1  UNL1        0.1030
     23 C         -12.4315  -17.9664   23.6511 C.3     1  UNL1        0.0738
     24 C         -14.7939  -18.4194   24.6329 C.3     1  UNL1        0.0859
     25 N         -13.9125  -18.1079   23.4598 N.3     1  UNL1       -0.2960
     26 H         -14.2443  -17.2266   23.0680 H       1  UNL1        0.1233
     27 C         -11.7278  -18.7870   24.6911 C.3     1  UNL1        0.0175
     28 C         -10.4923  -19.5568   24.3295 C.3     1  UNL1        0.0013
     29 C          -9.6989  -18.7439   25.3092 C.3     1  UNL1        0.0000
     30 C         -11.2856  -20.3698   23.3498 C.3     1  UNL1        0.0000
     31 C          -9.2567  -20.3267   23.9678 C.3     1  UNL1        0.0000
@<TRIPOS>BOND
     1    24    25    1
     2    25    23    1
     3    23    22    1
     4    22    20    1
     5    20     1    1
     6     1     2   ar
     7     2     3   ar
     8     3     4    1
     9     3     5   ar
    10     5     9    1
    11     9    10    2
    12     9    11    2
    13     9    12    1
    14    12    14    1
    15    14    15   ar
    16    15    16   ar
    17    16    17   ar
    18    17    18    1
    19    17    19   ar
    20     5     6   ar
    21     6     7   ar
    22     7     8    1
    23    23    27    1
    24    27    28    1
    25    28    29    1
    26    28    30    1
    27    28    31    1
    28     7     1   ar
    29    19    14   ar
    30    25    26    1
    31    20    21    1
    32    12    13    1
@<TRIPOS>MOLECULE
*****
 31 32 0 0 0
SMALL
GASTEIGER

@<TRIPOS>ATOM
      1 C          -9.3708  -19.1291   20.0729 C.ar    1  UNL1        0.0577
      2 C          -8.7534  -18.3484   21.1951 C.ar    1  UNL1        0.0462
      3 C          -7.2876  -18.4822   21.4842 C.ar    1  UNL1        0.1602
      4 F          -6.6703  -17.7015   22.6065 F       1  UNL1       -0.2027
      5 C          -6.4392  -19.3965   20.6511 C.ar    1  UNL1        0.1534
      6 C          -7.0566  -20.1771   19.5289 C.ar    1  UNL1        0.0351
      7 C          -8.5224  -20.0434   19.2398 C.ar    1  UNL1        0.0722
      8 CL         -9.1398  -20.8241   18.1175 Cl      1  UNL1       -0.0809
      9 S          -4.9734  -19.5302   20.9402 S.O2    1  UNL1        0.0772
     10 O          -4.6553  -18.8467   19.6434 O.2     1  UNL1       -0.1498
     11 O          -5.2916  -20.2138   22.2369 O.2     1  UNL1       -0.1498
     12 N          -3.5077  -19.6639   21.2293 N.pl3   1  UNL1       -0.1936
     13 H          -3.1363  -20.5354   21.4973 H       1  UNL1        0.1758
     14 C          -2.6077  -18.4699   21.1100 C.ar    1  UNL1        0.1807
     15 N          -2.8228  -17.1352   21.7600 N.ar    1  UNL1       -0.2190
     16 C          -1.6827  -16.2412   21.3715 C.ar    1  UNL1        0.1372
     17 C          -0.7628  -17.0234   20.4814 C.ar    1  UNL1        0.1915
     18 F           0.5059  -16.5170   19.8617 F       1  UNL1       -0.1953
     19 S          -1.3346  -18.4008   20.3198 S.2     1  UNL1       -0.0209
     20 N         -10.8366  -18.9953   19.7838 N.pl3   1  UNL1       -0.3309
     21 H         -11.1535  -18.9606   18.8524 H       1  UNL1        0.1469
     22 C         -11.8196  -18.9145   20.9139 C.3     1  UNL1        0.1030
     23 C         -12.2827  -17.5772   21.4110 C.3     1  UNL1        0.0738
     24 C         -11.6251  -15.8161   19.6177 C.3     1  UNL1        0.0859
     25 N         -12.6755  -16.5089   20.4341 N.3     1  UNL1       -0.2960
     26 H         -13.3257  -16.9371   19.7751 H       1  UNL1        0.1233
     27 C         -12.3528  -17.3082   22.8851 C.3     1  UNL1        0.0175
     28 C         -11.1529  -17.5555   23.7505 C.3     1  UNL1        0.0013
     29 C         -10.4936  -16.3322   23.1859 C.3     1  UNL1        0.0000
     30 C         -11.8123  -18.7788   24.3151 C.3     1  UNL1        0.0000
     31 C          -9.9530  -17.8028   24.6160 C.3     1  UNL1        0.0000
@<TRIPOS>BOND
     1    24    25    1
     2    25    23    1
     3    23    22    1
     4    22    20    1
     5    20     1    1
     6     1     2   ar
     7     2     3   ar
     8     3     4    1
     9     3     5   ar
    10     5     9    1
    11     9    10    2
    12     9    11    2
    13     9    12    1
    14    12    14    1
    15    14    15   ar
    16    15    16   ar
    17    16    17   ar
    18    17    18    1
    19    17    19   ar
    20     5     6   ar
    21     6     7   ar
    22     7     8    1
    23    23    27    1
    24    27    28    1
    25    28    29    1
    26    28    30    1
    27    28    31    1
    28     7     1   ar
    29    19    14   ar
    30    25    26    1
    31    20    21    1
    32    12    13    1
@<TRIPOS>MOLECULE
*****
 31 32 0 0 0
SMALL
GASTEIGER

@<TRIPOS>ATOM
      1 C          -9.7657  -19.5493   21.8771 C.ar    1  UNL1        0.0577
      2 C          -8.6174  -20.0020   22.7295 C.ar    1  UNL1        0.0462
      3 C          -7.2466  -20.1309   22.1342 C.ar    1  UNL1        0.1602
      4 F          -6.0983  -20.5836   22.9866 F       1  UNL1       -0.2027
      5 C          -7.0241  -19.8069   20.6866 C.ar    1  UNL1        0.1534
      6 C          -8.1723  -19.3542   19.8343 C.ar    1  UNL1        0.0351
      7 C          -9.5431  -19.2253   20.4296 C.ar    1  UNL1        0.0722
      8 CL        -10.6914  -18.7726   19.5772 Cl      1  UNL1       -0.0809
      9 S          -5.6533  -19.9358   20.0914 S.O2    1  UNL1        0.0772
     10 O          -5.7695  -21.4302   20.1472 O.2     1  UNL1       -0.1498
     11 O          -5.5370  -18.4413   20.0356 O.2     1  UNL1       -0.1498
     12 N          -4.2825  -20.0646   19.4962 N.pl3   1  UNL1       -0.1936
     13 H          -4.1402  -20.6356   18.7068 H       1  UNL1        0.1758
     14 C          -3.1284  -19.3236   20.1035 C.ar    1  UNL1        0.1807
     15 N          -2.7310  -19.3431   21.5499 N.ar    1  UNL1       -0.2190
     16 C          -1.5261  -18.4645   21.7114 C.ar    1  UNL1        0.1372
     17 C          -1.1787  -17.9019   20.3650 C.ar    1  UNL1        0.1915
     18 F          -0.0408  -16.9717   20.0650 F       1  UNL1       -0.1953
     19 S          -2.1690  -18.4328   19.3712 S.2     1  UNL1       -0.0209
     20 N         -11.1365  -19.4204   22.4724 N.pl3   1  UNL1       -0.3309
     21 H         -11.8669  -19.9997   22.1560 H       1  UNL1        0.1469
     22 C         -11.3943  -18.4091   23.5497 C.3     1  UNL1        0.1030
     23 C         -10.5673  -17.1595   23.6188 C.3     1  UNL1        0.0738
     24 C         -11.2898  -15.9572   21.4320 C.3     1  UNL1        0.0859
     25 N         -11.0210  -15.9195   22.9072 N.3     1  UNL1       -0.2960
     26 H         -11.8870  -15.6222   23.3567 H       1  UNL1        0.1233
     27 C          -9.2865  -17.1501   24.3996 C.3     1  UNL1        0.0175
     28 C          -8.3340  -15.9993   24.2640 C.3     1  UNL1        0.0013
     29 C          -8.7835  -15.4704   25.5937 C.3     1  UNL1        0.0000
     30 C          -7.8844  -16.5283   22.9343 C.3     1  UNL1        0.0000
     31 C          -7.3814  -14.8486   24.1283 C.3     1  UNL1        0.0000
@<TRIPOS>BOND
     1    24    25    1
     2    25    23    1
     3    23    22    1
     4    22    20    1
     5    20     1    1
     6     1     2   ar
     7     2     3   ar
     8     3     4    1
     9     3     5   ar
    10     5     9    1
    11     9    10    2
    12     9    11    2
    13     9    12    1
    14    12    14    1
    15    14    15   ar
    16    15    16   ar
    17    16    17   ar
    18    17    18    1
    19    17    19   ar
    20     5     6   ar
    21     6     7   ar
    22     7     8    1
    23    23    27    1
    24    27    28    1
    25    28    29    1
    26    28    30    1
    27    28    31    1
    28     7     1   ar
    29    19    14   ar
    30    25    26    1
    31    20    21    1
    32    12    13    1
@<TRIPOS>MOLECULE
*****
 31 32 0 0 0
SMALL
GASTEIGER

@<TRIPOS>ATOM
      1 C          -9.1285  -19.4361   21.7657 C.ar    1  UNL1        0.0577
      2 C          -7.9199  -19.3402   22.6489 C.ar    1  UNL1        0.0462
      3 C          -6.5475  -19.3311   22.0437 C.ar    1  UNL1        0.1602
      4 F          -5.3388  -19.2352   22.9270 F       1  UNL1       -0.2027
      5 C          -6.3836  -19.4178   20.5552 C.ar    1  UNL1        0.1534
      6 C          -7.5922  -19.5137   19.6720 C.ar    1  UNL1        0.0351
      7 C          -8.9646  -19.5229   20.2773 C.ar    1  UNL1        0.0722
      8 CL        -10.1733  -19.6188   19.3940 Cl      1  UNL1       -0.0809
      9 S          -5.0112  -19.4087   19.9499 S.O2    1  UNL1        0.0772
     10 O          -5.3039  -18.0859   19.3061 O.2     1  UNL1       -0.1498
     11 O          -4.7184  -20.7315   20.5937 O.2     1  UNL1       -0.1498
     12 N          -3.6388  -19.3995   19.3447 N.pl3   1  UNL1       -0.1936
     13 H          -3.4177  -20.0243   18.6167 H       1  UNL1        0.1758
     14 C          -2.6032  -18.4384   19.8485 C.ar    1  UNL1        0.1807
     15 N          -2.7990  -17.4193   20.9317 N.ar    1  UNL1       -0.2190
     16 C          -1.5069  -16.6787   21.1104 C.ar    1  UNL1        0.1372
     17 C          -0.5125  -17.2400   20.1376 C.ar    1  UNL1        0.1915
     18 F           0.9097  -16.7924   19.9735 F       1  UNL1       -0.1953
     19 S          -1.1901  -18.3276   19.3578 S.2     1  UNL1       -0.0209
     20 N         -10.5009  -19.4453   22.3710 N.pl3   1  UNL1       -0.3309
     21 H         -11.2030  -20.0210   21.9903 H       1  UNL1        0.1469
     22 C         -10.8037  -18.5773   23.5563 C.3     1  UNL1        0.1030
     23 C         -10.6098  -17.0926   23.4677 C.3     1  UNL1        0.0738
     24 C          -8.9570  -17.0357   25.4715 C.3     1  UNL1        0.0859
     25 N          -9.4713  -16.4402   24.1944 N.3     1  UNL1       -0.2960
     26 H          -8.6851  -16.4120   23.5452 H       1  UNL1        0.1233
     27 C         -11.5544  -16.2601   22.6523 C.3     1  UNL1        0.0175
     28 C         -11.5133  -16.3291   21.1545 C.3     1  UNL1        0.0013
     29 C         -12.8681  -16.9730   21.1470 C.3     1  UNL1        0.0000
     30 C         -10.1586  -15.6853   21.1620 C.3     1  UNL1        0.0000
     31 C         -11.4722  -16.3981   19.6566 C.3     1  UNL1        0.0000
@<TRIPOS>BOND
     1    24    25    1
     2    25    23    1
     3    23    22    1
     4    22    20    1
     5    20     1    1
     6     1     2   ar
     7     2     3   ar
     8     3     4    1
     9     3     5   ar
    10     5     9    1
    11     9    10    2
    12     9    11    2
    13     9    12    1
    14    12    14    1
    15    14    15   ar
    16    15    16   ar
    17    16    17   ar
    18    17    18    1
    19    17    19   ar
    20     5     6   ar
    21     6     7   ar
    22     7     8    1
    23    23    27    1
    24    27    28    1
    25    28    29    1
    26    28    30    1
    27    28    31    1
    28     7     1   ar
    29    19    14   ar
    30    25    26    1
    31    20    21    1
    32    12    13    1
@<TRIPOS>MOLECULE
*****
 31 32 0 0 0
SMALL
GASTEIGER

@<TRIPOS>ATOM
      1 C          -4.4314  -19.2472   21.7957 C.ar    1  UNL1        0.0577
      2 C          -5.4060  -18.4758   22.6353 C.ar    1  UNL1        0.0462
      3 C          -6.8691  -18.5080   22.3063 C.ar    1  UNL1        0.1602
      4 F          -7.8438  -17.7365   23.1459 F       1  UNL1       -0.2027
      5 C          -7.3576  -19.3114   21.1376 C.ar    1  UNL1        0.1534
      6 C          -6.3830  -20.0828   20.2980 C.ar    1  UNL1        0.0351
      7 C          -4.9198  -20.0507   20.6270 C.ar    1  UNL1        0.0722
      8 CL         -3.9452  -20.8221   19.7874 Cl      1  UNL1       -0.0809
      9 S          -8.8207  -19.3436   20.8086 S.O2    1  UNL1        0.0772
     10 O          -8.5270  -18.7848   19.4479 O.2     1  UNL1       -0.1498
     11 O          -9.1144  -19.9024   22.1693 O.2     1  UNL1       -0.1498
     12 N         -10.2838  -19.3757   20.4796 N.pl3   1  UNL1       -0.1936
     13 H         -10.6888  -20.1962   20.1162 H       1  UNL1        0.1758
     14 C         -11.1300  -18.1577   20.7042 C.ar    1  UNL1        0.1807
     15 N         -11.7234  -17.2872   19.6363 N.ar    1  UNL1       -0.2190
     16 C         -12.4915  -16.1878   20.3081 C.ar    1  UNL1        0.1372
     17 C         -12.3728  -16.3787   21.7913 C.ar    1  UNL1        0.1915
     18 F         -12.9876  -15.5056   22.8446 F       1  UNL1       -0.1953
     19 S         -11.5313  -17.5962   22.0360 S.2     1  UNL1       -0.0209
     20 N          -2.9682  -19.2151   22.1247 N.pl3   1  UNL1       -0.3309
     21 H          -2.4034  -19.9985   21.9335 H       1  UNL1        0.1469
     22 C          -2.3657  -17.9895   22.7450 C.3     1  UNL1        0.1030
     23 C          -2.3325  -16.7002   21.9790 C.3     1  UNL1        0.0738
     24 C          -4.2654  -15.7760   23.4487 C.3     1  UNL1        0.0859
     25 N          -3.2635  -15.5839   22.3490 N.3     1  UNL1       -0.2960
     26 H          -2.6806  -14.7909   22.6170 H       1  UNL1        0.1233
     27 C          -1.3683  -16.5274   20.8430 C.3     1  UNL1        0.0175
     28 C          -1.4701  -17.4072   19.6324 C.3     1  UNL1        0.0013
     29 C          -0.0740  -17.8999   19.8730 C.3     1  UNL1        0.0000
     30 C          -2.8663  -16.9144   19.3917 C.3     1  UNL1        0.0000
     31 C          -1.5720  -18.2869   18.4217 C.3     1  UNL1        0.0000
@<TRIPOS>BOND
     1    24    25    1
     2    25    23    1
     3    23    22    1
     4    22    20    1
     5    20     1    1
     6     1     2   ar
     7     2     3   ar
     8     3     4    1
     9     3     5   ar
    10     5     9    1
    11     9    10    2
    12     9    11    2
    13     9    12    1
    14    12    14    1
    15    14    15   ar
    16    15    16   ar
    17    16    17   ar
    18    17    18    1
    19    17    19   ar
    20     5     6   ar
    21     6     7   ar
    22     7     8    1
    23    23    27    1
    24    27    28    1
    25    28    29    1
    26    28    30    1
    27    28    31    1
    28     7     1   ar
    29    19    14   ar
    30    25    26    1
    31    20    21    1
    32    12    13    1
@<TRIPOS>MOLECULE
*****
 31 32 0 0 0
SMALL
GASTEIGER

@<TRIPOS>ATOM
      1 C          -4.5022  -19.6262   21.4587 C.ar    1  UNL1        0.0577
      2 C          -5.6485  -20.1017   22.3012 C.ar    1  UNL1        0.0462
      3 C          -7.0548  -19.9734   21.7954 C.ar    1  UNL1        0.1602
      4 F          -8.2012  -20.4490   22.6379 F       1  UNL1       -0.2027
      5 C          -7.3148  -19.3697   20.4471 C.ar    1  UNL1        0.1534
      6 C          -6.1684  -18.8943   19.6046 C.ar    1  UNL1        0.0351
      7 C          -4.7621  -19.0225   20.1104 C.ar    1  UNL1        0.0722
      8 CL         -3.6158  -18.5469   19.2679 Cl      1  UNL1       -0.0809
      9 S          -8.7211  -19.2415   19.9413 S.O2    1  UNL1        0.0772
     10 O          -8.5362  -20.4788   19.1136 O.2     1  UNL1       -0.1498
     11 O          -8.9060  -18.0043   20.7689 O.2     1  UNL1       -0.1498
     12 N         -10.1274  -19.1133   19.4354 N.pl3   1  UNL1       -0.1936
     13 H         -10.3892  -19.5500   18.5928 H       1  UNL1        0.1758
     14 C         -11.1348  -18.3197   20.2134 C.ar    1  UNL1        0.1807
     15 N         -11.7080  -16.9916   19.8163 N.ar    1  UNL1       -0.2190
     16 C         -12.6734  -16.5658   20.8825 C.ar    1  UNL1        0.1372
     17 C         -12.6969  -17.6308   21.9386 C.ar    1  UNL1        0.1915
     18 F         -13.5258  -17.6148   23.1887 F       1  UNL1       -0.1953
     19 S         -11.7460  -18.7148   21.5250 S.2     1  UNL1       -0.0209
     20 N          -3.0959  -19.7544   21.9645 N.pl3   1  UNL1       -0.3309
     21 H          -2.5740  -20.5657   21.7678 H       1  UNL1        0.1469
     22 C          -2.4846  -18.6465   22.7701 C.3     1  UNL1        0.1030
     23 C          -3.2745  -17.4041   23.0572 C.3     1  UNL1        0.0738
     24 C          -1.8195  -16.0752   21.3640 C.3     1  UNL1        0.0859
     25 N          -2.9975  -16.1453   22.2900 N.3     1  UNL1       -0.2960
     26 H          -3.8264  -15.9552   21.7269 H       1  UNL1        0.1233
     27 C          -4.3414  -17.4204   24.1116 C.3     1  UNL1        0.0175
     28 C          -5.3082  -16.2785   24.2180 C.3     1  UNL1        0.0013
     29 C          -6.0186  -16.7656   22.9899 C.3     1  UNL1        0.0000
     30 C          -4.5978  -15.7915   25.4461 C.3     1  UNL1        0.0000
     31 C          -6.2750  -15.1366   24.3244 C.3     1  UNL1        0.0000
@<TRIPOS>BOND
     1    24    25    1
     2    25    23    1
     3    23    22    1
     4    22    20    1
     5    20     1    1
     6     1     2   ar
     7     2     3   ar
     8     3     4    1
     9     3     5   ar
    10     5     9    1
    11     9    10    2
    12     9    11    2
    13     9    12    1
    14    12    14    1
    15    14    15   ar
    16    15    16   ar
    17    16    17   ar
    18    17    18    1
    19    17    19   ar
    20     5     6   ar
    21     6     7   ar
    22     7     8    1
    23    23    27    1
    24    27    28    1
    25    28    29    1
    26    28    30    1
    27    28    31    1
    28     7     1   ar
    29    19    14   ar
    30    25    26    1
    31    20    21    1
    32    12    13    1
@<TRIPOS>MOLECULE
*****
 31 32 0 0 0
SMALL
GASTEIGER

@<TRIPOS>ATOM
      1 C          -4.3929  -19.2220   22.2587 C.ar    1  UNL1        0.0577
      2 C          -4.3978  -18.0468   23.1908 C.ar    1  UNL1        0.0462
      3 C          -5.6623  -17.2711   23.4129 C.ar    1  UNL1        0.1602
      4 F          -5.6672  -16.0958   24.3451 F       1  UNL1       -0.2027
      5 C          -6.9218  -17.6705   22.7030 C.ar    1  UNL1        0.1534
      6 C          -6.9168  -18.8457   21.7709 C.ar    1  UNL1        0.0351
      7 C          -5.6524  -19.6215   21.5488 C.ar    1  UNL1        0.0722
      8 CL         -5.6474  -20.7968   20.6167 Cl      1  UNL1       -0.0809
      9 S          -8.1862  -16.8947   22.9251 S.O2    1  UNL1        0.0772
     10 O          -7.5857  -15.7143   22.2209 O.2     1  UNL1       -0.1498
     11 O          -8.7867  -18.0752   23.6294 O.2     1  UNL1       -0.1498
     12 N          -9.4507  -16.1190   23.1473 N.pl3   1  UNL1       -0.1936
     13 H          -9.5311  -15.5211   23.9253 H       1  UNL1        0.1758
     14 C         -10.5925  -16.2541   22.1840 C.ar    1  UNL1        0.1807
     15 N         -11.8982  -16.9412   22.4552 N.ar    1  UNL1       -0.2190
     16 C         -12.7419  -16.8377   21.2193 C.ar    1  UNL1        0.1372
     17 C         -11.9577  -16.0867   20.1842 C.ar    1  UNL1        0.1915
     18 F         -12.4206  -15.7547   18.7966 F       1  UNL1       -0.1953
     19 S         -10.6293  -15.7260   20.7805 S.2     1  UNL1       -0.0209
     20 N          -3.1284  -19.9978   22.0366 N.pl3   1  UNL1       -0.3309
     21 H          -3.1640  -20.9751   21.9232 H       1  UNL1        0.1469
     22 C          -1.8098  -19.2846   21.9873 C.3     1  UNL1        0.1030
     23 C          -1.5137  -18.3320   20.8671 C.3     1  UNL1        0.0738
     24 C          -1.9762  -15.9376   21.7630 C.3     1  UNL1        0.0859
     25 N          -1.0344  -16.9434   21.1703 N.3     1  UNL1       -0.2960
     26 H          -0.2551  -17.0366   21.8217 H       1  UNL1        0.1233
     27 C          -1.6969  -18.7682   19.4436 C.3     1  UNL1        0.0175
     28 C          -2.2688  -17.8162   18.4352 C.3     1  UNL1        0.0013
     29 C          -0.9255  -17.7067   17.7768 C.3     1  UNL1        0.0000
     30 C          -3.6121  -17.9257   19.0937 C.3     1  UNL1        0.0000
     31 C          -2.8406  -16.8642   17.4269 C.3     1  UNL1        0.0000
@<TRIPOS>BOND
     1    24    25    1
     2    25    23    1
     3    23    22    1
     4    22    20    1
     5    20     1    1
     6     1     2   ar
     7     2     3   ar
     8     3     4    1
     9     3     5   ar
    10     5     9    1
    11     9    10    2
    12     9    11    2
    13     9    12    1
    14    12    14    1
    15    14    15   ar
    16    15    16   ar
    17    16    17   ar
    18    17    18    1
    19    17    19   ar
    20     5     6   ar
    21     6     7   ar
    22     7     8    1
    23    23    27    1
    24    27    28    1
    25    28    29    1
    26    28    30    1
    27    28    31    1
    28     7     1   ar
    29    19    14   ar
    30    25    26    1
    31    20    21    1
    32    12    13    1
