@<TRIPOS>MOLECULE
*****
 31 35 0 0 0
SMALL
GASTEIGER

@<TRIPOS>ATOM
      1 C           7.4792   -5.0390   23.7356 C.2     1  UNL1        0.4056
      2 O           7.7157   -5.1181   25.2147 O.2     1  UNL1       -0.2262
      3 N           6.4827   -4.0615   23.1866 N.am    1  UNL1       -0.2345
      4 C           5.7780   -3.2111   24.2016 C.3     1  UNL1        0.1254
      5 C           4.7392   -2.1528   23.9760 C.ar    1  UNL1        0.0148
      6 C           4.2918   -1.5394   25.2696 C.ar    1  UNL1        0.0102
      7 C           3.2537   -0.4566   25.2667 C.ar    1  UNL1        0.0575
      8 CL          2.8063    0.1569   26.5604 Cl      1  UNL1       -0.0823
      9 C           2.6631    0.0127   23.9702 C.ar    1  UNL1        0.0129
     10 C           3.1105   -0.6008   22.6766 C.ar    1  UNL1        0.0182
     11 C           4.1485   -1.6835   22.6795 C.ar    1  UNL1        0.0639
     12 N           4.4508   -2.1566   21.2885 N.ar    1  UNL1       -0.2796
     13 C           5.4184   -3.2158   20.8504 C.ar    1  UNL1        0.1673
     14 N           5.3512   -3.3152   19.3553 N.ar    1  UNL1       -0.1315
     15 N           4.3422   -2.3175   18.8692 N.ar    1  UNL1       -0.1333
     16 C           3.7857   -1.6014   20.0640 C.ar    1  UNL1        0.1465
     17 C           6.3227   -4.0636   21.6952 C.3     1  UNL1        0.1632
     18 C           2.7465   -0.5200   20.0388 C.3     1  UNL1        0.0625
     19 C           1.3031   -0.8614   20.2623 C.3     1  UNL1        0.0291
     20 C           0.2640    0.2199   20.2370 C.3     1  UNL1        0.0926
     21 N           0.6681    1.6428   19.9883 N.pl3   1  UNL1       -0.2932
     22 C           2.1115    1.9844   19.7649 C.3     1  UNL1        0.0926
     23 C           3.1508    0.9030   19.7901 C.3     1  UNL1        0.0291
     24 C          -0.3711    2.7243   19.9631 C.ar    1  UNL1        0.1317
     25 C          -0.1614    3.9463   19.1188 C.ar    1  UNL1        0.0343
     26 C          -1.2006    5.0277   19.0936 C.ar    1  UNL1        0.0045
     27 C          -2.4493    4.8872   19.9126 C.ar    1  UNL1        0.0208
     28 C          -2.6589    3.6652   20.7570 C.ar    1  UNL1        0.1003
     29 N          -1.6198    2.5838   20.7822 N.ar    1  UNL1       -0.2292
     30 C           8.7886   -7.2412   23.3041 C.3     1  UNL1        0.2573
     31 O           8.2393   -5.9375   22.8054 O.3     1  UNL1       -0.4304
@<TRIPOS>BOND
     1    30    31    1
     2    31     1    1
     3     1     2    2
     4     1     3   am
     5     3     4    1
     6     4     5    1
     7     5     6   ar
     8     6     7   ar
     9     7     8    1
    10     7     9   ar
    11     9    10   ar
    12    10    11   ar
    13    11    12    1
    14    12    13   ar
    15    13    14   ar
    16    14    15   ar
    17    15    16   ar
    18    16    18    1
    19    18    19    1
    20    19    20    1
    21    20    21    1
    22    21    24    1
    23    24    25   ar
    24    25    26   ar
    25    26    27   ar
    26    27    28   ar
    27    28    29   ar
    28    21    22    1
    29    22    23    1
    30    13    17    1
    31    17     3    1
    32    11     5   ar
    33    16    12   ar
    34    23    18    1
    35    29    24   ar
@<TRIPOS>MOLECULE
*****
 31 35 0 0 0
SMALL
GASTEIGER

@<TRIPOS>ATOM
      1 C          -0.2819    5.5950   33.8967 C.2     1  UNL1        0.4056
      2 O          -1.3611    5.9719   32.9256 O.2     1  UNL1       -0.2262
      3 N           0.6114    4.4251   33.6083 N.am    1  UNL1       -0.2345
      4 C           0.3409    3.7009   32.3229 C.3     1  UNL1        0.1254
      5 C           1.0492    2.5068   31.7551 C.ar    1  UNL1        0.0148
      6 C           0.4600    2.0948   30.4386 C.ar    1  UNL1        0.0102
      7 C           1.0247    0.9180   29.6996 C.ar    1  UNL1        0.0575
      8 CL          0.4355    0.5060   28.3831 Cl      1  UNL1       -0.0823
      9 C           2.1786    0.1531   30.2771 C.ar    1  UNL1        0.0129
     10 C           2.7678    0.5650   31.5936 C.ar    1  UNL1        0.0182
     11 C           2.2031    1.7419   32.3325 C.ar    1  UNL1        0.0639
     12 N           2.9336    1.9822   33.6204 N.ar    1  UNL1       -0.2796
     13 C           2.6907    3.0467   34.6490 C.ar    1  UNL1        0.1673
     14 N           3.6885    2.8606   35.7533 N.ar    1  UNL1       -0.1315
     15 N           4.5481    1.6810   35.4074 N.ar    1  UNL1       -0.1333
     16 C           4.0816    1.1381   34.0892 C.ar    1  UNL1        0.1465
     17 C           1.6572    4.1339   34.6435 C.3     1  UNL1        0.1632
     18 C           4.6612   -0.0416   33.3667 C.3     1  UNL1        0.0625
     19 C           4.2409   -1.4317   33.7421 C.3     1  UNL1        0.0291
     20 C           4.8205   -2.6114   33.0195 C.3     1  UNL1        0.0926
     21 N           5.8206   -2.4012   31.9216 N.pl3   1  UNL1       -0.2932
     22 C           6.2410   -1.0111   31.5461 C.3     1  UNL1        0.0926
     23 C           5.6614    0.1687   32.2687 C.3     1  UNL1        0.0291
     24 C           6.4003   -3.5810   31.1990 C.ar    1  UNL1        0.1317
     25 C           6.8746   -4.7753   31.9727 C.ar    1  UNL1        0.0343
     26 C           7.4543   -5.9552   31.2501 C.ar    1  UNL1        0.0045
     27 C           7.5596   -5.9405   29.7539 C.ar    1  UNL1        0.0208
     28 C           7.0853   -4.7462   28.9802 C.ar    1  UNL1        0.1003
     29 N           6.5056   -3.5664   29.7028 N.ar    1  UNL1       -0.2292
     30 C          -1.2860    6.9751   35.8556 C.3     1  UNL1        0.2573
     31 O          -0.0959    6.3881   35.1563 O.3     1  UNL1       -0.4304
@<TRIPOS>BOND
     1    30    31    1
     2    31     1    1
     3     1     2    2
     4     1     3   am
     5     3     4    1
     6     4     5    1
     7     5     6   ar
     8     6     7   ar
     9     7     8    1
    10     7     9   ar
    11     9    10   ar
    12    10    11   ar
    13    11    12    1
    14    12    13   ar
    15    13    14   ar
    16    14    15   ar
    17    15    16   ar
    18    16    18    1
    19    18    19    1
    20    19    20    1
    21    20    21    1
    22    21    24    1
    23    24    25   ar
    24    25    26   ar
    25    26    27   ar
    26    27    28   ar
    27    28    29   ar
    28    21    22    1
    29    22    23    1
    30    13    17    1
    31    17     3    1
    32    11     5   ar
    33    16    12   ar
    34    23    18    1
    35    29    24   ar
@<TRIPOS>MOLECULE
*****
 31 35 0 0 0
SMALL
GASTEIGER

@<TRIPOS>ATOM
      1 C           7.1966   -5.3597   25.3356 C.2     1  UNL1        0.4056
      2 O           7.0125   -4.6028   24.0538 O.2     1  UNL1       -0.2262
      3 N           6.9451   -4.6817   26.6497 N.am    1  UNL1       -0.2345
      4 C           6.5137   -3.2473   26.5700 C.3     1  UNL1        0.1254
      5 C           6.1890   -2.3045   27.6907 C.ar    1  UNL1        0.0148
      6 C           5.7978   -0.9521   27.1732 C.ar    1  UNL1        0.0102
      7 C           5.4330    0.1414   28.1329 C.ar    1  UNL1        0.0575
      8 CL          5.0418    1.4939   27.6154 Cl      1  UNL1       -0.0823
      9 C           5.4595   -0.1175   29.6102 C.ar    1  UNL1        0.0129
     10 C           5.8507   -1.4700   30.1277 C.ar    1  UNL1        0.0182
     11 C           6.2154   -2.5635   29.1679 C.ar    1  UNL1        0.0639
     12 N           6.5731   -3.8290   29.8893 N.ar    1  UNL1       -0.2796
     13 C           6.9928   -5.1482   29.3117 C.ar    1  UNL1        0.1673
     14 N           7.2393   -6.0948   30.4488 N.ar    1  UNL1       -0.1315
     15 N           6.9721   -5.3606   31.7293 N.ar    1  UNL1       -0.1333
     16 C           6.5603   -3.9603   31.3835 C.ar    1  UNL1        0.1465
     17 C           7.1583   -5.5277   27.8699 C.3     1  UNL1        0.1632
     18 C           6.1992   -2.8809   32.3603 C.3     1  UNL1        0.0625
     19 C           7.2392   -1.8980   32.8105 C.3     1  UNL1        0.0291
     20 C           6.8781   -0.8185   33.7873 C.3     1  UNL1        0.0926
     21 N           5.4770   -0.7218   34.3141 N.pl3   1  UNL1       -0.2932
     22 C           4.4370   -1.7046   33.8641 C.3     1  UNL1        0.0926
     23 C           4.7981   -2.7841   32.8872 C.3     1  UNL1        0.0291
     24 C           5.1159    0.3577   35.2910 C.ar    1  UNL1        0.1317
     25 C           4.7498    0.0011   36.7013 C.ar    1  UNL1        0.0343
     26 C           4.3886    1.0807   37.6782 C.ar    1  UNL1        0.0045
     27 C           4.3936    2.5167   37.2447 C.ar    1  UNL1        0.0208
     28 C           4.7597    2.8732   35.8345 C.ar    1  UNL1        0.1003
     29 N           5.1209    1.7937   34.8576 N.ar    1  UNL1       -0.2292
     30 C           8.3741   -7.3267   24.1132 C.3     1  UNL1        0.2573
     31 O           7.6321   -6.7948   25.3033 O.3     1  UNL1       -0.4304
@<TRIPOS>BOND
     1    30    31    1
     2    31     1    1
     3     1     2    2
     4     1     3   am
     5     3     4    1
     6     4     5    1
     7     5     6   ar
     8     6     7   ar
     9     7     8    1
    10     7     9   ar
    11     9    10   ar
    12    10    11   ar
    13    11    12    1
    14    12    13   ar
    15    13    14   ar
    16    14    15   ar
    17    15    16   ar
    18    16    18    1
    19    18    19    1
    20    19    20    1
    21    20    21    1
    22    21    24    1
    23    24    25   ar
    24    25    26   ar
    25    26    27   ar
    26    27    28   ar
    27    28    29   ar
    28    21    22    1
    29    22    23    1
    30    13    17    1
    31    17     3    1
    32    11     5   ar
    33    16    12   ar
    34    23    18    1
    35    29    24   ar
@<TRIPOS>MOLECULE
*****
 31 35 0 0 0
SMALL
GASTEIGER

@<TRIPOS>ATOM
      1 C           4.5269    0.8230   36.2621 C.2     1  UNL1        0.4056
      2 O           4.3395    1.7948   37.3892 O.2     1  UNL1       -0.2262
      3 N           3.7912    1.0218   34.9702 N.am    1  UNL1       -0.2345
      4 C           2.8942    2.2226   34.9102 C.3     1  UNL1        0.1254
      5 C           2.0342    2.6918   33.7742 C.ar    1  UNL1        0.0148
      6 C           1.2906    3.9446   34.1311 C.ar    1  UNL1        0.0102
      7 C           0.3714    4.5816   33.1314 C.ar    1  UNL1        0.0575
      8 CL         -0.3723    5.8345   33.4882 Cl      1  UNL1       -0.0823
      9 C           0.1960    3.9659   31.7749 C.ar    1  UNL1        0.0129
     10 C           0.9397    2.7131   31.4181 C.ar    1  UNL1        0.0182
     11 C           1.8588    2.0760   32.4178 C.ar    1  UNL1        0.0639
     12 N           2.5001    0.8390   31.8622 N.ar    1  UNL1       -0.2796
     13 C           3.4751   -0.0878   32.5258 C.ar    1  UNL1        0.1673
     14 N           3.8169   -1.1759   31.5518 N.ar    1  UNL1       -0.1315
     15 N           3.0531   -0.9218   30.2861 N.ar    1  UNL1       -0.1333
     16 C           2.2393    0.3236   30.4779 C.ar    1  UNL1        0.1465
     17 C           4.0497   -0.0064   33.9091 C.3     1  UNL1        0.1632
     18 C           1.3252    0.9444   29.4636 C.3     1  UNL1        0.0625
     19 C          -0.0635    0.4085   29.2778 C.3     1  UNL1        0.0291
     20 C          -0.9775    1.0293   28.2635 C.3     1  UNL1        0.0926
     21 N          -0.5031    2.1861   27.4348 N.pl3   1  UNL1       -0.2932
     22 C           0.8855    2.7221   27.6206 C.3     1  UNL1        0.0926
     23 C           1.7997    2.1012   28.6349 C.3     1  UNL1        0.0291
     24 C          -1.4172    2.8070   26.4205 C.ar    1  UNL1        0.1317
     25 C          -0.9823    2.9213   24.9894 C.ar    1  UNL1        0.0343
     26 C          -1.8964    3.5421   23.9751 C.ar    1  UNL1        0.0045
     27 C          -3.2454    4.0487   24.3917 C.ar    1  UNL1        0.0208
     28 C          -3.6803    3.9344   25.8227 C.ar    1  UNL1        0.1003
     29 N          -2.7662    3.3135   26.8371 N.ar    1  UNL1       -0.2292
     30 C           6.9210   -0.1222   36.6154 C.3     1  UNL1        0.2573
     31 O           5.4501   -0.3478   36.4269 O.3     1  UNL1       -0.4304
@<TRIPOS>BOND
     1    30    31    1
     2    31     1    1
     3     1     2    2
     4     1     3   am
     5     3     4    1
     6     4     5    1
     7     5     6   ar
     8     6     7   ar
     9     7     8    1
    10     7     9   ar
    11     9    10   ar
    12    10    11   ar
    13    11    12    1
    14    12    13   ar
    15    13    14   ar
    16    14    15   ar
    17    15    16   ar
    18    16    18    1
    19    18    19    1
    20    19    20    1
    21    20    21    1
    22    21    24    1
    23    24    25   ar
    24    25    26   ar
    25    26    27   ar
    26    27    28   ar
    27    28    29   ar
    28    21    22    1
    29    22    23    1
    30    13    17    1
    31    17     3    1
    32    11     5   ar
    33    16    12   ar
    34    23    18    1
    35    29    24   ar
@<TRIPOS>MOLECULE
*****
 31 35 0 0 0
SMALL
GASTEIGER

@<TRIPOS>ATOM
      1 C          -0.5868    3.3163   18.8198 C.2     1  UNL1        0.4056
      2 O          -1.4595    4.1122   19.7443 O.2     1  UNL1       -0.2262
      3 N           0.3827    2.3173   19.3782 N.am    1  UNL1       -0.2345
      4 C           0.3998    2.1921   20.8729 C.3     1  UNL1        0.1254
      5 C           1.2453    1.2943   21.7267 C.ar    1  UNL1        0.0148
      6 C           0.9468    1.4838   23.1844 C.ar    1  UNL1        0.0102
      7 C           1.6856    0.6789   24.2121 C.ar    1  UNL1        0.0575
      8 CL          1.3871    0.8684   25.6699 Cl      1  UNL1       -0.0823
      9 C           2.7229   -0.3156   23.7821 C.ar    1  UNL1        0.0129
     10 C           3.0215   -0.5052   22.3244 C.ar    1  UNL1        0.0182
     11 C           2.2826    0.2998   21.2967 C.ar    1  UNL1        0.0639
     12 N           2.7306   -0.0424   19.9067 N.ar    1  UNL1       -0.2796
     13 C           2.2520    0.5252   18.6033 C.ar    1  UNL1        0.1673
     14 N           3.0121   -0.1462   17.4983 N.ar    1  UNL1       -0.1315
     15 N           3.9605   -1.1289   18.1185 N.ar    1  UNL1       -0.1333
     16 C           3.7866   -1.0648   19.6070 C.ar    1  UNL1        0.1465
     17 C           1.2071    1.5754   18.3682 C.3     1  UNL1        0.1632
     18 C           4.5369   -1.8798   20.6183 C.3     1  UNL1        0.0625
     19 C           3.9457   -3.1554   21.1413 C.3     1  UNL1        0.0291
     20 C           4.6960   -3.9704   22.1526 C.3     1  UNL1        0.0926
     21 N           6.0374   -3.5100   22.6409 N.pl3   1  UNL1       -0.2932
     22 C           6.6287   -2.2345   22.1179 C.3     1  UNL1        0.0926
     23 C           5.8784   -1.4194   21.1066 C.3     1  UNL1        0.0291
     24 C           6.7878   -4.3251   23.6522 C.ar    1  UNL1        0.1317
     25 C           6.6592   -4.0109   25.1133 C.ar    1  UNL1        0.0343
     26 C           7.4095   -4.8260   26.1246 C.ar    1  UNL1        0.0045
     27 C           8.2884   -5.9552   25.6748 C.ar    1  UNL1        0.0208
     28 C           8.4170   -6.2695   24.2137 C.ar    1  UNL1        0.1003
     29 N           7.6666   -5.4544   23.2024 N.ar    1  UNL1       -0.2292
     30 C          -1.8453    4.2705   16.7568 C.3     1  UNL1        0.2573
     31 O          -0.6835    3.5194   17.3367 O.3     1  UNL1       -0.4304
@<TRIPOS>BOND
     1    30    31    1
     2    31     1    1
     3     1     2    2
     4     1     3   am
     5     3     4    1
     6     4     5    1
     7     5     6   ar
     8     6     7   ar
     9     7     8    1
    10     7     9   ar
    11     9    10   ar
    12    10    11   ar
    13    11    12    1
    14    12    13   ar
    15    13    14   ar
    16    14    15   ar
    17    15    16   ar
    18    16    18    1
    19    18    19    1
    20    19    20    1
    21    20    21    1
    22    21    24    1
    23    24    25   ar
    24    25    26   ar
    25    26    27   ar
    26    27    28   ar
    27    28    29   ar
    28    21    22    1
    29    22    23    1
    30    13    17    1
    31    17     3    1
    32    11     5   ar
    33    16    12   ar
    34    23    18    1
    35    29    24   ar
@<TRIPOS>MOLECULE
*****
 31 35 0 0 0
SMALL
GASTEIGER

@<TRIPOS>ATOM
      1 C          -3.7628    4.7883   25.4906 C.2     1  UNL1        0.4056
      2 O          -3.6216    4.7072   26.9818 O.2     1  UNL1       -0.2262
      3 N          -2.7689    4.0978   24.6045 N.am    1  UNL1       -0.2345
      4 C          -1.6738    3.3545   25.3103 C.3     1  UNL1        0.1254
      5 C          -0.5408    2.5717   24.7156 C.ar    1  UNL1        0.0148
      6 C           0.3360    1.9819   25.7802 C.ar    1  UNL1        0.0102
      7 C           1.5304    1.1592   25.3974 C.ar    1  UNL1        0.0575
      8 CL          2.4072    0.5693   26.4620 Cl      1  UNL1       -0.0823
      9 C           1.8480    0.9263   23.9500 C.ar    1  UNL1        0.0129
     10 C           0.9712    1.5161   22.8855 C.ar    1  UNL1        0.0182
     11 C          -0.2232    2.3388   23.2683 C.ar    1  UNL1        0.0639
     12 N          -0.9601    2.8313   22.0581 N.ar    1  UNL1       -0.2796
     13 C          -2.1966    3.6782   21.9963 C.ar    1  UNL1        0.1673
     14 N          -2.5372    3.8966   20.5520 N.ar    1  UNL1       -0.1315
     15 N          -1.5113    3.1846   19.7211 N.ar    1  UNL1       -0.1333
     16 C          -0.5365    2.5262   20.6518 C.ar    1  UNL1        0.1465
     17 C          -3.0016    4.2418   23.1296 C.3     1  UNL1        0.1632
     18 C           0.6529    1.7068   20.2474 C.3     1  UNL1        0.0625
     19 C           1.9611    2.3785   19.9516 C.3     1  UNL1        0.0291
     20 C           3.1505    1.5590   19.5472 C.3     1  UNL1        0.0926
     21 N           3.0318    0.0677   19.4385 N.pl3   1  UNL1       -0.2932
     22 C           1.7237   -0.6042   19.7343 C.3     1  UNL1        0.0926
     23 C           0.5342    0.2153   20.1387 C.3     1  UNL1        0.0291
     24 C           4.2213   -0.7519   19.0341 C.ar    1  UNL1        0.1317
     25 C           4.0474   -2.1959   18.6673 C.ar    1  UNL1        0.0343
     26 C           5.2368   -3.0155   18.2628 C.ar    1  UNL1        0.0045
     27 C           6.6001   -2.3910   18.2252 C.ar    1  UNL1        0.0208
     28 C           6.7740   -0.9470   18.5920 C.ar    1  UNL1        0.1003
     29 N           5.5846   -0.1274   18.9964 N.ar    1  UNL1       -0.2292
     30 C          -6.2812    4.9798   24.8813 C.3     1  UNL1        0.2573
     31 O          -4.8980    5.5601   24.8856 O.3     1  UNL1       -0.4304
@<TRIPOS>BOND
     1    30    31    1
     2    31     1    1
     3     1     2    2
     4     1     3   am
     5     3     4    1
     6     4     5    1
     7     5     6   ar
     8     6     7   ar
     9     7     8    1
    10     7     9   ar
    11     9    10   ar
    12    10    11   ar
    13    11    12    1
    14    12    13   ar
    15    13    14   ar
    16    14    15   ar
    17    15    16   ar
    18    16    18    1
    19    18    19    1
    20    19    20    1
    21    20    21    1
    22    21    24    1
    23    24    25   ar
    24    25    26   ar
    25    26    27   ar
    26    27    28   ar
    27    28    29   ar
    28    21    22    1
    29    22    23    1
    30    13    17    1
    31    17     3    1
    32    11     5   ar
    33    16    12   ar
    34    23    18    1
    35    29    24   ar
@<TRIPOS>MOLECULE
*****
 31 35 0 0 0
SMALL
GASTEIGER

@<TRIPOS>ATOM
      1 C          -2.8084    3.9109   20.4689 C.2     1  UNL1        0.4056
      2 O          -2.0236    3.6189   19.2244 O.2     1  UNL1       -0.2262
      3 N          -2.2549    3.5323   21.8106 N.am    1  UNL1       -0.2345
      4 C          -0.9105    2.8673   21.7961 C.3     1  UNL1        0.1254
      5 C          -0.0981    2.3745   22.9568 C.ar    1  UNL1        0.0148
      6 C           1.1964    1.7685   22.5018 C.ar    1  UNL1        0.0102
      7 C           2.1593    1.2131   23.5088 C.ar    1  UNL1        0.0575
      8 CL          3.4539    0.6071   23.0538 Cl      1  UNL1       -0.0823
      9 C           1.8278    1.2636   24.9708 C.ar    1  UNL1        0.0129
     10 C           0.5334    1.8696   25.4258 C.ar    1  UNL1        0.0182
     11 C          -0.4296    2.4251   24.4188 C.ar    1  UNL1        0.0639
     12 N          -1.6553    2.9809   25.0812 N.ar    1  UNL1       -0.2796
     13 C          -2.8523    3.6234   24.4452 C.ar    1  UNL1        0.1673
     14 N          -3.8053    4.0107   25.5368 N.ar    1  UNL1       -0.1315
     15 N          -3.1974    3.6075   26.8475 N.ar    1  UNL1       -0.1333
     16 C          -1.8686    2.9711   26.5660 C.ar    1  UNL1        0.1465
     17 C          -3.1191    3.8688   22.9897 C.3     1  UNL1        0.1632
     18 C          -0.9198    2.4214   27.5894 C.3     1  UNL1        0.0625
     19 C          -0.9903    0.9739   27.9765 C.3     1  UNL1        0.0291
     20 C          -0.0415    0.4242   28.9999 C.3     1  UNL1        0.0926
     21 N           0.9779    1.3219   29.6363 N.pl3   1  UNL1       -0.2932
     22 C           1.0484    2.7693   29.2492 C.3     1  UNL1        0.0926
     23 C           0.0996    3.3191   28.2258 C.3     1  UNL1        0.0291
     24 C           1.9268    0.7721   30.6598 C.ar    1  UNL1        0.1317
     25 C           2.6622   -0.5070   30.3900 C.ar    1  UNL1        0.0343
     26 C           3.6111   -1.0568   31.4135 C.ar    1  UNL1        0.0045
     27 C           3.8245   -0.3273   32.7067 C.ar    1  UNL1        0.0208
     28 C           3.0890    0.9519   32.9765 C.ar    1  UNL1        0.1003
     29 N           2.1401    1.5016   31.9530 N.ar    1  UNL1       -0.2292
     30 C          -5.3393    3.8092   19.8910 C.3     1  UNL1        0.2573
     31 O          -4.1466    4.5815   20.3717 O.3     1  UNL1       -0.4304
@<TRIPOS>BOND
     1    30    31    1
     2    31     1    1
     3     1     2    2
     4     1     3   am
     5     3     4    1
     6     4     5    1
     7     5     6   ar
     8     6     7   ar
     9     7     8    1
    10     7     9   ar
    11     9    10   ar
    12    10    11   ar
    13    11    12    1
    14    12    13   ar
    15    13    14   ar
    16    14    15   ar
    17    15    16   ar
    18    16    18    1
    19    18    19    1
    20    19    20    1
    21    20    21    1
    22    21    24    1
    23    24    25   ar
    24    25    26   ar
    25    26    27   ar
    26    27    28   ar
    27    28    29   ar
    28    21    22    1
    29    22    23    1
    30    13    17    1
    31    17     3    1
    32    11     5   ar
    33    16    12   ar
    34    23    18    1
    35    29    24   ar
@<TRIPOS>MOLECULE
*****
 31 35 0 0 0
SMALL
GASTEIGER

@<TRIPOS>ATOM
      1 C           3.1276   -1.1012   19.2614 C.2     1  UNL1        0.4056
      2 O           2.0429   -0.0832   19.4537 O.2     1  UNL1       -0.2262
      3 N           3.8723   -1.6370   20.4480 N.am    1  UNL1       -0.2345
      4 C           3.4544   -1.0891   21.7804 C.3     1  UNL1        0.1254
      5 C           3.9974   -1.4187   23.1393 C.ar    1  UNL1        0.0148
      6 C           3.2951   -0.6420   24.2132 C.ar    1  UNL1        0.0102
      7 C           3.6878   -0.8243   25.6494 C.ar    1  UNL1        0.0575
      8 CL          2.9855   -0.0476   26.7234 Cl      1  UNL1       -0.0823
      9 C           4.7829   -1.7833   26.0115 C.ar    1  UNL1        0.0129
     10 C           5.4852   -2.5600   24.9375 C.ar    1  UNL1        0.0182
     11 C           5.0925   -2.3777   23.5014 C.ar    1  UNL1        0.0639
     12 N           5.9150   -3.2439   22.5941 N.ar    1  UNL1       -0.2796
     13 C           5.8456   -3.3651   21.1006 C.ar    1  UNL1        0.1673
     14 N           6.8773   -4.3643   20.6682 N.ar    1  UNL1       -0.1315
     15 N           7.5844   -4.8607   21.8945 N.ar    1  UNL1       -0.1333
     16 C           6.9896   -4.1682   23.0848 C.ar    1  UNL1        0.1465
     17 C           4.9365   -2.6499   20.1456 C.3     1  UNL1        0.1632
     18 C           7.3978   -4.3655   24.5145 C.3     1  UNL1        0.0625
     19 C           6.8795   -5.5422   25.2871 C.3     1  UNL1        0.0291
     20 C           7.2877   -5.7394   26.7168 C.3     1  UNL1        0.0926
     21 N           8.2143   -4.7600   27.3743 N.pl3   1  UNL1       -0.2932
     22 C           8.7326   -3.5833   26.6018 C.3     1  UNL1        0.0926
     23 C           8.3245   -3.3860   25.1720 C.3     1  UNL1        0.0291
     24 C           8.6225   -4.9573   28.8041 C.ar    1  UNL1        0.1317
     25 C           8.6061   -6.3311   29.4061 C.ar    1  UNL1        0.0343
     26 C           9.0143   -6.5283   30.8360 C.ar    1  UNL1        0.0045
     27 C           9.4390   -5.3518   31.6638 C.ar    1  UNL1        0.0208
     28 C           9.4555   -3.9780   31.0618 C.ar    1  UNL1        0.1003
     29 N           9.0472   -3.7807   29.6319 N.ar    1  UNL1       -0.2292
     30 C           4.1404   -0.6607   16.9097 C.3     1  UNL1        0.2573
     31 O           3.4676   -1.5835   17.8823 O.3     1  UNL1       -0.4304
@<TRIPOS>BOND
     1    30    31    1
     2    31     1    1
     3     1     2    2
     4     1     3   am
     5     3     4    1
     6     4     5    1
     7     5     6   ar
     8     6     7   ar
     9     7     8    1
    10     7     9   ar
    11     9    10   ar
    12    10    11   ar
    13    11    12    1
    14    12    13   ar
    15    13    14   ar
    16    14    15   ar
    17    15    16   ar
    18    16    18    1
    19    18    19    1
    20    19    20    1
    21    20    21    1
    22    21    24    1
    23    24    25   ar
    24    25    26   ar
    25    26    27   ar
    26    27    28   ar
    27    28    29   ar
    28    21    22    1
    29    22    23    1
    30    13    17    1
    31    17     3    1
    32    11     5   ar
    33    16    12   ar
    34    23    18    1
    35    29    24   ar
@<TRIPOS>MOLECULE
*****
 31 35 0 0 0
SMALL
GASTEIGER

@<TRIPOS>ATOM
      1 C           7.5456   -5.2915   30.2454 C.2     1  UNL1        0.4056
      2 O           8.3773   -6.5395   30.2723 O.2     1  UNL1       -0.2262
      3 N           7.1654   -4.6718   28.9335 N.am    1  UNL1       -0.2345
      4 C           7.6679   -5.3787   27.7097 C.3     1  UNL1        0.1254
      5 C           7.4621   -5.0156   26.2690 C.ar    1  UNL1        0.0148
      6 C           8.1380   -5.9943   25.3551 C.ar    1  UNL1        0.0102
      7 C           8.0547   -5.8131   23.8685 C.ar    1  UNL1        0.0575
      8 CL          8.7306   -6.7919   22.9545 Cl      1  UNL1       -0.0823
      9 C           7.2955   -4.6531   23.2957 C.ar    1  UNL1        0.0129
     10 C           6.6195   -3.6744   24.2095 C.ar    1  UNL1        0.0182
     11 C           6.7028   -3.8556   25.6961 C.ar    1  UNL1        0.0639
     12 N           5.9620   -2.7724   26.4227 N.ar    1  UNL1       -0.2796
     13 C           5.7973   -2.5815   27.9013 C.ar    1  UNL1        0.1673
     14 N           4.9701   -1.3497   28.1204 N.ar    1  UNL1       -0.1315
     15 N           4.6235   -0.7791   26.7772 N.ar    1  UNL1       -0.1333
     16 C           5.2365   -1.6584   25.7279 C.ar    1  UNL1        0.1465
     17 C           6.3329   -3.4269   29.0187 C.3     1  UNL1        0.1632
     18 C           5.1408   -1.4588   24.2444 C.3     1  UNL1        0.0625
     19 C           6.1221   -0.5673   23.5426 C.3     1  UNL1        0.0291
     20 C           6.0265   -0.3677   22.0592 C.3     1  UNL1        0.0926
     21 N           4.9495   -1.0594   21.2772 N.pl3   1  UNL1       -0.2932
     22 C           3.9681   -1.9509   21.9788 C.3     1  UNL1        0.0926
     23 C           4.0638   -2.1506   23.4624 C.3     1  UNL1        0.0291
     24 C           4.8538   -0.8598   19.7936 C.ar    1  UNL1        0.1317
     25 C           3.5100   -0.7378   19.1384 C.ar    1  UNL1        0.0343
     26 C           3.4143   -0.5382   17.6548 C.ar    1  UNL1        0.0045
     27 C           4.6624   -0.4606   16.8265 C.ar    1  UNL1        0.0208
     28 C           6.0062   -0.5826   17.4816 C.ar    1  UNL1        0.1003
     29 N           6.1019   -0.7822   18.9652 N.ar    1  UNL1       -0.2292
     30 C           7.8531   -3.5046   32.1062 C.3     1  UNL1        0.2573
     31 O           7.0941   -4.6633   31.5306 O.3     1  UNL1       -0.4304
@<TRIPOS>BOND
     1    30    31    1
     2    31     1    1
     3     1     2    2
     4     1     3   am
     5     3     4    1
     6     4     5    1
     7     5     6   ar
     8     6     7   ar
     9     7     8    1
    10     7     9   ar
    11     9    10   ar
    12    10    11   ar
    13    11    12    1
    14    12    13   ar
    15    13    14   ar
    16    14    15   ar
    17    15    16   ar
    18    16    18    1
    19    18    19    1
    20    19    20    1
    21    20    21    1
    22    21    24    1
    23    24    25   ar
    24    25    26   ar
    25    26    27   ar
    26    27    28   ar
    27    28    29   ar
    28    21    22    1
    29    22    23    1
    30    13    17    1
    31    17     3    1
    32    11     5   ar
    33    16    12   ar
    34    23    18    1
    35    29    24   ar
