@<TRIPOS>MOLECULE
*****
 22 25 0 0 0
SMALL
GASTEIGER

@<TRIPOS>ATOM
      1 C         -10.6603  -17.6010   22.6177 C.3     1  UNL1        0.0354
      2 C         -11.6226  -18.5258   21.9332 C.3     1  UNL1        0.0225
      3 C         -12.7411  -17.6986   21.3722 C.3     1  UNL1        0.0689
      4 N         -12.4700  -16.2624   21.7100 N.3     1  UNL1       -0.2972
      5 C         -11.1840  -16.2021   22.4798 C.3     1  UNL1        0.0726
      6 H         -13.2313  -15.8909   22.2782 H       1  UNL1        0.1233
      7 C          -9.5395  -16.9396   23.3637 C.2     1  UNL1       -0.0372
      8 C          -8.4966  -16.1629   22.6162 C.2     1  UNL1       -0.0080
      9 C          -7.3758  -15.5015   23.3623 C.2     1  UNL1        0.0006
     10 C          -7.2980  -15.6169   24.8558 C.2     1  UNL1        0.0154
     11 C          -6.3176  -15.0771   25.8545 C.2     1  UNL1        0.0218
     12 C          -6.7547  -15.5203   27.2192 C.2     1  UNL1        0.0985
     13 N          -8.0053  -16.3340   27.0640 N.2     1  UNL1       -0.2478
     14 C          -8.3411  -16.3937   25.6033 C.2     1  UNL1        0.0631
     15 C          -9.4618  -17.0550   24.8572 C.3     1  UNL1        0.0678
     16 C          -9.9023  -18.8615   22.9116 C.3     1  UNL1        0.0315
     17 C          -6.6084  -20.2009   20.1536 C.ar    1  UNL1       -0.0000
     18 C          -6.4362  -20.3166   21.6391 C.ar    1  UNL1       -0.0003
     19 C          -7.5342  -19.8701   22.5585 C.ar    1  UNL1       -0.0043
     20 C          -8.8043  -19.3080   21.9922 C.ar    1  UNL1       -0.0218
     21 C          -8.9765  -19.1923   20.5067 C.ar    1  UNL1       -0.0043
     22 C          -7.8786  -19.6387   19.5873 C.ar    1  UNL1       -0.0003
@<TRIPOS>BOND
     1    17    18   ar
     2    18    19   ar
     3    19    20   ar
     4    20    16    1
     5    16     1    1
     6     1     7    1
     7     7     8    2
     8     8     9    1
     9     9    10    2
    10    10    11    1
    11    11    12    2
    12    12    13    1
    13    13    14    2
    14    14    15    1
    15     1     2    1
    16     2     3    1
    17     3     4    1
    18     4     5    1
    19    20    21   ar
    20    21    22   ar
    21    22    17   ar
    22     5     1    1
    23    15     7    1
    24    14    10    1
    25     4     6    1
@<TRIPOS>MOLECULE
*****
 22 25 0 0 0
SMALL
GASTEIGER

@<TRIPOS>ATOM
      1 C          -7.6866  -17.8629   22.6478 C.3     1  UNL1        0.0354
      2 C          -6.1912  -17.7460   22.6347 C.3     1  UNL1        0.0225
      3 C          -5.6245  -19.0884   22.2790 C.3     1  UNL1        0.0689
      4 N          -6.7695  -20.0351   22.0722 N.3     1  UNL1       -0.2972
      5 C          -8.0440  -19.2777   22.3001 C.3     1  UNL1        0.0726
      6 H          -6.7033  -20.8083   22.7341 H       1  UNL1        0.1233
      7 C          -9.1723  -17.6760   22.7375 C.2     1  UNL1       -0.0372
      8 C          -9.8661  -16.7255   21.8074 C.2     1  UNL1       -0.0080
      9 C         -11.3517  -16.5386   21.8971 C.2     1  UNL1        0.0006
     10 C         -12.1434  -17.3022   22.9169 C.2     1  UNL1        0.0154
     11 C         -13.6083  -17.3251   23.2387 C.2     1  UNL1        0.0218
     12 C         -13.8198  -18.2897   24.3678 C.2     1  UNL1        0.0985
     13 N         -12.4856  -18.8630   24.7438 N.2     1  UNL1       -0.2478
     14 C         -11.4496  -18.2526   23.8471 C.2     1  UNL1        0.0631
     15 C          -9.9640  -18.4395   23.7573 C.3     1  UNL1        0.0678
     16 C          -7.6398  -16.4092   23.0142 C.3     1  UNL1        0.0315
     17 C          -6.5790  -15.1797   27.2111 C.ar    1  UNL1       -0.0000
     18 C          -5.5227  -15.2017   26.1463 C.ar    1  UNL1       -0.0003
     19 C          -5.8763  -15.6115   24.7474 C.ar    1  UNL1       -0.0043
     20 C          -7.2862  -15.9993   24.4132 C.ar    1  UNL1       -0.0218
     21 C          -8.3425  -15.9773   25.4779 C.ar    1  UNL1       -0.0043
     22 C          -7.9890  -15.5675   26.8769 C.ar    1  UNL1       -0.0003
@<TRIPOS>BOND
     1    17    18   ar
     2    18    19   ar
     3    19    20   ar
     4    20    16    1
     5    16     1    1
     6     1     7    1
     7     7     8    2
     8     8     9    1
     9     9    10    2
    10    10    11    1
    11    11    12    2
    12    12    13    1
    13    13    14    2
    14    14    15    1
    15     1     2    1
    16     2     3    1
    17     3     4    1
    18     4     5    1
    19    20    21   ar
    20    21    22   ar
    21    22    17   ar
    22     5     1    1
    23    15     7    1
    24    14    10    1
    25     4     6    1
@<TRIPOS>MOLECULE
*****
 22 25 0 0 0
SMALL
GASTEIGER

@<TRIPOS>ATOM
      1 C         -10.7157  -17.7857   22.8223 C.3     1  UNL1        0.0354
      2 C         -11.5053  -18.5052   21.7693 C.3     1  UNL1        0.0225
      3 C         -12.5051  -17.5422   21.2008 C.3     1  UNL1        0.0689
      4 N         -12.3333  -16.2276   21.9024 N.3     1  UNL1       -0.2972
      5 C         -11.2274  -16.3780   22.9046 C.3     1  UNL1        0.0726
      6 H         -13.1991  -15.9733   22.3779 H       1  UNL1        0.1233
      7 C          -9.7781  -17.3410   23.9055 C.2     1  UNL1       -0.0372
      8 C          -9.9173  -17.8953   25.2922 C.2     1  UNL1       -0.0080
      9 C          -8.9797  -17.4506   26.3754 C.2     1  UNL1        0.0006
     10 C          -7.9030  -16.4515   26.0717 C.2     1  UNL1        0.0154
     11 C          -6.8399  -15.8300   26.9282 C.2     1  UNL1        0.0218
     12 C          -6.0437  -14.8915   26.0708 C.2     1  UNL1        0.0985
     13 N          -6.6147  -14.9330   24.6843 N.2     1  UNL1       -0.2478
     14 C          -7.7638  -15.8971   24.6849 C.2     1  UNL1        0.0631
     15 C          -8.7013  -16.3418   23.6018 C.3     1  UNL1        0.0678
     16 C         -10.0080  -19.1003   22.9666 C.3     1  UNL1        0.0315
     17 C          -6.5051  -20.0726   20.3142 C.ar    1  UNL1       -0.0000
     18 C          -6.4232  -20.3307   21.7896 C.ar    1  UNL1       -0.0003
     19 C          -7.5908  -20.0066   22.6737 C.ar    1  UNL1       -0.0043
     20 C          -8.8404  -19.4244   22.0825 C.ar    1  UNL1       -0.0218
     21 C          -8.9223  -19.1663   20.6071 C.ar    1  UNL1       -0.0043
     22 C          -7.7547  -19.4903   19.7229 C.ar    1  UNL1       -0.0003
@<TRIPOS>BOND
     1    17    18   ar
     2    18    19   ar
     3    19    20   ar
     4    20    16    1
     5    16     1    1
     6     1     7    1
     7     7     8    2
     8     8     9    1
     9     9    10    2
    10    10    11    1
    11    11    12    2
    12    12    13    1
    13    13    14    2
    14    14    15    1
    15     1     2    1
    16     2     3    1
    17     3     4    1
    18     4     5    1
    19    20    21   ar
    20    21    22   ar
    21    22    17   ar
    22     5     1    1
    23    15     7    1
    24    14    10    1
    25     4     6    1
@<TRIPOS>MOLECULE
*****
 22 25 0 0 0
SMALL
GASTEIGER

@<TRIPOS>ATOM
      1 C          -7.9947  -17.1018   23.4730 C.3     1  UNL1        0.0354
      2 C          -9.0483  -16.5636   24.3951 C.3     1  UNL1        0.0225
      3 C          -8.6278  -15.1904   24.8281 C.3     1  UNL1        0.0689
      4 N          -7.3143  -14.8799   24.1736 N.3     1  UNL1       -0.2972
      5 C          -6.9230  -16.0612   23.3361 C.3     1  UNL1        0.0726
      6 H          -6.6042  -14.7102   24.8859 H       1  UNL1        0.1233
      7 C          -7.1271  -17.8920   22.5386 C.2     1  UNL1       -0.0372
      8 C          -7.7103  -18.4738   21.2851 C.2     1  UNL1       -0.0080
      9 C          -6.8427  -19.2641   20.3508 C.2     1  UNL1        0.0006
     10 C          -5.3920  -19.4724   20.6700 C.2     1  UNL1        0.0154
     11 C          -4.2992  -20.2005   19.9449 C.2     1  UNL1        0.0218
     12 C          -3.0407  -20.0686   20.7503 C.2     1  UNL1        0.0985
     13 N          -3.3556  -19.2590   21.9732 N.2     1  UNL1       -0.2478
     14 C          -4.8088  -18.8905   21.9236 C.2     1  UNL1        0.0631
     15 C          -5.6764  -18.1003   22.8579 C.3     1  UNL1        0.0678
     16 C          -8.8849  -18.3076   23.4145 C.3     1  UNL1        0.0315
     17 C         -13.3567  -17.8040   23.3981 C.ar    1  UNL1       -0.0000
     18 C         -12.6962  -18.6063   24.4798 C.ar    1  UNL1       -0.0003
     19 C         -11.2056  -18.7742   24.4852 C.ar    1  UNL1       -0.0043
     20 C         -10.3755  -18.1397   23.4090 C.ar    1  UNL1       -0.0218
     21 C         -11.0360  -17.3374   22.3273 C.ar    1  UNL1       -0.0043
     22 C         -12.5265  -17.1695   22.3218 C.ar    1  UNL1       -0.0003
@<TRIPOS>BOND
     1    17    18   ar
     2    18    19   ar
     3    19    20   ar
     4    20    16    1
     5    16     1    1
     6     1     7    1
     7     7     8    2
     8     8     9    1
     9     9    10    2
    10    10    11    1
    11    11    12    2
    12    12    13    1
    13    13    14    2
    14    14    15    1
    15     1     2    1
    16     2     3    1
    17     3     4    1
    18     4     5    1
    19    20    21   ar
    20    21    22   ar
    21    22    17   ar
    22     5     1    1
    23    15     7    1
    24    14    10    1
    25     4     6    1
@<TRIPOS>MOLECULE
*****
 22 25 0 0 0
SMALL
GASTEIGER

@<TRIPOS>ATOM
      1 C         -10.2400  -17.2700   22.5244 C.3     1  UNL1        0.0354
      2 C         -11.1651  -16.1208   22.7952 C.3     1  UNL1        0.0225
      3 C         -12.5677  -16.6518   22.8246 C.3     1  UNL1        0.0689
      4 N         -12.5094  -18.1292   22.5720 N.3     1  UNL1       -0.2972
      5 C         -11.0709  -18.5114   22.3864 C.3     1  UNL1        0.0726
      6 H         -13.0395  -18.3577   21.7310 H       1  UNL1        0.1233
      7 C          -9.0910  -18.2006   22.2713 C.2     1  UNL1       -0.0372
      8 C          -8.9616  -19.4660   23.0661 C.2     1  UNL1       -0.0080
      9 C          -7.8126  -20.3965   22.8130 C.2     1  UNL1        0.0006
     10 C          -6.7930  -20.0615   21.7651 C.2     1  UNL1        0.0154
     11 C          -5.5623  -20.7795   21.2963 C.2     1  UNL1        0.0218
     12 C          -4.9311  -19.9577   20.2118 C.2     1  UNL1        0.0985
     13 N          -5.7716  -18.7318   20.0103 N.2     1  UNL1       -0.2478
     14 C          -6.9224  -18.7959   20.9703 C.2     1  UNL1        0.0631
     15 C          -8.0714  -17.8655   21.2234 C.3     1  UNL1        0.0678
     16 C          -9.1690  -16.2234   22.6095 C.3     1  UNL1        0.0315
     17 C          -6.9343  -15.5993   26.4653 C.ar    1  UNL1       -0.0000
     18 C          -8.3240  -16.1634   26.4866 C.ar    1  UNL1       -0.0003
     19 C          -9.0689  -16.3715   25.2014 C.ar    1  UNL1       -0.0043
     20 C          -8.4241  -16.0154   23.8947 C.ar    1  UNL1       -0.0218
     21 C          -7.0344  -15.4512   23.8733 C.ar    1  UNL1       -0.0043
     22 C          -6.2894  -15.2431   25.1585 C.ar    1  UNL1       -0.0003
@<TRIPOS>BOND
     1    17    18   ar
     2    18    19   ar
     3    19    20   ar
     4    20    16    1
     5    16     1    1
     6     1     7    1
     7     7     8    2
     8     8     9    1
     9     9    10    2
    10    10    11    1
    11    11    12    2
    12    12    13    1
    13    13    14    2
    14    14    15    1
    15     1     2    1
    16     2     3    1
    17     3     4    1
    18     4     5    1
    19    20    21   ar
    20    21    22   ar
    21    22    17   ar
    22     5     1    1
    23    15     7    1
    24    14    10    1
    25     4     6    1
@<TRIPOS>MOLECULE
*****
 22 25 0 0 0
SMALL
GASTEIGER

@<TRIPOS>ATOM
      1 C          -9.2130  -18.3370   21.6119 C.3     1  UNL1        0.0354
      2 C          -9.4087  -19.3859   20.5577 C.3     1  UNL1        0.0225
      3 C         -10.3478  -18.8360   19.5254 C.3     1  UNL1        0.0689
      4 N         -10.7325  -17.4472   19.9416 N.3     1  UNL1       -0.2972
      5 C         -10.0312  -17.1387   21.2312 C.3     1  UNL1        0.0726
      6 H         -11.7423  -17.3931   20.0752 H       1  UNL1        0.1233
      7 C          -8.8295  -17.5019   22.7976 C.2     1  UNL1       -0.0372
      8 C          -8.1147  -16.1986   22.5974 C.2     1  UNL1       -0.0080
      9 C          -7.7312  -15.3635   23.7830 C.2     1  UNL1        0.0006
     10 C          -8.0626  -15.8320   25.1689 C.2     1  UNL1        0.0154
     11 C          -7.8131  -15.2280   26.5191 C.2     1  UNL1        0.0218
     12 C          -8.3737  -16.1581   27.5537 C.2     1  UNL1        0.0985
     13 N          -8.9697  -17.3370   26.8431 N.2     1  UNL1       -0.2478
     14 C          -8.7774  -17.1355   25.3692 C.2     1  UNL1        0.0631
     15 C          -9.1609  -17.9704   24.1835 C.3     1  UNL1        0.0678
     16 C          -8.3147  -19.3605   22.2406 C.3     1  UNL1        0.0315
     17 C          -4.0981  -19.8701   20.7537 C.ar    1  UNL1       -0.0000
     18 C          -4.3905  -18.9040   21.8632 C.ar    1  UNL1       -0.0003
     19 C          -5.7960  -18.7341   22.3588 C.ar    1  UNL1       -0.0043
     20 C          -6.9091  -19.5304   21.7450 C.ar    1  UNL1       -0.0218
     21 C          -6.6167  -20.4966   20.6354 C.ar    1  UNL1       -0.0043
     22 C          -5.2112  -20.6665   20.1397 C.ar    1  UNL1       -0.0003
@<TRIPOS>BOND
     1    17    18   ar
     2    18    19   ar
     3    19    20   ar
     4    20    16    1
     5    16     1    1
     6     1     7    1
     7     7     8    2
     8     8     9    1
     9     9    10    2
    10    10    11    1
    11    11    12    2
    12    12    13    1
    13    13    14    2
    14    14    15    1
    15     1     2    1
    16     2     3    1
    17     3     4    1
    18     4     5    1
    19    20    21   ar
    20    21    22   ar
    21    22    17   ar
    22     5     1    1
    23    15     7    1
    24    14    10    1
    25     4     6    1
@<TRIPOS>MOLECULE
*****
 22 25 0 0 0
SMALL
GASTEIGER

@<TRIPOS>ATOM
      1 C         -10.3404  -17.5948   22.2162 C.3     1  UNL1        0.0354
      2 C         -11.4500  -17.0845   23.0871 C.3     1  UNL1        0.0225
      3 C         -12.3739  -16.2700   22.2311 C.3     1  UNL1        0.0689
      4 N         -11.8354  -16.2768   20.8311 N.3     1  UNL1       -0.2972
      5 C         -10.5786  -17.0956   20.8219 C.3     1  UNL1        0.0726
      6 H         -11.6291  -15.3227   20.5349 H       1  UNL1        0.1233
      7 C          -9.1281  -18.2375   21.6102 C.2     1  UNL1       -0.0372
      8 C          -9.2657  -19.0940   20.3866 C.2     1  UNL1       -0.0080
      9 C          -8.0534  -19.7367   19.7806 C.2     1  UNL1        0.0006
     10 C          -6.7033  -19.5228   20.3984 C.2     1  UNL1        0.0154
     11 C          -5.3389  -20.0230   20.0267 C.2     1  UNL1        0.0218
     12 C          -4.3580  -19.4756   21.0207 C.2     1  UNL1        0.0985
     13 N          -5.1161  -18.6371   22.0067 N.2     1  UNL1       -0.2478
     14 C          -6.5657  -18.6663   21.6221 C.2     1  UNL1        0.0631
     15 C          -7.7780  -18.0237   22.2280 C.3     1  UNL1        0.0678
     16 C          -9.8488  -18.2284   23.4838 C.3     1  UNL1        0.0315
     17 C          -8.3348  -15.6508   26.8474 C.ar    1  UNL1       -0.0000
     18 C          -8.7921  -17.0523   27.1239 C.ar    1  UNL1       -0.0003
     19 C          -9.2968  -17.9115   26.0027 C.ar    1  UNL1       -0.0043
     20 C          -9.3441  -17.3692   24.6050 C.ar    1  UNL1       -0.0218
     21 C          -8.8868  -15.9676   24.3285 C.ar    1  UNL1       -0.0043
     22 C          -8.3822  -15.1083   25.4497 C.ar    1  UNL1       -0.0003
@<TRIPOS>BOND
     1    17    18   ar
     2    18    19   ar
     3    19    20   ar
     4    20    16    1
     5    16     1    1
     6     1     7    1
     7     7     8    2
     8     8     9    1
     9     9    10    2
    10    10    11    1
    11    11    12    2
    12    12    13    1
    13    13    14    2
    14    14    15    1
    15     1     2    1
    16     2     3    1
    17     3     4    1
    18     4     5    1
    19    20    21   ar
    20    21    22   ar
    21    22    17   ar
    22     5     1    1
    23    15     7    1
    24    14    10    1
    25     4     6    1
@<TRIPOS>MOLECULE
*****
 22 25 0 0 0
SMALL
GASTEIGER

@<TRIPOS>ATOM
      1 C          -7.9081  -19.2150   20.5217 C.3     1  UNL1        0.0354
      2 C          -9.3996  -19.0628   20.4770 C.3     1  UNL1        0.0225
      3 C          -9.9044  -19.7962   19.2698 C.3     1  UNL1        0.0689
      4 N          -8.7248  -20.4017   18.5684 N.3     1  UNL1       -0.2972
      5 C          -7.4910  -20.0425   19.3421 C.3     1  UNL1        0.0726
      6 H          -8.6586  -20.0318   17.6201 H       1  UNL1        0.1233
      7 C          -6.4394  -19.1934   20.8263 C.2     1  UNL1       -0.0372
      8 C          -5.9617  -19.4088   22.2317 C.2     1  UNL1       -0.0080
      9 C          -4.4930  -19.3871   22.5363 C.2     1  UNL1        0.0006
     10 C          -3.5022  -19.1500   21.4354 C.2     1  UNL1        0.0154
     11 C          -2.0042  -19.0745   21.4324 C.2     1  UNL1        0.0218
     12 C          -1.5561  -18.8124   20.0251 C.2     1  UNL1        0.0985
     13 N          -2.7772  -18.7259   19.1583 N.2     1  UNL1       -0.2478
     14 C          -3.9801  -18.9346   20.0299 C.2     1  UNL1        0.0631
     15 C          -5.4486  -18.9563   19.7254 C.3     1  UNL1        0.0678
     16 C          -8.0181  -18.3831   21.7650 C.3     1  UNL1        0.0315
     17 C         -11.4114  -19.0709   24.6395 C.ar    1  UNL1       -0.0000
     18 C         -10.3436  -20.1117   24.4768 C.ar    1  UNL1       -0.0003
     19 C          -9.2125  -19.8824   23.5186 C.ar    1  UNL1       -0.0043
     20 C          -9.1492  -18.6124   22.7231 C.ar    1  UNL1       -0.0218
     21 C         -10.2170  -17.5715   22.8858 C.ar    1  UNL1       -0.0043
     22 C         -11.3481  -17.8007   23.8439 C.ar    1  UNL1       -0.0003
@<TRIPOS>BOND
     1    17    18   ar
     2    18    19   ar
     3    19    20   ar
     4    20    16    1
     5    16     1    1
     6     1     7    1
     7     7     8    2
     8     8     9    1
     9     9    10    2
    10    10    11    1
    11    11    12    2
    12    12    13    1
    13    13    14    2
    14    14    15    1
    15     1     2    1
    16     2     3    1
    17     3     4    1
    18     4     5    1
    19    20    21   ar
    20    21    22   ar
    21    22    17   ar
    22     5     1    1
    23    15     7    1
    24    14    10    1
    25     4     6    1
@<TRIPOS>MOLECULE
*****
 22 25 0 0 0
SMALL
GASTEIGER

@<TRIPOS>ATOM
      1 C          -6.6299  -17.1019   23.0880 C.3     1  UNL1        0.0354
      2 C          -5.1745  -17.0520   23.4473 C.3     1  UNL1        0.0225
      3 C          -4.8565  -15.6579   23.9004 C.3     1  UNL1        0.0689
      4 N          -6.1154  -14.8462   23.8212 N.3     1  UNL1       -0.2972
      5 C          -7.2115  -15.7386   23.3192 C.3     1  UNL1        0.0726
      6 H          -5.9837  -14.0649   23.1789 H       1  UNL1        0.1233
      7 C          -8.0249  -17.4521   22.6619 C.2     1  UNL1       -0.0372
      8 C          -8.5202  -18.8610   22.8010 C.2     1  UNL1       -0.0080
      9 C          -9.9152  -19.2112   22.3748 C.2     1  UNL1        0.0006
     10 C         -10.8148  -18.1523   21.8096 C.2     1  UNL1        0.0154
     11 C         -12.2277  -18.1986   21.3082 C.2     1  UNL1        0.0218
     12 C         -12.6056  -16.8181   20.8593 C.2     1  UNL1        0.0985
     13 N         -11.4262  -15.9187   21.0832 N.2     1  UNL1       -0.2478
     14 C         -10.3194  -16.7433   21.6705 C.2     1  UNL1        0.0631
     15 C          -8.9245  -16.3932   22.0967 C.3     1  UNL1        0.0678
     16 C          -6.3401  -18.5383   22.7678 C.3     1  UNL1        0.0315
     17 C          -2.8507  -19.5957   20.1303 C.ar    1  UNL1       -0.0000
     18 C          -2.7170  -19.6828   21.6218 C.ar    1  UNL1       -0.0003
     19 C          -3.8802  -19.3304   22.5010 C.ar    1  UNL1       -0.0043
     20 C          -5.1770  -18.8908   21.8887 C.ar    1  UNL1       -0.0218
     21 C          -5.3107  -18.8036   20.3972 C.ar    1  UNL1       -0.0043
     22 C          -4.1476  -19.1561   19.5179 C.ar    1  UNL1       -0.0003
@<TRIPOS>BOND
     1    17    18   ar
     2    18    19   ar
     3    19    20   ar
     4    20    16    1
     5    16     1    1
     6     1     7    1
     7     7     8    2
     8     8     9    1
     9     9    10    2
    10    10    11    1
    11    11    12    2
    12    12    13    1
    13    13    14    2
    14    14    15    1
    15     1     2    1
    16     2     3    1
    17     3     4    1
    18     4     5    1
    19    20    21   ar
    20    21    22   ar
    21    22    17   ar
    22     5     1    1
    23    15     7    1
    24    14    10    1
    25     4     6    1
