@<TRIPOS>MOLECULE
*****
 22 25 0 0 0
SMALL
GASTEIGER

@<TRIPOS>ATOM
      1 O          -2.0854  -20.3348   21.4728 O.2     1  UNL1       -0.2748
      2 C          -3.5401  -20.0098   21.3052 C.2     1  UNL1        0.2264
      3 C          -4.3560  -20.7317   20.2741 C.3     1  UNL1        0.0901
      4 C          -5.8107  -20.4067   20.1066 C.3     1  UNL1        0.0372
      5 C          -6.4496  -19.3598   20.9701 C.ar    1  UNL1       -0.0082
      6 C          -7.9044  -19.0348   20.8026 C.ar    1  UNL1       -0.0030
      7 C          -8.5433  -17.9879   21.6662 C.ar    1  UNL1        0.0013
      8 C          -7.7274  -17.2660   22.6973 C.ar    1  UNL1        0.0013
      9 C          -6.2727  -17.5909   22.8649 C.ar    1  UNL1        0.0144
     10 C          -5.6338  -18.6379   22.0012 C.ar    1  UNL1        0.0463
     11 N          -4.1790  -18.9629   22.1688 N.am    1  UNL1       -0.2842
     12 H          -3.6436  -18.4891   22.8455 H       1  UNL1        0.1548
     13 C          -9.9981  -17.6629   21.4986 C.ar    1  UNL1        0.0192
     14 C         -10.4786  -17.0004   20.2416 C.ar    1  UNL1        0.0988
     15 N         -11.9334  -16.6754   20.0741 N.ar    1  UNL1       -0.2423
     16 C         -12.9076  -17.0130   21.1635 C.ar    1  UNL1        0.0988
     17 C         -12.4270  -17.6755   22.4206 C.ar    1  UNL1        0.0192
     18 C         -13.4012  -18.0131   23.5101 C.ar    1  UNL1        0.0015
     19 C         -12.9207  -18.6757   24.7671 C.ar    1  UNL1        0.0000
     20 C         -11.4659  -19.0006   24.9347 C.ar    1  UNL1        0.0000
     21 C         -10.4917  -18.6631   23.8451 C.ar    1  UNL1        0.0001
     22 C         -10.9723  -18.0005   22.5882 C.ar    1  UNL1        0.0030
@<TRIPOS>BOND
     1     1     2    2
     2     2     3    1
     3     3     4    1
     4     4     5    1
     5     5     6   ar
     6     6     7   ar
     7     7    13    1
     8    13    14   ar
     9    14    15   ar
    10    15    16   ar
    11    16    17   ar
    12    17    18   ar
    13    18    19   ar
    14    19    20   ar
    15    20    21   ar
    16    21    22   ar
    17     7     8   ar
    18     8     9   ar
    19     9    10   ar
    20    10    11    1
    21    11     2   am
    22    10     5   ar
    23    22    13   ar
    24    22    17   ar
    25    11    12    1
@<TRIPOS>MOLECULE
*****
 22 25 0 0 0
SMALL
GASTEIGER

@<TRIPOS>ATOM
      1 O         -14.0843  -17.7906   24.0963 O.2     1  UNL1       -0.2748
      2 C         -12.7295  -17.9782   23.4805 C.2     1  UNL1        0.2264
      3 C         -12.2969  -17.1058   22.3396 C.3     1  UNL1        0.0901
      4 C         -10.9421  -17.2934   21.7238 C.3     1  UNL1        0.0372
      5 C         -10.0198  -18.3534   22.2489 C.ar    1  UNL1       -0.0082
      6 C          -8.6650  -18.5409   21.6330 C.ar    1  UNL1       -0.0030
      7 C          -7.7427  -19.6009   22.1581 C.ar    1  UNL1        0.0013
      8 C          -8.1752  -20.4734   23.2991 C.ar    1  UNL1        0.0013
      9 C          -9.5301  -20.2859   23.9149 C.ar    1  UNL1        0.0144
     10 C         -10.4524  -19.2258   23.3898 C.ar    1  UNL1        0.0463
     11 N         -11.8072  -19.0382   24.0056 N.am    1  UNL1       -0.2842
     12 H         -12.0911  -19.6108   24.7544 H       1  UNL1        0.1548
     13 C          -6.3879  -19.7885   21.5423 C.ar    1  UNL1        0.0192
     14 C          -6.1838  -20.8291   20.4815 C.ar    1  UNL1        0.0988
     15 N          -4.8289  -21.0167   19.8657 N.ar    1  UNL1       -0.2423
     16 C          -3.6782  -20.1637   20.3107 C.ar    1  UNL1        0.0988
     17 C          -3.8823  -19.1230   21.3715 C.ar    1  UNL1        0.0192
     18 C          -2.7315  -18.2699   21.8165 C.ar    1  UNL1        0.0015
     19 C          -2.9356  -17.2292   22.8774 C.ar    1  UNL1        0.0000
     20 C          -4.2904  -17.0416   23.4932 C.ar    1  UNL1        0.0000
     21 C          -5.4412  -17.8948   23.0482 C.ar    1  UNL1        0.0001
     22 C          -5.2371  -18.9354   21.9874 C.ar    1  UNL1        0.0030
@<TRIPOS>BOND
     1     1     2    2
     2     2     3    1
     3     3     4    1
     4     4     5    1
     5     5     6   ar
     6     6     7   ar
     7     7    13    1
     8    13    14   ar
     9    14    15   ar
    10    15    16   ar
    11    16    17   ar
    12    17    18   ar
    13    18    19   ar
    14    19    20   ar
    15    20    21   ar
    16    21    22   ar
    17     7     8   ar
    18     8     9   ar
    19     9    10   ar
    20    10    11    1
    21    11     2   am
    22    10     5   ar
    23    22    13   ar
    24    22    17   ar
    25    11    12    1
@<TRIPOS>MOLECULE
*****
 22 25 0 0 0
SMALL
GASTEIGER

@<TRIPOS>ATOM
      1 O           0.5948  -18.2606   20.4344 O.2     1  UNL1       -0.2748
      2 C          -0.8899  -18.3578   20.2446 C.2     1  UNL1        0.2264
      3 C          -1.5096  -17.9321   18.9467 C.3     1  UNL1        0.0901
      4 C          -2.9943  -18.0293   18.7569 C.3     1  UNL1        0.0372
      5 C          -3.8594  -18.5523   19.8650 C.ar    1  UNL1       -0.0082
      6 C          -5.3442  -18.6495   19.6752 C.ar    1  UNL1       -0.0030
      7 C          -6.2093  -19.1725   20.7834 C.ar    1  UNL1        0.0013
      8 C          -5.5897  -19.5983   22.0814 C.ar    1  UNL1        0.0013
      9 C          -4.1049  -19.5010   22.2712 C.ar    1  UNL1        0.0144
     10 C          -3.2398  -18.9780   21.1630 C.ar    1  UNL1        0.0463
     11 N          -1.7550  -18.8808   21.3528 N.am    1  UNL1       -0.2842
     12 H          -1.3483  -19.1602   22.2047 H       1  UNL1        0.1548
     13 C          -7.6941  -19.2697   20.5936 C.ar    1  UNL1        0.0192
     14 C          -8.2521  -19.9685   19.3893 C.ar    1  UNL1        0.0988
     15 N          -9.7368  -20.0657   19.1995 N.ar    1  UNL1       -0.2423
     16 C         -10.6636  -19.4642   20.2140 C.ar    1  UNL1        0.0988
     17 C         -10.1056  -18.7654   21.4183 C.ar    1  UNL1        0.0192
     18 C         -11.0324  -18.1638   22.4328 C.ar    1  UNL1        0.0015
     19 C         -10.4744  -17.4650   23.6371 C.ar    1  UNL1        0.0000
     20 C          -8.9897  -17.3678   23.8269 C.ar    1  UNL1        0.0000
     21 C          -8.0629  -17.9693   22.8124 C.ar    1  UNL1        0.0001
     22 C          -8.6209  -18.6681   21.6081 C.ar    1  UNL1        0.0030
@<TRIPOS>BOND
     1     1     2    2
     2     2     3    1
     3     3     4    1
     4     4     5    1
     5     5     6   ar
     6     6     7   ar
     7     7    13    1
     8    13    14   ar
     9    14    15   ar
    10    15    16   ar
    11    16    17   ar
    12    17    18   ar
    13    18    19   ar
    14    19    20   ar
    15    20    21   ar
    16    21    22   ar
    17     7     8   ar
    18     8     9   ar
    19     9    10   ar
    20    10    11    1
    21    11     2   am
    22    10     5   ar
    23    22    13   ar
    24    22    17   ar
    25    11    12    1
@<TRIPOS>MOLECULE
*****
 22 25 0 0 0
SMALL
GASTEIGER

@<TRIPOS>ATOM
      1 O         -13.6288  -17.9657   23.4094 O.2     1  UNL1       -0.2748
      2 C         -12.1542  -18.1730   23.2288 C.2     1  UNL1        0.2264
      3 C         -11.6304  -19.5178   22.8200 C.3     1  UNL1        0.0901
      4 C         -10.1558  -19.7251   22.6394 C.3     1  UNL1        0.0372
      5 C          -9.2050  -18.5876   22.8676 C.ar    1  UNL1       -0.0082
      6 C          -7.7304  -18.7950   22.6869 C.ar    1  UNL1       -0.0030
      7 C          -6.7797  -17.6575   22.9151 C.ar    1  UNL1        0.0013
      8 C          -7.3034  -16.3126   23.3239 C.ar    1  UNL1        0.0013
      9 C          -8.7780  -16.1053   23.5045 C.ar    1  UNL1        0.0144
     10 C          -9.7288  -17.2428   23.2763 C.ar    1  UNL1        0.0463
     11 N         -11.2034  -17.0355   23.4569 N.am    1  UNL1       -0.2842
     12 H         -11.5472  -16.1529   23.7252 H       1  UNL1        0.1548
     13 C          -5.3051  -17.8648   22.7345 C.ar    1  UNL1        0.0192
     14 C          -4.3300  -17.0501   23.5316 C.ar    1  UNL1        0.0988
     15 N          -2.8554  -17.2575   23.3510 N.ar    1  UNL1       -0.2423
     16 C          -2.3559  -18.2794   22.3733 C.ar    1  UNL1        0.0988
     17 C          -3.3310  -19.0941   21.5761 C.ar    1  UNL1        0.0192
     18 C          -2.8315  -20.1161   20.5983 C.ar    1  UNL1        0.0015
     19 C          -3.8066  -20.9308   19.8011 C.ar    1  UNL1        0.0000
     20 C          -5.2812  -20.7235   19.9817 C.ar    1  UNL1        0.0000
     21 C          -5.7807  -19.7015   20.9595 C.ar    1  UNL1        0.0001
     22 C          -4.8056  -18.8868   21.7567 C.ar    1  UNL1        0.0030
@<TRIPOS>BOND
     1     1     2    2
     2     2     3    1
     3     3     4    1
     4     4     5    1
     5     5     6   ar
     6     6     7   ar
     7     7    13    1
     8    13    14   ar
     9    14    15   ar
    10    15    16   ar
    11    16    17   ar
    12    17    18   ar
    13    18    19   ar
    14    19    20   ar
    15    20    21   ar
    16    21    22   ar
    17     7     8   ar
    18     8     9   ar
    19     9    10   ar
    20    10    11    1
    21    11     2   am
    22    10     5   ar
    23    22    13   ar
    24    22    17   ar
    25    11    12    1
@<TRIPOS>MOLECULE
*****
 22 25 0 0 0
SMALL
GASTEIGER

@<TRIPOS>ATOM
      1 O         -20.0068  -10.6613   18.1645 O.2     1  UNL1       -0.2748
      2 C         -18.9535   -9.6291   18.4387 C.2     1  UNL1        0.2264
      3 C         -18.8005   -9.0619   19.8188 C.3     1  UNL1        0.0901
      4 C         -17.7472   -8.0298   20.0930 C.3     1  UNL1        0.0372
      5 C         -16.8469   -7.5648   18.9870 C.ar    1  UNL1       -0.0082
      6 C         -15.7936   -6.5326   19.2612 C.ar    1  UNL1       -0.0030
      7 C         -14.8933   -6.0676   18.1552 C.ar    1  UNL1        0.0013
      8 C         -15.0463   -6.6347   16.7750 C.ar    1  UNL1        0.0013
      9 C         -16.0996   -7.6669   16.5008 C.ar    1  UNL1        0.0144
     10 C         -16.9999   -8.1319   17.6069 C.ar    1  UNL1        0.0463
     11 N         -18.0532   -9.1641   17.3327 N.am    1  UNL1       -0.2842
     12 H         -18.1536   -9.5364   16.4269 H       1  UNL1        0.1548
     13 C         -13.8400   -5.0354   18.4294 C.ar    1  UNL1        0.0192
     14 C         -14.2124   -3.5841   18.4996 C.ar    1  UNL1        0.0988
     15 N         -13.1591   -2.5519   18.7738 N.ar    1  UNL1       -0.2423
     16 C         -11.7334   -2.9710   18.9778 C.ar    1  UNL1        0.0988
     17 C         -11.3610   -4.4224   18.9076 C.ar    1  UNL1        0.0192
     18 C          -9.9353   -4.8415   19.1116 C.ar    1  UNL1        0.0015
     19 C          -9.5628   -6.2929   19.0415 C.ar    1  UNL1        0.0000
     20 C         -10.6161   -7.3251   18.7673 C.ar    1  UNL1        0.0000
     21 C         -12.0419   -6.9059   18.5633 C.ar    1  UNL1        0.0001
     22 C         -12.4143   -5.4546   18.6334 C.ar    1  UNL1        0.0030
@<TRIPOS>BOND
     1     1     2    2
     2     2     3    1
     3     3     4    1
     4     4     5    1
     5     5     6   ar
     6     6     7   ar
     7     7    13    1
     8    13    14   ar
     9    14    15   ar
    10    15    16   ar
    11    16    17   ar
    12    17    18   ar
    13    18    19   ar
    14    19    20   ar
    15    20    21   ar
    16    21    22   ar
    17     7     8   ar
    18     8     9   ar
    19     9    10   ar
    20    10    11    1
    21    11     2   am
    22    10     5   ar
    23    22    13   ar
    24    22    17   ar
    25    11    12    1
@<TRIPOS>MOLECULE
*****
 22 25 0 0 0
SMALL
GASTEIGER

@<TRIPOS>ATOM
      1 O          -8.7321   -3.6767   16.6698 O.2     1  UNL1       -0.2748
      2 C          -9.8065   -4.6103   17.1432 C.2     1  UNL1        0.2264
      3 C          -9.6372   -5.3559   18.4336 C.3     1  UNL1        0.0901
      4 C         -10.7116   -6.2895   18.9069 C.3     1  UNL1        0.0372
      5 C         -11.9552   -6.4776   18.0898 C.ar    1  UNL1       -0.0082
      6 C         -13.0296   -7.4113   18.5631 C.ar    1  UNL1       -0.0030
      7 C         -14.2733   -7.5993   17.7459 C.ar    1  UNL1        0.0013
      8 C         -14.4427   -6.8537   16.4554 C.ar    1  UNL1        0.0013
      9 C         -13.3683   -5.9201   15.9821 C.ar    1  UNL1        0.0144
     10 C         -12.1246   -5.7320   16.7993 C.ar    1  UNL1        0.0463
     11 N         -11.0502   -4.7984   16.3260 N.am    1  UNL1       -0.2842
     12 H         -11.1614   -4.3090   15.4790 H       1  UNL1        0.1548
     13 C         -15.3477   -8.5330   18.2192 C.ar    1  UNL1        0.0192
     14 C         -15.1659  -10.0157   18.0840 C.ar    1  UNL1        0.0988
     15 N         -16.2402  -10.9494   18.5573 N.ar    1  UNL1       -0.2423
     16 C         -17.4964  -10.4003   19.1659 C.ar    1  UNL1        0.0988
     17 C         -17.6783   -8.9175   19.3012 C.ar    1  UNL1        0.0192
     18 C         -18.9345   -8.3684   19.9098 C.ar    1  UNL1        0.0015
     19 C         -19.1164   -6.8856   20.0451 C.ar    1  UNL1        0.0000
     20 C         -18.0420   -5.9519   19.5718 C.ar    1  UNL1        0.0000
     21 C         -16.7857   -6.5011   18.9631 C.ar    1  UNL1        0.0001
     22 C         -16.6039   -7.9838   18.8279 C.ar    1  UNL1        0.0030
@<TRIPOS>BOND
     1     1     2    2
     2     2     3    1
     3     3     4    1
     4     4     5    1
     5     5     6   ar
     6     6     7   ar
     7     7    13    1
     8    13    14   ar
     9    14    15   ar
    10    15    16   ar
    11    16    17   ar
    12    17    18   ar
    13    18    19   ar
    14    19    20   ar
    15    20    21   ar
    16    21    22   ar
    17     7     8   ar
    18     8     9   ar
    19     9    10   ar
    20    10    11    1
    21    11     2   am
    22    10     5   ar
    23    22    13   ar
    24    22    17   ar
    25    11    12    1
@<TRIPOS>MOLECULE
*****
 22 25 0 0 0
SMALL
GASTEIGER

@<TRIPOS>ATOM
      1 O         -15.0255  -18.0204   24.0449 O.2     1  UNL1       -0.2748
      2 C         -13.5788  -18.3209   23.7861 C.2     1  UNL1        0.2264
      3 C         -12.6872  -18.7446   24.9154 C.3     1  UNL1        0.0901
      4 C         -11.2405  -19.0450   24.6566 C.3     1  UNL1        0.0372
      5 C         -10.6856  -18.9218   23.2686 C.ar    1  UNL1       -0.0082
      6 C          -9.2389  -19.2222   23.0098 C.ar    1  UNL1       -0.0030
      7 C          -8.6840  -19.0989   21.6217 C.ar    1  UNL1        0.0013
      8 C          -9.5757  -18.6752   20.4924 C.ar    1  UNL1        0.0013
      9 C         -11.0223  -18.3748   20.7511 C.ar    1  UNL1        0.0144
     10 C         -11.5772  -18.4981   22.1393 C.ar    1  UNL1        0.0463
     11 N         -13.0239  -18.1976   22.3981 N.am    1  UNL1       -0.2842
     12 H         -13.6091  -17.9195   21.6569 H       1  UNL1        0.1548
     13 C          -7.2373  -19.3994   21.3630 C.ar    1  UNL1        0.0192
     14 C          -6.8572  -20.4705   20.3842 C.ar    1  UNL1        0.0988
     15 N          -5.4106  -20.7710   20.1254 N.ar    1  UNL1       -0.2423
     16 C          -4.3440  -20.0003   20.8454 C.ar    1  UNL1        0.0988
     17 C          -4.7241  -18.9290   21.8243 C.ar    1  UNL1        0.0192
     18 C          -3.6576  -18.1583   22.5443 C.ar    1  UNL1        0.0015
     19 C          -4.0377  -17.0871   23.5231 C.ar    1  UNL1        0.0000
     20 C          -5.4843  -16.7867   23.7819 C.ar    1  UNL1        0.0000
     21 C          -6.5509  -17.5574   23.0618 C.ar    1  UNL1        0.0001
     22 C          -6.1708  -18.6286   22.0830 C.ar    1  UNL1        0.0030
@<TRIPOS>BOND
     1     1     2    2
     2     2     3    1
     3     3     4    1
     4     4     5    1
     5     5     6   ar
     6     6     7   ar
     7     7    13    1
     8    13    14   ar
     9    14    15   ar
    10    15    16   ar
    11    16    17   ar
    12    17    18   ar
    13    18    19   ar
    14    19    20   ar
    15    20    21   ar
    16    21    22   ar
    17     7     8   ar
    18     8     9   ar
    19     9    10   ar
    20    10    11    1
    21    11     2   am
    22    10     5   ar
    23    22    13   ar
    24    22    17   ar
    25    11    12    1
@<TRIPOS>MOLECULE
*****
 22 25 0 0 0
SMALL
GASTEIGER

@<TRIPOS>ATOM
      1 O          -9.6634   -8.7142   18.0328 O.2     1  UNL1       -0.2748
      2 C         -10.0321   -7.2610   18.0779 C.2     1  UNL1        0.2264
      3 C          -9.4319   -6.3670   19.1222 C.3     1  UNL1        0.0901
      4 C          -9.8005   -4.9137   19.1673 C.3     1  UNL1        0.0372
      5 C         -10.7694   -4.3544   18.1681 C.ar    1  UNL1       -0.0082
      6 C         -11.1381   -2.9011   18.2132 C.ar    1  UNL1       -0.0030
      7 C         -12.1070   -2.3418   17.2140 C.ar    1  UNL1        0.0013
      8 C         -12.7073   -3.2357   16.1697 C.ar    1  UNL1        0.0013
      9 C         -12.3386   -4.6890   16.1246 C.ar    1  UNL1        0.0144
     10 C         -11.3696   -5.2483   17.1238 C.ar    1  UNL1        0.0463
     11 N         -11.0010   -6.7016   17.0787 N.am    1  UNL1       -0.2842
     12 H         -11.3949   -7.2884   16.3933 H       1  UNL1        0.1548
     13 C         -12.4757   -0.8885   17.2591 C.ar    1  UNL1        0.0192
     14 C         -11.6826    0.1113   16.4708 C.ar    1  UNL1        0.0988
     15 N         -12.0512    1.5646   16.5159 N.ar    1  UNL1       -0.2423
     16 C         -13.2130    2.0181   17.3493 C.ar    1  UNL1        0.0988
     17 C         -14.0062    1.0183   18.1376 C.ar    1  UNL1        0.0192
     18 C         -15.1679    1.4718   18.9710 C.ar    1  UNL1        0.0015
     19 C         -15.9611    0.4721   19.7594 C.ar    1  UNL1        0.0000
     20 C         -15.5924   -0.9812   19.7143 C.ar    1  UNL1        0.0000
     21 C         -14.4306   -1.4347   18.8808 C.ar    1  UNL1        0.0001
     22 C         -13.6375   -0.4350   18.0926 C.ar    1  UNL1        0.0030
@<TRIPOS>BOND
     1     1     2    2
     2     2     3    1
     3     3     4    1
     4     4     5    1
     5     5     6   ar
     6     6     7   ar
     7     7    13    1
     8    13    14   ar
     9    14    15   ar
    10    15    16   ar
    11    16    17   ar
    12    17    18   ar
    13    18    19   ar
    14    19    20   ar
    15    20    21   ar
    16    21    22   ar
    17     7     8   ar
    18     8     9   ar
    19     9    10   ar
    20    10    11    1
    21    11     2   am
    22    10     5   ar
    23    22    13   ar
    24    22    17   ar
    25    11    12    1
@<TRIPOS>MOLECULE
*****
 22 25 0 0 0
SMALL
GASTEIGER

@<TRIPOS>ATOM
      1 O          -8.9144  -14.4745   28.1154 O.2     1  UNL1       -0.2748
      2 C          -8.1428  -15.0225   26.9517 C.2     1  UNL1        0.2264
      3 C          -8.7819  -15.0981   25.5968 C.3     1  UNL1        0.0901
      4 C          -8.0103  -15.6461   24.4330 C.3     1  UNL1        0.0372
      5 C          -6.5996  -16.1185   24.6242 C.ar    1  UNL1       -0.0082
      6 C          -5.8280  -16.6665   23.4604 C.ar    1  UNL1       -0.0030
      7 C          -4.4172  -17.1390   23.6516 C.ar    1  UNL1        0.0013
      8 C          -3.7780  -17.0634   25.0065 C.ar    1  UNL1        0.0013
      9 C          -4.5497  -16.5155   26.1703 C.ar    1  UNL1        0.0144
     10 C          -5.9605  -16.0430   25.9791 C.ar    1  UNL1        0.0463
     11 N          -6.7321  -15.4950   27.1428 N.am    1  UNL1       -0.2842
     12 H          -6.3126  -15.4454   28.0321 H       1  UNL1        0.1548
     13 C          -3.6456  -17.6870   22.4878 C.ar    1  UNL1        0.0192
     14 C          -2.3144  -17.0978   22.1264 C.ar    1  UNL1        0.0988
     15 N          -1.5428  -17.6458   20.9626 N.ar    1  UNL1       -0.2423
     16 C          -2.1024  -18.7829   20.1604 C.ar    1  UNL1        0.0988
     17 C          -3.4336  -19.3722   20.5218 C.ar    1  UNL1        0.0192
     18 C          -3.9932  -20.5093   19.7196 C.ar    1  UNL1        0.0015
     19 C          -5.3245  -21.0986   20.0810 C.ar    1  UNL1        0.0000
     20 C          -6.0961  -20.5506   21.2448 C.ar    1  UNL1        0.0000
     21 C          -5.5365  -19.4134   22.0471 C.ar    1  UNL1        0.0001
     22 C          -4.2053  -18.8242   21.6856 C.ar    1  UNL1        0.0030
@<TRIPOS>BOND
     1     1     2    2
     2     2     3    1
     3     3     4    1
     4     4     5    1
     5     5     6   ar
     6     6     7   ar
     7     7    13    1
     8    13    14   ar
     9    14    15   ar
    10    15    16   ar
    11    16    17   ar
    12    17    18   ar
    13    18    19   ar
    14    19    20   ar
    15    20    21   ar
    16    21    22   ar
    17     7     8   ar
    18     8     9   ar
    19     9    10   ar
    20    10    11    1
    21    11     2   am
    22    10     5   ar
    23    22    13   ar
    24    22    17   ar
    25    11    12    1
