@<TRIPOS>MOLECULE
*****
 32 35 0 0 0
SMALL
GASTEIGER

@<TRIPOS>ATOM
      1 N          -2.7177    2.4728   20.4841 N.am    1  UNL1       -0.2681
      2 C          -1.3704    2.9581   20.9306 C.2     1  UNL1        0.3077
      3 O          -1.2124    4.3541   21.4561 O.2     1  UNL1       -0.2522
      4 N          -0.1812    2.0473   20.8516 N.am    1  UNL1       -0.2640
      5 C          -0.1853    0.6333   20.3511 C.3     1  UNL1        0.0950
      6 C           1.2143    0.1028   20.4494 C.3     1  UNL1        0.0219
      7 C           2.0768   -1.0990   20.2009 C.3     1  UNL1        0.0061
      8 C           3.4790   -0.7557   20.6085 C.3     1  UNL1        0.0224
      9 C           3.4830    0.6584   21.1089 C.3     1  UNL1        0.0061
     10 C           2.0834    1.1889   21.0106 C.3     1  UNL1        0.0219
     11 C           1.2209    2.3907   21.2592 C.3     1  UNL1        0.0950
     12 H          -2.8214    1.5566   20.1392 H       1  UNL1        0.1564
     13 C          -4.3675    4.1234   19.3422 C.ar    1  UNL1        0.0283
     14 C          -5.5568    5.0340   19.4213 C.ar    1  UNL1        0.0138
     15 C          -6.2855    5.2048   20.7212 C.ar    1  UNL1        0.0578
     16 CL         -7.4748    6.1155   20.8002 Cl      1  UNL1       -0.0822
     17 C          -5.8251    4.4650   21.9420 C.ar    1  UNL1        0.0127
     18 C          -4.6358    3.5543   21.8630 C.ar    1  UNL1        0.0156
     19 C          -3.9070    3.3835   20.5631 C.ar    1  UNL1        0.0527
     20 O          -4.3226    3.2964   16.8797 O.co2   1  UNL1       -0.5446
     21 C          -3.6388    3.9526   18.0423 C.2     1  UNL1        0.0741
     22 O          -2.2261    4.4379   17.9051 O.co2   1  UNL1       -0.5446
     23 C           4.6681   -1.6664   20.5295 C.ar    1  UNL1       -0.0186
     24 C           5.0394   -2.5189   21.7064 C.ar    1  UNL1       -0.0043
     25 C           6.2287   -3.4297   21.6275 C.ar    1  UNL1       -0.0003
     26 C           7.0467   -3.4879   20.3715 C.ar    1  UNL1       -0.0001
     27 C           6.6754   -2.6353   19.1944 C.ar    1  UNL1        0.0035
     28 C           5.4862   -1.7246   19.2734 C.ar    1  UNL1        0.0675
     29 C           5.1149   -0.8721   18.0965 C.3     1  UNL1        0.4183
     30 F           4.7436   -0.0195   16.9195 F       1  UNL1       -0.1659
     31 F           6.0137    0.2173   18.6020 F       1  UNL1       -0.1659
     32 F           4.2161   -1.9614   17.5910 F       1  UNL1       -0.1659
@<TRIPOS>UNITY_ATOM_ATTR
20 1
charge -1
@<TRIPOS>BOND
     1    20    21   ar
     2    21    22   ar
     3    21    13    1
     4    13    14   ar
     5    14    15   ar
     6    15    16    1
     7    15    17   ar
     8    17    18   ar
     9    18    19   ar
    10    19     1    1
    11     1     2   am
    12     2     3    2
    13     2     4   am
    14     4     5    1
    15     6     5    1
    16     6     7    1
    17     7     8    1
    18     8    23    1
    19    23    24   ar
    20    24    25   ar
    21    25    26   ar
    22    26    27   ar
    23    27    28   ar
    24    28    29    1
    25    29    30    1
    26    29    31    1
    27    29    32    1
    28     8     9    1
    29    10     9    1
    30    10    11    1
    31    19    13   ar
    32    11     4    1
    33    10     6    1
    34    28    23   ar
    35     1    12    1
@<TRIPOS>MOLECULE
*****
 32 35 0 0 0
SMALL
GASTEIGER

@<TRIPOS>ATOM
      1 N           7.0333   -4.7937   27.1562 N.am    1  UNL1       -0.2681
      2 C           7.9024   -4.2454   26.0635 C.2     1  UNL1        0.3077
      3 O           9.3957   -4.3213   26.1837 O.2     1  UNL1       -0.2522
      4 N           7.2783   -3.6211   24.8508 N.am    1  UNL1       -0.2640
      5 C           5.8080   -3.4749   24.5922 C.3     1  UNL1        0.0950
      6 C           5.6360   -2.7969   23.2653 C.3     1  UNL1        0.0219
      7 C           4.6210   -2.2876   22.2853 C.3     1  UNL1        0.0061
      8 C           5.3576   -1.7000   21.1182 C.3     1  UNL1        0.0224
      9 C           6.8279   -1.8462   21.3768 C.3     1  UNL1        0.0061
     10 C           6.9999   -2.5242   22.7037 C.3     1  UNL1        0.0219
     11 C           8.0150   -3.0336   23.6837 C.3     1  UNL1        0.0950
     12 H           6.0532   -4.7439   27.0774 H       1  UNL1        0.1564
     13 C           8.2637   -6.7870   28.2800 C.ar    1  UNL1        0.0283
     14 C           8.8877   -7.4112   29.4929 C.ar    1  UNL1        0.0138
     15 C           8.9053   -6.6663   30.7947 C.ar    1  UNL1        0.0578
     16 CL          9.5293   -7.2904   32.0076 Cl      1  UNL1       -0.0822
     17 C           8.2990   -5.2972   30.8838 C.ar    1  UNL1        0.0127
     18 C           7.6750   -4.6730   29.6709 C.ar    1  UNL1        0.0156
     19 C           7.6573   -5.4179   28.3691 C.ar    1  UNL1        0.0527
     20 O           9.5360   -7.9319   26.3254 O.co2   1  UNL1       -0.5446
     21 C           8.2460   -7.5319   26.9782 C.2     1  UNL1        0.0741
     22 O           6.9385   -7.8768   26.3291 O.co2   1  UNL1       -0.5446
     23 C           4.7335   -1.0758   19.9054 C.ar    1  UNL1       -0.0186
     24 C           4.4515    0.3973   19.8811 C.ar    1  UNL1       -0.0043
     25 C           3.8274    1.0216   18.6683 C.ar    1  UNL1       -0.0003
     26 C           3.4853    0.1727   17.4798 C.ar    1  UNL1       -0.0001
     27 C           3.7674   -1.3004   17.5042 C.ar    1  UNL1        0.0035
     28 C           4.3914   -1.9246   18.7169 C.ar    1  UNL1        0.0675
     29 C           4.6734   -3.3976   18.7412 C.3     1  UNL1        0.4183
     30 F           4.9555   -4.8707   18.7656 F       1  UNL1       -0.1659
     31 F           3.3320   -3.6442   19.3654 F       1  UNL1       -0.1659
     32 F           6.0149   -3.1511   18.1170 F       1  UNL1       -0.1659
@<TRIPOS>UNITY_ATOM_ATTR
20 1
charge -1
@<TRIPOS>BOND
     1    20    21   ar
     2    21    22   ar
     3    21    13    1
     4    13    14   ar
     5    14    15   ar
     6    15    16    1
     7    15    17   ar
     8    17    18   ar
     9    18    19   ar
    10    19     1    1
    11     1     2   am
    12     2     3    2
    13     2     4   am
    14     4     5    1
    15     6     5    1
    16     6     7    1
    17     7     8    1
    18     8    23    1
    19    23    24   ar
    20    24    25   ar
    21    25    26   ar
    22    26    27   ar
    23    27    28   ar
    24    28    29    1
    25    29    30    1
    26    29    31    1
    27    29    32    1
    28     8     9    1
    29    10     9    1
    30    10    11    1
    31    19    13   ar
    32    11     4    1
    33    10     6    1
    34    28    23   ar
    35     1    12    1
@<TRIPOS>MOLECULE
*****
 32 35 0 0 0
SMALL
GASTEIGER

@<TRIPOS>ATOM
      1 N           2.1258    1.4071   27.7857 N.am    1  UNL1       -0.2681
      2 C           3.0612    0.2398   27.6734 C.2     1  UNL1        0.3077
      3 O           3.7127   -0.3202   28.9031 O.2     1  UNL1       -0.2522
      4 N           3.3450   -0.3674   26.3315 N.am    1  UNL1       -0.2640
      5 C           2.7707    0.0825   25.0209 C.3     1  UNL1        0.0950
      6 C           3.3238   -0.8032   23.9441 C.3     1  UNL1        0.0219
      7 C           3.3107   -1.0726   22.4685 C.3     1  UNL1        0.0061
      8 C           4.2188   -2.2363   22.2016 C.3     1  UNL1        0.0224
      9 C           4.7931   -2.6862   23.5123 C.3     1  UNL1        0.0061
     10 C           4.2400   -1.8005   24.5892 C.3     1  UNL1        0.0219
     11 C           4.2531   -1.5311   26.0647 C.3     1  UNL1        0.0950
     12 H           1.6982    1.7746   26.9787 H       1  UNL1        0.1564
     13 C           0.5166    1.7822   29.7907 C.ar    1  UNL1        0.0283
     14 C           0.2327    2.3895   31.1325 C.ar    1  UNL1        0.0138
     15 C           1.2742    3.2290   31.8113 C.ar    1  UNL1        0.0578
     16 CL          0.9903    3.8363   33.1531 Cl      1  UNL1       -0.0822
     17 C           2.5994    3.4612   31.1483 C.ar    1  UNL1        0.0127
     18 C           2.8833    2.8538   29.8064 C.ar    1  UNL1        0.0156
     19 C           1.8419    2.0144   29.1276 C.ar    1  UNL1        0.0527
     20 O          -0.8038    1.1306   27.6501 O.co2   1  UNL1       -0.5446
     21 C          -0.5249    0.9427   29.1119 C.2     1  UNL1        0.0741
     22 O          -1.2873   -0.0846   29.8950 O.co2   1  UNL1       -0.5446
     23 C           4.5026   -2.8435   20.8598 C.ar    1  UNL1       -0.0186
     24 C           3.9126   -4.1745   20.4989 C.ar    1  UNL1       -0.0043
     25 C           4.1965   -4.7819   19.1570 C.ar    1  UNL1       -0.0003
     26 C           5.0704   -4.0581   18.1760 C.ar    1  UNL1       -0.0001
     27 C           5.6605   -2.7270   18.5369 C.ar    1  UNL1        0.0035
     28 C           5.3766   -2.1198   19.8787 C.ar    1  UNL1        0.0675
     29 C           5.9667   -0.7888   20.2397 C.3     1  UNL1        0.4183
     30 F           6.5568    0.5422   20.6006 F       1  UNL1       -0.1659
     31 F           4.7960   -0.0979   19.6055 F       1  UNL1       -0.1659
     32 F           7.1374   -1.4797   20.8738 F       1  UNL1       -0.1659
@<TRIPOS>UNITY_ATOM_ATTR
20 1
charge -1
@<TRIPOS>BOND
     1    20    21   ar
     2    21    22   ar
     3    21    13    1
     4    13    14   ar
     5    14    15   ar
     6    15    16    1
     7    15    17   ar
     8    17    18   ar
     9    18    19   ar
    10    19     1    1
    11     1     2   am
    12     2     3    2
    13     2     4   am
    14     4     5    1
    15     6     5    1
    16     6     7    1
    17     7     8    1
    18     8    23    1
    19    23    24   ar
    20    24    25   ar
    21    25    26   ar
    22    26    27   ar
    23    27    28   ar
    24    28    29    1
    25    29    30    1
    26    29    31    1
    27    29    32    1
    28     8     9    1
    29    10     9    1
    30    10    11    1
    31    19    13   ar
    32    11     4    1
    33    10     6    1
    34    28    23   ar
    35     1    12    1
@<TRIPOS>MOLECULE
*****
 32 35 0 0 0
SMALL
GASTEIGER

@<TRIPOS>ATOM
      1 N           7.0300   -4.7032   27.1504 N.am    1  UNL1       -0.2681
      2 C           7.8915   -4.2614   26.0047 C.2     1  UNL1        0.3077
      3 O           9.3781   -4.4507   26.0676 O.2     1  UNL1       -0.2522
      4 N           7.2663   -3.6302   24.7960 N.am    1  UNL1       -0.2640
      5 C           5.8020   -3.3772   24.5914 C.3     1  UNL1        0.0950
      6 C           5.6264   -2.7320   23.2487 C.3     1  UNL1        0.0219
      7 C           4.6129   -2.1768   22.2924 C.3     1  UNL1        0.0061
      8 C           5.3422   -1.6878   21.0762 C.3     1  UNL1        0.0224
      9 C           6.8065   -1.9409   21.2809 C.3     1  UNL1        0.0061
     10 C           6.9821   -2.5862   22.6236 C.3     1  UNL1        0.0219
     11 C           7.9956   -3.1413   23.5799 C.3     1  UNL1        0.0950
     12 H           6.0543   -4.5789   27.1091 H       1  UNL1        0.1564
     13 C           7.7325   -4.5714   29.6482 C.ar    1  UNL1        0.0283
     14 C           8.3576   -5.2026   30.8569 C.ar    1  UNL1        0.0138
     15 C           8.9054   -6.5967   30.7763 C.ar    1  UNL1        0.0578
     16 CL          9.5305   -7.2279   31.9849 Cl      1  UNL1       -0.0822
     17 C           8.8280   -7.3596   29.4872 C.ar    1  UNL1        0.0127
     18 C           8.2029   -6.7284   28.2786 C.ar    1  UNL1        0.0156
     19 C           7.6551   -5.3343   28.3591 C.ar    1  UNL1        0.0527
     20 O           6.0870   -2.8577   30.6997 O.co2   1  UNL1       -0.5446
     21 C           7.1848   -3.1773   29.7288 C.2     1  UNL1        0.0741
     22 O           7.7349   -2.1028   28.8383 O.co2   1  UNL1       -0.5446
     23 C           4.7171   -1.0567   19.8676 C.ar    1  UNL1       -0.0186
     24 C           4.4036    0.4101   19.8648 C.ar    1  UNL1       -0.0043
     25 C           3.7784    1.0413   18.6562 C.ar    1  UNL1       -0.0003
     26 C           3.4667    0.2055   17.4502 C.ar    1  UNL1       -0.0001
     27 C           3.7802   -1.2614   17.4530 C.ar    1  UNL1        0.0035
     28 C           4.4053   -1.8925   18.6615 C.ar    1  UNL1        0.0675
     29 C           4.7188   -3.3594   18.6643 C.3     1  UNL1        0.4183
     30 F           5.0323   -4.8262   18.6670 F       1  UNL1       -0.1659
     31 F           6.0719   -3.0713   18.0845 F       1  UNL1       -0.1659
     32 F           3.3657   -3.6474   19.2440 F       1  UNL1       -0.1659
@<TRIPOS>UNITY_ATOM_ATTR
20 1
charge -1
@<TRIPOS>BOND
     1    20    21   ar
     2    21    22   ar
     3    21    13    1
     4    13    14   ar
     5    14    15   ar
     6    15    16    1
     7    15    17   ar
     8    17    18   ar
     9    18    19   ar
    10    19     1    1
    11     1     2   am
    12     2     3    2
    13     2     4   am
    14     4     5    1
    15     6     5    1
    16     6     7    1
    17     7     8    1
    18     8    23    1
    19    23    24   ar
    20    24    25   ar
    21    25    26   ar
    22    26    27   ar
    23    27    28   ar
    24    28    29    1
    25    29    30    1
    26    29    31    1
    27    29    32    1
    28     8     9    1
    29    10     9    1
    30    10    11    1
    31    19    13   ar
    32    11     4    1
    33    10     6    1
    34    28    23   ar
    35     1    12    1
@<TRIPOS>MOLECULE
*****
 32 35 0 0 0
SMALL
GASTEIGER

@<TRIPOS>ATOM
      1 N           2.3062    1.7732   27.7441 N.am    1  UNL1       -0.2681
      2 C           1.6319    1.8686   26.4076 C.2     1  UNL1        0.3077
      3 O           0.4849    2.8153   26.2122 O.2     1  UNL1       -0.2522
      4 N           2.1045    1.0172   25.2666 N.am    1  UNL1       -0.2640
      5 C           3.2330    0.0301   25.3115 C.3     1  UNL1        0.0950
      6 C           3.3575   -0.5936   23.9530 C.3     1  UNL1        0.0219
      7 C           4.1319   -1.5891   23.1412 C.3     1  UNL1        0.0061
      8 C           3.5590   -1.6028   21.7549 C.3     1  UNL1        0.0224
      9 C           2.4304   -0.6157   21.7101 C.3     1  UNL1        0.0061
     10 C           2.3059    0.0080   23.0686 C.3     1  UNL1        0.0219
     11 C           1.5315    1.0036   23.8804 C.3     1  UNL1        0.0950
     12 H           3.0590    1.1519   27.8723 H       1  UNL1        0.1564
     13 C           0.9056    2.0511   29.9146 C.ar    1  UNL1        0.0283
     14 C           0.4331    2.9024   31.0556 C.ar    1  UNL1        0.0138
     15 C           0.8887    4.3272   31.1672 C.ar    1  UNL1        0.0578
     16 CL          0.4162    5.1786   32.3082 Cl      1  UNL1       -0.0822
     17 C           1.8168    4.9007   30.1377 C.ar    1  UNL1        0.0127
     18 C           2.2893    4.0493   28.9967 C.ar    1  UNL1        0.0156
     19 C           1.8337    2.6245   28.8852 C.ar    1  UNL1        0.0527
     20 O           1.4514   -0.4886   29.8682 O.co2   1  UNL1       -0.5446
     21 C           0.4500    0.6263   29.8030 C.2     1  UNL1        0.0741
     22 O          -1.0069    0.3164   29.6263 O.co2   1  UNL1       -0.5446
     23 C           4.0315   -2.4541   20.6140 C.ar    1  UNL1       -0.0186
     24 C           3.7488   -3.9272   20.6099 C.ar    1  UNL1       -0.0043
     25 C           4.2214   -4.7786   19.4689 C.ar    1  UNL1       -0.0003
     26 C           4.9767   -4.1568   18.3319 C.ar    1  UNL1       -0.0001
     27 C           5.2595   -2.6836   18.3359 C.ar    1  UNL1        0.0035
     28 C           4.7869   -1.8323   19.4769 C.ar    1  UNL1        0.0675
     29 C           5.0697   -0.3592   19.4809 C.3     1  UNL1        0.4183
     30 F           5.3524    1.1138   19.4849 F       1  UNL1       -0.1659
     31 F           6.3185   -0.6011   20.2758 F       1  UNL1       -0.1659
     32 F           3.8208   -0.1174   18.6860 F       1  UNL1       -0.1659
@<TRIPOS>UNITY_ATOM_ATTR
20 1
charge -1
@<TRIPOS>BOND
     1    20    21   ar
     2    21    22   ar
     3    21    13    1
     4    13    14   ar
     5    14    15   ar
     6    15    16    1
     7    15    17   ar
     8    17    18   ar
     9    18    19   ar
    10    19     1    1
    11     1     2   am
    12     2     3    2
    13     2     4   am
    14     4     5    1
    15     6     5    1
    16     6     7    1
    17     7     8    1
    18     8    23    1
    19    23    24   ar
    20    24    25   ar
    21    25    26   ar
    22    26    27   ar
    23    27    28   ar
    24    28    29    1
    25    29    30    1
    26    29    31    1
    27    29    32    1
    28     8     9    1
    29    10     9    1
    30    10    11    1
    31    19    13   ar
    32    11     4    1
    33    10     6    1
    34    28    23   ar
    35     1    12    1
@<TRIPOS>MOLECULE
*****
 32 35 0 0 0
SMALL
GASTEIGER

@<TRIPOS>ATOM
      1 N           3.9154   -1.9530   24.5045 N.am    1  UNL1       -0.2681
      2 C           5.1107   -1.4213   25.2383 C.2     1  UNL1        0.3077
      3 O           6.3967   -1.1829   24.5039 O.2     1  UNL1       -0.2522
      4 N           5.0200   -1.1281   26.7066 N.am    1  UNL1       -0.2640
      5 C           3.8078   -1.3154   27.5698 C.3     1  UNL1        0.0950
      6 C           4.1643   -0.8991   28.9661 C.3     1  UNL1        0.0219
      7 C           3.6354   -0.7576   30.3626 C.3     1  UNL1        0.0061
      8 C           4.7411   -0.2255   31.2254 C.3     1  UNL1        0.0224
      9 C           5.9534   -0.0382   30.3620 C.3     1  UNL1        0.0061
     10 C           5.5969   -0.4545   28.9658 C.3     1  UNL1        0.0219
     11 C           6.1258   -0.5960   27.5693 C.3     1  UNL1        0.0950
     12 H           3.0714   -2.1095   24.9865 H       1  UNL1        0.1564
     13 C           3.4837   -1.2543   22.0396 C.ar    1  UNL1        0.0283
     14 C           3.5743   -1.5477   20.5714 C.ar    1  UNL1        0.0138
     15 C           4.1872   -2.8329   20.0998 C.ar    1  UNL1        0.0578
     16 CL          4.2778   -3.1263   18.6315 Cl      1  UNL1       -0.0822
     17 C           4.7095   -3.8249   21.0963 C.ar    1  UNL1        0.0127
     18 C           4.6189   -3.5315   22.5646 C.ar    1  UNL1        0.0156
     19 C           4.0060   -2.2463   23.0362 C.ar    1  UNL1        0.0527
     20 O           2.1046    0.0679   23.8003 O.co2   1  UNL1       -0.5446
     21 C           2.8708    0.0309   22.5112 C.2     1  UNL1        0.0741
     22 O           3.0240    1.2792   21.6938 O.co2   1  UNL1       -0.5446
     23 C           4.6504    0.0677   32.6936 C.ar    1  UNL1       -0.0186
     24 C           4.2007    1.4199   33.1620 C.ar    1  UNL1       -0.0043
     25 C           4.1100    1.7132   34.6303 C.ar    1  UNL1       -0.0003
     26 C           4.4692    0.6543   35.6302 C.ar    1  UNL1       -0.0001
     27 C           4.9190   -0.6979   35.1617 C.ar    1  UNL1        0.0035
     28 C           5.0096   -0.9912   33.6936 C.ar    1  UNL1        0.0675
     29 C           5.4594   -2.3433   33.2251 C.3     1  UNL1        0.4183
     30 F           5.9091   -3.6954   32.7567 F       1  UNL1       -0.1659
     31 F           4.0526   -2.8511   33.3402 F       1  UNL1       -0.1659
     32 F           6.8661   -1.8355   33.1100 F       1  UNL1       -0.1659
@<TRIPOS>UNITY_ATOM_ATTR
20 1
charge -1
@<TRIPOS>BOND
     1    20    21   ar
     2    21    22   ar
     3    21    13    1
     4    13    14   ar
     5    14    15   ar
     6    15    16    1
     7    15    17   ar
     8    17    18   ar
     9    18    19   ar
    10    19     1    1
    11     1     2   am
    12     2     3    2
    13     2     4   am
    14     4     5    1
    15     6     5    1
    16     6     7    1
    17     7     8    1
    18     8    23    1
    19    23    24   ar
    20    24    25   ar
    21    25    26   ar
    22    26    27   ar
    23    27    28   ar
    24    28    29    1
    25    29    30    1
    26    29    31    1
    27    29    32    1
    28     8     9    1
    29    10     9    1
    30    10    11    1
    31    19    13   ar
    32    11     4    1
    33    10     6    1
    34    28    23   ar
    35     1    12    1
@<TRIPOS>MOLECULE
*****
 32 35 0 0 0
SMALL
GASTEIGER

@<TRIPOS>ATOM
      1 N           4.2759   -1.1775   28.5849 N.am    1  UNL1       -0.2681
      2 C           4.8053   -0.0786   27.7119 C.2     1  UNL1        0.3077
      3 O           5.5028    1.0981   28.3274 O.2     1  UNL1       -0.2522
      4 N           4.6373   -0.1564   26.2233 N.am    1  UNL1       -0.2640
      5 C           3.9655   -1.2651   25.4686 C.3     1  UNL1        0.0950
      6 C           4.0247   -0.9330   24.0071 C.3     1  UNL1        0.0219
      7 C           3.6461   -1.4130   22.6373 C.3     1  UNL1        0.0061
      8 C           4.1204   -0.3959   21.6421 C.3     1  UNL1        0.0224
      9 C           4.7922    0.7128   22.3968 C.3     1  UNL1        0.0061
     10 C           4.7331    0.3808   23.8584 C.3     1  UNL1        0.0219
     11 C           5.1117    0.8608   25.2282 C.3     1  UNL1        0.0950
     12 H           3.8181   -1.9498   28.1808 H       1  UNL1        0.1564
     13 C           3.3480   -0.5274   30.9229 C.ar    1  UNL1        0.0283
     14 C           3.5160   -0.4497   32.4115 C.ar    1  UNL1        0.0138
     15 C           4.7798   -0.9443   33.0504 C.ar    1  UNL1        0.0578
     16 CL          4.9478   -0.8666   34.5390 Cl      1  UNL1       -0.0822
     17 C           5.8756   -1.5166   32.2009 C.ar    1  UNL1        0.0127
     18 C           5.7076   -1.5943   30.7124 C.ar    1  UNL1        0.0156
     19 C           4.4438   -1.0997   30.0734 C.ar    1  UNL1        0.0527
     20 O           1.6253   -0.6154   28.9801 O.co2   1  UNL1       -0.5446
     21 C           2.0842   -0.0329   30.2840 C.2     1  UNL1        0.0741
     22 O           1.2794    1.0442   30.9489 O.co2   1  UNL1       -0.5446
     23 C           3.9524   -0.4737   20.1536 C.ar    1  UNL1       -0.0186
     24 C           5.0825   -0.9605   19.2957 C.ar    1  UNL1       -0.0043
     25 C           4.9146   -1.0383   17.8072 C.ar    1  UNL1       -0.0003
     26 C           3.6165   -0.6293   17.1765 C.ar    1  UNL1       -0.0001
     27 C           2.4864   -0.1424   18.0344 C.ar    1  UNL1        0.0035
     28 C           2.6544   -0.0646   19.5229 C.ar    1  UNL1        0.0675
     29 C           1.5243    0.4222   20.3807 C.3     1  UNL1        0.4183
     30 F           0.3943    0.9091   21.2386 F       1  UNL1       -0.1659
     31 F           2.0920    1.8101   20.3410 F       1  UNL1       -0.1659
     32 F           0.9566   -0.9656   20.4205 F       1  UNL1       -0.1659
@<TRIPOS>UNITY_ATOM_ATTR
20 1
charge -1
@<TRIPOS>BOND
     1    20    21   ar
     2    21    22   ar
     3    21    13    1
     4    13    14   ar
     5    14    15   ar
     6    15    16    1
     7    15    17   ar
     8    17    18   ar
     9    18    19   ar
    10    19     1    1
    11     1     2   am
    12     2     3    2
    13     2     4   am
    14     4     5    1
    15     6     5    1
    16     6     7    1
    17     7     8    1
    18     8    23    1
    19    23    24   ar
    20    24    25   ar
    21    25    26   ar
    22    26    27   ar
    23    27    28   ar
    24    28    29    1
    25    29    30    1
    26    29    31    1
    27    29    32    1
    28     8     9    1
    29    10     9    1
    30    10    11    1
    31    19    13   ar
    32    11     4    1
    33    10     6    1
    34    28    23   ar
    35     1    12    1
@<TRIPOS>MOLECULE
*****
 32 35 0 0 0
SMALL
GASTEIGER

@<TRIPOS>ATOM
      1 N           6.2212   -3.9916   26.9157 N.am    1  UNL1       -0.2681
      2 C           6.9201   -2.9471   26.0968 C.2     1  UNL1        0.3077
      3 O           8.3737   -2.6596   26.3304 O.2     1  UNL1       -0.2522
      4 N           6.1655   -2.1901   25.0445 N.am    1  UNL1       -0.2640
      5 C           4.7166   -2.3673   24.6993 C.3     1  UNL1        0.0950
      6 C           4.3830   -1.4096   23.5940 C.3     1  UNL1        0.0219
      7 C           3.2813   -0.9273   22.6976 C.3     1  UNL1        0.0061
      8 C           3.8431    0.1399   21.8056 C.3     1  UNL1        0.0224
      9 C           5.2921    0.3170   22.1508 C.3     1  UNL1        0.0061
     10 C           5.6257   -0.6406   23.2561 C.3     1  UNL1        0.0219
     11 C           6.7274   -1.1229   24.1525 C.3     1  UNL1        0.0950
     12 H           5.2672   -4.1803   26.7624 H       1  UNL1        0.1564
     13 C           7.5132   -6.1165   27.6678 C.ar    1  UNL1        0.0283
     14 C           8.2677   -6.8735   28.7202 C.ar    1  UNL1        0.0138
     15 C           8.4848   -6.2627   30.0729 C.ar    1  UNL1        0.0578
     16 CL          9.2393   -7.0197   31.1254 Cl      1  UNL1       -0.0822
     17 C           7.9473   -4.8948   30.3732 C.ar    1  UNL1        0.0127
     18 C           7.1928   -4.1378   29.3208 C.ar    1  UNL1        0.0156
     19 C           6.9758   -4.7487   27.9681 C.ar    1  UNL1        0.0527
     20 O           6.8644   -8.1592   26.1993 O.co2   1  UNL1       -0.5446
     21 C           7.2961   -6.7273   26.3151 C.2     1  UNL1        0.0741
     22 O           7.5107   -5.9063   25.0782 O.co2   1  UNL1       -0.5446
     23 C           3.0886    0.8969   20.7532 C.ar    1  UNL1       -0.0186
     24 C           2.6809    2.3192   20.9997 C.ar    1  UNL1       -0.0043
     25 C           1.9263    3.0763   19.9473 C.ar    1  UNL1       -0.0003
     26 C           1.5794    2.4110   18.6485 C.ar    1  UNL1       -0.0001
     27 C           1.9870    0.9886   18.4020 C.ar    1  UNL1        0.0035
     28 C           2.7416    0.2316   19.4543 C.ar    1  UNL1        0.0675
     29 C           3.1492   -1.1908   19.2079 C.3     1  UNL1        0.4183
     30 F           3.5568   -2.6131   18.9615 F       1  UNL1       -0.1659
     31 F           1.8686   -1.6653   19.8284 F       1  UNL1       -0.1659
     32 F           4.4298   -0.7163   18.5875 F       1  UNL1       -0.1659
@<TRIPOS>UNITY_ATOM_ATTR
20 1
charge -1
@<TRIPOS>BOND
     1    20    21   ar
     2    21    22   ar
     3    21    13    1
     4    13    14   ar
     5    14    15   ar
     6    15    16    1
     7    15    17   ar
     8    17    18   ar
     9    18    19   ar
    10    19     1    1
    11     1     2   am
    12     2     3    2
    13     2     4   am
    14     4     5    1
    15     6     5    1
    16     6     7    1
    17     7     8    1
    18     8    23    1
    19    23    24   ar
    20    24    25   ar
    21    25    26   ar
    22    26    27   ar
    23    27    28   ar
    24    28    29    1
    25    29    30    1
    26    29    31    1
    27    29    32    1
    28     8     9    1
    29    10     9    1
    30    10    11    1
    31    19    13   ar
    32    11     4    1
    33    10     6    1
    34    28    23   ar
    35     1    12    1
@<TRIPOS>MOLECULE
*****
 32 35 0 0 0
SMALL
GASTEIGER

@<TRIPOS>ATOM
      1 N           4.0428   -0.9665   28.8689 N.am    1  UNL1       -0.2681
      2 C           4.9956   -0.2648   27.9471 C.2     1  UNL1        0.3077
      3 O           6.1735    0.4756   28.5079 O.2     1  UNL1       -0.2522
      4 N           4.7705   -0.3034   26.4646 N.am    1  UNL1       -0.2640
      5 C           3.6430   -0.9998   25.7619 C.3     1  UNL1        0.0950
      6 C           3.8091   -0.7792   24.2875 C.3     1  UNL1        0.0219
      7 C           3.2149   -1.0732   22.9420 C.3     1  UNL1        0.0061
      8 C           4.0778   -0.4223   21.9019 C.3     1  UNL1        0.0224
      9 C           5.2053    0.2740   22.6047 C.3     1  UNL1        0.0061
     10 C           5.0392    0.0535   24.0791 C.3     1  UNL1        0.0219
     11 C           5.6334    0.3475   25.4246 C.3     1  UNL1        0.0950
     12 H           3.2697   -1.4525   28.5009 H       1  UNL1        0.1564
     13 C           3.3258   -0.1633   31.2334 C.ar    1  UNL1        0.0283
     14 C           3.5509   -0.1247   32.7159 C.ar    1  UNL1        0.0138
     15 C           4.7180   -0.8509   33.3165 C.ar    1  UNL1        0.0578
     16 CL          4.9431   -0.8124   34.7990 Cl      1  UNL1       -0.0822
     17 C           5.6600   -1.6156   32.4346 C.ar    1  UNL1        0.0127
     18 C           5.4349   -1.6541   30.9520 C.ar    1  UNL1        0.0156
     19 C           4.2678   -0.9280   30.3515 C.ar    1  UNL1        0.0527
     20 O           2.0382    2.0496   30.7915 O.co2   1  UNL1       -0.5446
     21 C           2.1588    0.5629   30.6329 C.2     1  UNL1        0.0741
     22 O           1.1123   -0.1976   29.8737 O.co2   1  UNL1       -0.5446
     23 C           3.8527   -0.4609   20.4195 C.ar    1  UNL1       -0.0186
     24 C           3.1160    0.6571   19.7433 C.ar    1  UNL1       -0.0043
     25 C           2.8909    0.6185   18.2608 C.ar    1  UNL1       -0.0003
     26 C           3.4025   -0.5381   17.4544 C.ar    1  UNL1       -0.0001
     27 C           4.1393   -1.6563   18.1306 C.ar    1  UNL1        0.0035
     28 C           4.3644   -1.6176   19.6130 C.ar    1  UNL1        0.0675
     29 C           5.1011   -2.7357   20.2891 C.3     1  UNL1        0.4183
     30 F           5.8379   -3.8537   20.9653 F       1  UNL1       -0.1659
     31 F           3.8056   -3.4617   20.5001 F       1  UNL1       -0.1659
     32 F           6.3966   -2.0096   20.0781 F       1  UNL1       -0.1659
@<TRIPOS>UNITY_ATOM_ATTR
20 1
charge -1
@<TRIPOS>BOND
     1    20    21   ar
     2    21    22   ar
     3    21    13    1
     4    13    14   ar
     5    14    15   ar
     6    15    16    1
     7    15    17   ar
     8    17    18   ar
     9    18    19   ar
    10    19     1    1
    11     1     2   am
    12     2     3    2
    13     2     4   am
    14     4     5    1
    15     6     5    1
    16     6     7    1
    17     7     8    1
    18     8    23    1
    19    23    24   ar
    20    24    25   ar
    21    25    26   ar
    22    26    27   ar
    23    27    28   ar
    24    28    29    1
    25    29    30    1
    26    29    31    1
    27    29    32    1
    28     8     9    1
    29    10     9    1
    30    10    11    1
    31    19    13   ar
    32    11     4    1
    33    10     6    1
    34    28    23   ar
    35     1    12    1
