@<TRIPOS>MOLECULE
*****
 42 45 0 0 0
SMALL
GASTEIGER

@<TRIPOS>ATOM
      1 C           7.1743   -3.2749   24.7443 C.2     1  UNL1        0.2461
      2 O           7.9512   -2.5291   23.7003 O.2     1  UNL1       -0.2729
      3 N           5.7215   -3.5775   24.5246 N.am    1  UNL1       -0.2825
      4 H           5.2116   -4.0670   25.2099 H       1  UNL1        0.1549
      5 C           5.0459   -3.1342   23.2609 C.ar    1  UNL1        0.0503
      6 C           4.2662   -1.8530   23.2370 C.ar    1  UNL1        0.0144
      7 C           3.5905   -1.4097   21.9733 C.ar    1  UNL1       -0.0017
      8 C           3.6946   -2.2475   20.7335 C.ar    1  UNL1       -0.0022
      9 C           4.4743   -3.5287   20.7574 C.ar    1  UNL1        0.0700
     10 C           5.1500   -3.9721   22.0211 C.ar    1  UNL1        0.0182
     11 C           4.5784   -4.3666   19.5176 C.3     1  UNL1        0.4184
     12 F           4.6824   -5.2044   18.2778 F       1  UNL1       -0.1659
     13 F           3.3391   -5.1113   19.9169 F       1  UNL1       -0.1659
     14 F           5.8176   -3.6218   19.1183 F       1  UNL1       -0.1659
     15 C           3.0189   -1.8042   19.4698 C.3     1  UNL1        0.0992
     16 N           2.2439   -0.5202   19.4444 N.3     1  UNL1       -0.2665
     17 C           0.9453   -0.4130   20.1876 C.3     1  UNL1        0.0897
     18 C           0.1704    0.8710   20.1621 C.3     1  UNL1        0.0862
     19 N           0.6940    2.0479   19.3935 N.3     1  UNL1       -0.2951
     20 C           1.9925    1.9408   18.6504 C.3     1  UNL1        0.0862
     21 C           2.7675    0.6567   18.6758 C.3     1  UNL1        0.0897
     22 H           0.7987    2.8123   20.0607 H       1  UNL1        0.1233
     23 C           7.8499   -3.7183   26.0080 C.3     1  UNL1        0.1739
     24 N           7.0868   -4.5091   27.0288 N.pl3   1  UNL1       -0.3253
     25 H           6.8061   -5.4311   26.8281 H       1  UNL1        0.1473
     26 C           6.0800   -2.6670   31.0092 C.ar    1  UNL1        0.0016
     27 C           6.6469   -4.0543   30.9467 C.ar    1  UNL1        0.0013
     28 C           6.9825   -4.6683   29.6199 C.ar    1  UNL1        0.0143
     29 C           6.7512   -3.8950   28.3556 C.ar    1  UNL1        0.0450
     30 C           6.1843   -2.5077   28.4181 C.ar    1  UNL1        0.0143
     31 C           5.8487   -1.8937   29.7449 C.ar    1  UNL1        0.0013
     32 C           5.0732   -0.8249   34.9895 C.ar    1  UNL1        0.1342
     33 C           6.3843   -0.5152   34.3299 C.ar    1  UNL1        0.0345
     34 C           6.7199   -1.1293   33.0031 C.ar    1  UNL1        0.0044
     35 C           5.7444   -2.0529   32.3360 C.ar    1  UNL1        0.0193
     36 C           4.4333   -2.3626   32.9956 C.ar    1  UNL1        0.1003
     37 N           4.0977   -1.7485   34.3223 N.ar    1  UNL1       -0.2290
     38 C           3.6182    1.6807   37.7015 C.3     1  UNL1        0.0950
     39 C           3.9538    1.0667   36.3747 C.2     1  UNL1        0.2277
     40 O           3.5055    1.7303   35.1063 O.2     1  UNL1       -0.2747
     41 N           4.7376   -0.2108   36.3163 N.am    1  UNL1       -0.2693
     42 H           5.0318   -0.6463   37.1488 H       1  UNL1        0.1563
@<TRIPOS>BOND
     1    38    39    1
     2    39    40    2
     3    39    41   am
     4    41    32    1
     5    32    33   ar
     6    33    34   ar
     7    34    35   ar
     8    35    26    1
     9    26    27   ar
    10    27    28   ar
    11    28    29   ar
    12    29    24    1
    13    24    23    1
    14    23     1    1
    15     1     2    2
    16     1     3   am
    17     3     5    1
    18     5     6   ar
    19     6     7   ar
    20     7     8   ar
    21     8    15    1
    22    15    16    1
    23    16    17    1
    24    17    18    1
    25    18    19    1
    26    19    20    1
    27    20    21    1
    28     8     9   ar
    29     9    11    1
    30    11    12    1
    31    11    13    1
    32    11    14    1
    33     9    10   ar
    34    29    30   ar
    35    30    31   ar
    36    35    36   ar
    37    36    37   ar
    38    37    32   ar
    39    31    26   ar
    40    10     5   ar
    41    21    16    1
    42    41    42    1
    43    24    25    1
    44     3     4    1
    45    19    22    1
@<TRIPOS>MOLECULE
*****
 42 45 0 0 0
SMALL
GASTEIGER

@<TRIPOS>ATOM
      1 C           7.5382   -3.6558   24.9684 C.2     1  UNL1        0.2461
      2 O           8.1695   -2.5568   24.1660 O.2     1  UNL1       -0.2729
      3 N           6.1575   -4.1341   24.6291 N.am    1  UNL1       -0.2825
      4 H           5.7432   -4.8553   25.1558 H       1  UNL1        0.1549
      5 C           5.4082   -3.5134   23.4875 C.ar    1  UNL1        0.0503
      6 C           4.6487   -2.2366   23.6948 C.ar    1  UNL1        0.0144
      7 C           3.8994   -1.6159   22.5532 C.ar    1  UNL1       -0.0017
      8 C           3.9095   -2.2720   21.2044 C.ar    1  UNL1       -0.0022
      9 C           4.6689   -3.5489   20.9971 C.ar    1  UNL1        0.0700
     10 C           5.4183   -4.1696   22.1387 C.ar    1  UNL1        0.0182
     11 C           4.6790   -4.2050   19.6483 C.3     1  UNL1        0.4184
     12 F           4.6891   -4.8611   18.2994 F       1  UNL1       -0.1659
     13 F           5.9013   -3.4196   19.2753 F       1  UNL1       -0.1659
     14 F           3.4568   -4.9905   20.0212 F       1  UNL1       -0.1659
     15 C           3.1601   -1.6514   20.0628 C.3     1  UNL1        0.0992
     16 N           3.8492   -0.6759   19.1553 N.3     1  UNL1       -0.2665
     17 C           4.1120   -1.0398   17.7240 C.3     1  UNL1        0.0897
     18 C           4.8012   -0.0644   16.8165 C.3     1  UNL1        0.0862
     19 N           5.2276    1.2749   17.3402 N.3     1  UNL1       -0.2951
     20 C           4.9648    1.6389   18.7714 C.3     1  UNL1        0.0862
     21 C           4.2757    0.6634   19.6790 C.3     1  UNL1        0.0897
     22 H           4.7603    1.9776   16.7672 H       1  UNL1        0.1233
     23 C           8.2875   -4.2764   26.1100 C.3     1  UNL1        0.1739
     24 N           7.5394   -4.9725   27.2080 N.pl3   1  UNL1       -0.3253
     25 H           7.3638   -5.9393   27.1480 H       1  UNL1        0.1473
     26 C           6.0978   -2.6414   30.7770 C.ar    1  UNL1        0.0016
     27 C           6.0139   -2.0407   29.4051 C.ar    1  UNL1        0.0013
     28 C           6.4944   -2.8177   28.2155 C.ar    1  UNL1        0.0143
     29 C           7.0589   -4.1954   28.3977 C.ar    1  UNL1        0.0450
     30 C           7.1429   -4.7961   29.7696 C.ar    1  UNL1        0.0143
     31 C           6.6623   -4.0191   30.9592 C.ar    1  UNL1        0.0013
     32 C           4.6562   -0.3102   34.3460 C.ar    1  UNL1        0.1342
     33 C           5.7375    0.2507   33.4707 C.ar    1  UNL1        0.0345
     34 C           6.2180   -0.5263   32.2811 C.ar    1  UNL1        0.0044
     35 C           5.6173   -1.8643   31.9667 C.ar    1  UNL1        0.0193
     36 C           4.5360   -2.4253   32.8419 C.ar    1  UNL1        0.1003
     37 N           4.0555   -1.6482   34.0316 N.ar    1  UNL1       -0.2290
     38 C           4.4259    1.1439   38.0314 C.3     1  UNL1        0.0950
     39 C           4.9064    0.3668   36.8418 C.2     1  UNL1        0.2277
     40 O           6.1178   -0.5102   36.9583 O.2     1  UNL1       -0.2747
     41 N           4.1757    0.4668   35.5357 N.am    1  UNL1       -0.2693
     42 H           3.3806    1.0424   35.4592 H       1  UNL1        0.1563
@<TRIPOS>BOND
     1    38    39    1
     2    39    40    2
     3    39    41   am
     4    41    32    1
     5    32    33   ar
     6    33    34   ar
     7    34    35   ar
     8    35    26    1
     9    26    27   ar
    10    27    28   ar
    11    28    29   ar
    12    29    24    1
    13    24    23    1
    14    23     1    1
    15     1     2    2
    16     1     3   am
    17     3     5    1
    18     5     6   ar
    19     6     7   ar
    20     7     8   ar
    21     8    15    1
    22    15    16    1
    23    16    17    1
    24    17    18    1
    25    18    19    1
    26    19    20    1
    27    20    21    1
    28     8     9   ar
    29     9    11    1
    30    11    12    1
    31    11    13    1
    32    11    14    1
    33     9    10   ar
    34    29    30   ar
    35    30    31   ar
    36    35    36   ar
    37    36    37   ar
    38    37    32   ar
    39    31    26   ar
    40    10     5   ar
    41    21    16    1
    42    41    42    1
    43    24    25    1
    44     3     4    1
    45    19    22    1
@<TRIPOS>MOLECULE
*****
 42 45 0 0 0
SMALL
GASTEIGER

@<TRIPOS>ATOM
      1 C           8.2202   -5.3733   31.2296 C.2     1  UNL1        0.2461
      2 O           9.2511   -4.3809   31.6793 O.2     1  UNL1       -0.2729
      3 N           6.8004   -4.9371   31.0199 N.am    1  UNL1       -0.2825
      4 H           6.1238   -5.5885   30.7247 H       1  UNL1        0.1549
      5 C           6.4116   -3.5084   31.2598 C.ar    1  UNL1        0.0503
      6 C           6.3875   -2.5358   30.1181 C.ar    1  UNL1        0.0144
      7 C           5.9987   -1.1071   30.3580 C.ar    1  UNL1       -0.0017
      8 C           5.6340   -0.6509   31.7396 C.ar    1  UNL1       -0.0022
      9 C           5.6580   -1.6235   32.8814 C.ar    1  UNL1        0.0700
     10 C           6.0469   -3.0522   32.6415 C.ar    1  UNL1        0.0182
     11 C           5.2933   -1.1674   34.2630 C.3     1  UNL1        0.4184
     12 F           4.9285   -0.7112   35.6446 F       1  UNL1       -0.1659
     13 F           3.8755   -1.5986   34.0311 F       1  UNL1       -0.1659
     14 F           6.7111   -0.7361   34.4949 F       1  UNL1       -0.1659
     15 C           5.2451    0.7778   31.9795 C.3     1  UNL1        0.0992
     16 N           3.7979    1.1491   32.1122 N.3     1  UNL1       -0.2665
     17 C           3.2969    1.7728   33.3812 C.3     1  UNL1        0.0897
     18 C           1.8497    2.1440   33.5138 C.3     1  UNL1        0.0862
     19 N           0.9034    1.8917   32.3777 N.3     1  UNL1       -0.2951
     20 C           1.4044    1.2681   31.1088 C.3     1  UNL1        0.0862
     21 C           2.8517    0.8968   30.9760 C.3     1  UNL1        0.0897
     22 H           0.5012    2.7939   32.1235 H       1  UNL1        0.1233
     23 C           8.6091   -6.8021   30.9897 C.3     1  UNL1        0.1739
     24 N           9.2684   -7.1936   29.7005 N.pl3   1  UNL1       -0.3253
     25 H          10.0171   -7.8328   29.7048 H       1  UNL1        0.1473
     26 C           7.8240   -5.4462   25.8133 C.ar    1  UNL1        0.0016
     27 C           7.4128   -6.8328   26.2110 C.ar    1  UNL1        0.0013
     28 C           7.8942   -7.4152   27.5068 C.ar    1  UNL1        0.0143
     29 C           8.7869   -6.6111   28.4048 C.ar    1  UNL1        0.0450
     30 C           9.1981   -5.2245   28.0071 C.ar    1  UNL1        0.0143
     31 C           8.7167   -4.6421   26.7113 C.ar    1  UNL1        0.0013
     32 C           6.3797   -3.6989   21.9260 C.ar    1  UNL1        0.1342
     33 C           5.7591   -3.2638   23.2204 C.ar    1  UNL1        0.0345
     34 C           6.2405   -3.8463   24.5162 C.ar    1  UNL1        0.0044
     35 C           7.3426   -4.8638   24.5175 C.ar    1  UNL1        0.0193
     36 C           7.9632   -5.2988   23.2232 C.ar    1  UNL1        0.1003
     37 N           7.4818   -4.7164   21.9274 N.ar    1  UNL1       -0.2290
     38 C           4.2867   -3.1850   18.5936 C.3     1  UNL1        0.0950
     39 C           4.7682   -3.7674   19.8893 C.2     1  UNL1        0.2277
     40 O           4.1195   -5.0009   20.4441 O.2     1  UNL1       -0.2747
     41 N           5.8983   -3.1164   20.6303 N.am    1  UNL1       -0.2693
     42 H           6.3240   -2.3068   20.2662 H       1  UNL1        0.1563
@<TRIPOS>BOND
     1    38    39    1
     2    39    40    2
     3    39    41   am
     4    41    32    1
     5    32    33   ar
     6    33    34   ar
     7    34    35   ar
     8    35    26    1
     9    26    27   ar
    10    27    28   ar
    11    28    29   ar
    12    29    24    1
    13    24    23    1
    14    23     1    1
    15     1     2    2
    16     1     3   am
    17     3     5    1
    18     5     6   ar
    19     6     7   ar
    20     7     8   ar
    21     8    15    1
    22    15    16    1
    23    16    17    1
    24    17    18    1
    25    18    19    1
    26    19    20    1
    27    20    21    1
    28     8     9   ar
    29     9    11    1
    30    11    12    1
    31    11    13    1
    32    11    14    1
    33     9    10   ar
    34    29    30   ar
    35    30    31   ar
    36    35    36   ar
    37    36    37   ar
    38    37    32   ar
    39    31    26   ar
    40    10     5   ar
    41    21    16    1
    42    41    42    1
    43    24    25    1
    44     3     4    1
    45    19    22    1
@<TRIPOS>MOLECULE
*****
 42 45 0 0 0
SMALL
GASTEIGER

@<TRIPOS>ATOM
      1 C           4.0959    1.0011   25.9902 C.2     1  UNL1        0.2461
      2 O           5.0400    1.6395   25.0150 O.2     1  UNL1       -0.2729
      3 N           3.1450   -0.0626   25.5270 N.am    1  UNL1       -0.2825
      4 H           2.5253   -0.4816   26.1671 H       1  UNL1        0.1549
      5 C           3.1382   -0.4878   24.0886 C.ar    1  UNL1        0.0503
      6 C           3.9314   -1.6854   23.6567 C.ar    1  UNL1        0.0144
      7 C           3.9246   -2.1105   22.2182 C.ar    1  UNL1       -0.0017
      8 C           3.1245   -1.3381   21.2116 C.ar    1  UNL1       -0.0022
      9 C           2.3313   -0.1405   21.6435 C.ar    1  UNL1        0.0700
     10 C           2.3381    0.2847   23.0819 C.ar    1  UNL1        0.0182
     11 C           1.5312    0.6319   20.6369 C.3     1  UNL1        0.4184
     12 F           0.7312    1.4043   19.6303 F       1  UNL1       -0.1659
     13 F           2.7013    1.5413   20.4047 F       1  UNL1       -0.1659
     14 F           0.3611   -0.2774   20.8691 F       1  UNL1       -0.1659
     15 C           3.1177   -1.7633   19.7732 C.3     1  UNL1        0.0992
     16 N           4.2835   -1.4347   18.8884 N.3     1  UNL1       -0.2665
     17 C           5.5200   -2.2829   18.9309 C.3     1  UNL1        0.0897
     18 C           6.6858   -1.9543   18.0462 C.3     1  UNL1        0.0862
     19 N           6.6152   -0.7774   17.1189 N.3     1  UNL1       -0.2951
     20 C           5.3789    0.0709   17.0763 C.3     1  UNL1        0.0862
     21 C           4.2130   -0.2577   17.9611 C.3     1  UNL1        0.0897
     22 H           6.7582   -1.1371   16.1752 H       1  UNL1        0.1233
     23 C           4.1027    1.4262   27.4287 C.3     1  UNL1        0.1739
     24 N           3.3332    2.6410   27.8553 N.pl3   1  UNL1       -0.3253
     25 H           3.7485    3.3008   28.4565 H       1  UNL1        0.1473
     26 C          -0.8741    3.2695   26.3876 C.ar    1  UNL1        0.0016
     27 C          -0.6047    2.2993   27.4994 C.ar    1  UNL1        0.0013
     28 C           0.7977    2.0898   27.9886 C.ar    1  UNL1        0.0143
     29 C           1.9308    2.8505   27.3661 C.ar    1  UNL1        0.0450
     30 C           1.6614    3.8207   26.2543 C.ar    1  UNL1        0.0143
     31 C           0.2590    4.0302   25.7651 C.ar    1  UNL1        0.0013
     32 C          -5.0813    3.8981   24.9199 C.ar    1  UNL1        0.1342
     33 C          -3.9738    3.6511   23.9389 C.ar    1  UNL1        0.0345
     34 C          -2.5714    3.4415   24.4282 C.ar    1  UNL1        0.0044
     35 C          -2.2765    3.4791   25.8984 C.ar    1  UNL1        0.0193
     36 C          -3.3840    3.7261   26.8793 C.ar    1  UNL1        0.1003
     37 N          -4.7864    3.9356   26.3901 N.ar    1  UNL1       -0.2290
     38 C          -8.5139    5.6769   24.0239 C.3     1  UNL1        0.0950
     39 C          -7.1115    5.4674   24.5131 C.2     1  UNL1        0.2277
     40 O          -6.3369    6.6177   25.0848 O.2     1  UNL1       -0.2747
     41 N          -6.4837    4.1076   24.4306 N.am    1  UNL1       -0.2693
     42 H          -6.9921    3.3526   24.0554 H       1  UNL1        0.1563
@<TRIPOS>BOND
     1    38    39    1
     2    39    40    2
     3    39    41   am
     4    41    32    1
     5    32    33   ar
     6    33    34   ar
     7    34    35   ar
     8    35    26    1
     9    26    27   ar
    10    27    28   ar
    11    28    29   ar
    12    29    24    1
    13    24    23    1
    14    23     1    1
    15     1     2    2
    16     1     3   am
    17     3     5    1
    18     5     6   ar
    19     6     7   ar
    20     7     8   ar
    21     8    15    1
    22    15    16    1
    23    16    17    1
    24    17    18    1
    25    18    19    1
    26    19    20    1
    27    20    21    1
    28     8     9   ar
    29     9    11    1
    30    11    12    1
    31    11    13    1
    32    11    14    1
    33     9    10   ar
    34    29    30   ar
    35    30    31   ar
    36    35    36   ar
    37    36    37   ar
    38    37    32   ar
    39    31    26   ar
    40    10     5   ar
    41    21    16    1
    42    41    42    1
    43    24    25    1
    44     3     4    1
    45    19    22    1
@<TRIPOS>MOLECULE
*****
 42 45 0 0 0
SMALL
GASTEIGER

@<TRIPOS>ATOM
      1 C          -0.1149    2.3304   21.1965 C.2     1  UNL1        0.2461
      2 O           1.1316    3.1406   20.9971 O.2     1  UNL1       -0.2729
      3 N          -0.1976    0.9351   20.6520 N.am    1  UNL1       -0.2825
      4 H          -1.0157    0.4033   20.7828 H       1  UNL1        0.1549
      5 C           0.9662    0.3501   19.9081 C.ar    1  UNL1        0.0503
      6 C           1.4003    0.9495   18.6034 C.ar    1  UNL1        0.0144
      7 C           2.5641    0.3645   17.8596 C.ar    1  UNL1       -0.0017
      8 C           3.2939   -0.8199   18.4204 C.ar    1  UNL1       -0.0022
      9 C           2.8598   -1.4193   19.7252 C.ar    1  UNL1        0.0700
     10 C           1.6960   -0.8343   20.4691 C.ar    1  UNL1        0.0182
     11 C           3.5896   -2.6037   20.2861 C.3     1  UNL1        0.4184
     12 F           4.3194   -3.7881   20.8469 F       1  UNL1       -0.1659
     13 F           4.3325   -1.7010   21.2258 F       1  UNL1       -0.1659
     14 F           2.8468   -3.5065   19.3463 F       1  UNL1       -0.1659
     15 C           4.4577   -1.4049   17.6766 C.3     1  UNL1        0.0992
     16 N           5.8517   -0.9433   17.9822 N.3     1  UNL1       -0.2665
     17 C           6.2969    0.4266   17.5636 C.3     1  UNL1        0.0897
     18 C           7.6910    0.8882   17.8693 C.3     1  UNL1        0.0862
     19 N           8.6399   -0.0200   18.5936 N.3     1  UNL1       -0.2951
     20 C           8.1948   -1.3899   19.0122 C.3     1  UNL1        0.0862
     21 C           6.8006   -1.8515   18.7066 C.3     1  UNL1        0.0897
     22 H           8.9256    0.4688   19.4420 H       1  UNL1        0.1233
     23 C          -1.2787    2.9154   21.9403 C.3     1  UNL1        0.1739
     24 N          -1.0491    3.6824   23.2088 N.pl3   1  UNL1       -0.3253
     25 H          -1.3229    4.6261   23.2698 H       1  UNL1        0.1473
     26 C           0.8912    1.6700   26.7352 C.ar    1  UNL1        0.0016
     27 C           1.7397    2.2628   25.6496 C.ar    1  UNL1        0.0013
     28 C           1.0929    2.9336   24.4741 C.ar    1  UNL1        0.0143
     29 C          -0.4023    3.0116   24.3842 C.ar    1  UNL1        0.0450
     30 C          -1.2508    2.4187   25.4698 C.ar    1  UNL1        0.0143
     31 C          -0.6040    1.7479   26.6453 C.ar    1  UNL1        0.0013
     32 C           2.8315   -0.3425   30.2616 C.ar    1  UNL1        0.1342
     33 C           3.6783    0.3341   29.2247 C.ar    1  UNL1        0.0345
     34 C           3.0315    1.0049   28.0492 C.ar    1  UNL1        0.0044
     35 C           1.5380    0.9991   27.9106 C.ar    1  UNL1        0.0193
     36 C           0.6912    0.3226   28.9475 C.ar    1  UNL1        0.1003
     37 N           1.3379   -0.3482   30.1230 N.ar    1  UNL1       -0.2290
     38 C           4.2590   -0.9510   33.9142 C.3     1  UNL1        0.0950
     39 C           3.6122   -0.2802   32.7388 C.2     1  UNL1        0.2277
     40 O           3.0994    1.1239   32.8651 O.2     1  UNL1       -0.2747
     41 N           3.4782   -1.0133   31.4370 N.am    1  UNL1       -0.2693
     42 H           3.8148   -1.9348   31.3542 H       1  UNL1        0.1563
@<TRIPOS>BOND
     1    38    39    1
     2    39    40    2
     3    39    41   am
     4    41    32    1
     5    32    33   ar
     6    33    34   ar
     7    34    35   ar
     8    35    26    1
     9    26    27   ar
    10    27    28   ar
    11    28    29   ar
    12    29    24    1
    13    24    23    1
    14    23     1    1
    15     1     2    2
    16     1     3   am
    17     3     5    1
    18     5     6   ar
    19     6     7   ar
    20     7     8   ar
    21     8    15    1
    22    15    16    1
    23    16    17    1
    24    17    18    1
    25    18    19    1
    26    19    20    1
    27    20    21    1
    28     8     9   ar
    29     9    11    1
    30    11    12    1
    31    11    13    1
    32    11    14    1
    33     9    10   ar
    34    29    30   ar
    35    30    31   ar
    36    35    36   ar
    37    36    37   ar
    38    37    32   ar
    39    31    26   ar
    40    10     5   ar
    41    21    16    1
    42    41    42    1
    43    24    25    1
    44     3     4    1
    45    19    22    1
@<TRIPOS>MOLECULE
*****
 42 45 0 0 0
SMALL
GASTEIGER

@<TRIPOS>ATOM
      1 C           5.8508   -3.7565   20.6932 C.2     1  UNL1        0.2461
      2 O           7.2710   -3.2740   20.6750 O.2     1  UNL1       -0.2729
      3 N           5.1509   -3.9790   22.0012 N.am    1  UNL1       -0.2825
      4 H           4.2188   -4.2957   22.0131 H       1  UNL1        0.1549
      5 C           5.8713   -3.7191   23.2909 C.ar    1  UNL1        0.0503
      6 C           7.0323   -4.5815   23.6886 C.ar    1  UNL1        0.0144
      7 C           7.7527   -4.3216   24.9783 C.ar    1  UNL1       -0.0017
      8 C           7.3120   -3.1992   25.8705 C.ar    1  UNL1       -0.0022
      9 C           6.1509   -2.3367   25.4729 C.ar    1  UNL1        0.0700
     10 C           5.4306   -2.5966   24.1831 C.ar    1  UNL1        0.0182
     11 C           5.7102   -1.2143   26.3651 C.3     1  UNL1        0.4184
     12 F           5.2695   -0.0919   27.2572 F       1  UNL1       -0.1659
     13 F           4.7830   -2.1493   27.0834 F       1  UNL1       -0.1659
     14 F           6.6374   -0.2793   25.6468 F       1  UNL1       -0.1659
     15 C           8.0324   -2.9393   27.1603 C.3     1  UNL1        0.0992
     16 N           7.5627   -3.5922   28.4264 N.3     1  UNL1       -0.2665
     17 C           7.6561   -5.0812   28.5817 C.3     1  UNL1        0.0897
     18 C           7.1865   -5.7341   29.8478 C.3     1  UNL1        0.0862
     19 N           6.6235   -4.8981   30.9587 N.3     1  UNL1       -0.2951
     20 C           6.5301   -3.4091   30.8034 C.3     1  UNL1        0.0862
     21 C           6.9997   -2.7561   29.5372 C.3     1  UNL1        0.0897
     22 H           7.2015   -5.0727   31.7807 H       1  UNL1        0.1233
     23 C           5.1305   -4.0164   19.4034 C.3     1  UNL1        0.1739
     24 N           4.9375   -2.9049   18.4149 N.pl3   1  UNL1       -0.3253
     25 H           5.4905   -2.8682   17.6012 H       1  UNL1        0.1473
     26 C           1.8309    0.2623   19.1685 C.ar    1  UNL1        0.0016
     27 C           1.9260   -0.9265   20.0783 C.ar    1  UNL1        0.0013
     28 C           2.9616   -1.9822   19.8271 C.ar    1  UNL1        0.0143
     29 C           3.9020   -1.8492   18.6661 C.ar    1  UNL1        0.0450
     30 C           3.8068   -0.6604   17.7564 C.ar    1  UNL1        0.0143
     31 C           2.7713    0.3953   18.0076 C.ar    1  UNL1        0.0013
     32 C          -1.2757    3.4295   19.9222 C.ar    1  UNL1        0.1342
     33 C          -0.5711    3.3698   18.5994 C.ar    1  UNL1        0.0345
     34 C           0.4644    2.3141   18.3482 C.ar    1  UNL1        0.0044
     35 C           0.7953    1.3180   19.4198 C.ar    1  UNL1        0.0193
     36 C           0.0907    1.3777   20.7426 C.ar    1  UNL1        0.1003
     37 N          -0.9449    2.4334   20.9938 N.ar    1  UNL1       -0.2290
     38 C          -4.7147    5.1514   20.9013 C.3     1  UNL1        0.0950
     39 C          -3.6791    4.0957   20.6501 C.2     1  UNL1        0.2277
     40 O          -4.0115    2.6504   20.8756 O.2     1  UNL1       -0.2747
     41 N          -2.3113    4.4852   20.1734 N.am    1  UNL1       -0.2693
     42 H          -2.0932    5.4337   20.0254 H       1  UNL1        0.1563
@<TRIPOS>BOND
     1    38    39    1
     2    39    40    2
     3    39    41   am
     4    41    32    1
     5    32    33   ar
     6    33    34   ar
     7    34    35   ar
     8    35    26    1
     9    26    27   ar
    10    27    28   ar
    11    28    29   ar
    12    29    24    1
    13    24    23    1
    14    23     1    1
    15     1     2    2
    16     1     3   am
    17     3     5    1
    18     5     6   ar
    19     6     7   ar
    20     7     8   ar
    21     8    15    1
    22    15    16    1
    23    16    17    1
    24    17    18    1
    25    18    19    1
    26    19    20    1
    27    20    21    1
    28     8     9   ar
    29     9    11    1
    30    11    12    1
    31    11    13    1
    32    11    14    1
    33     9    10   ar
    34    29    30   ar
    35    30    31   ar
    36    35    36   ar
    37    36    37   ar
    38    37    32   ar
    39    31    26   ar
    40    10     5   ar
    41    21    16    1
    42    41    42    1
    43    24    25    1
    44     3     4    1
    45    19    22    1
@<TRIPOS>MOLECULE
*****
 42 45 0 0 0
SMALL
GASTEIGER

@<TRIPOS>ATOM
      1 C           5.2110   -3.5760   21.6561 C.2     1  UNL1        0.2461
      2 O           4.3326   -3.5923   22.8719 O.2     1  UNL1       -0.2729
      3 N           6.6901   -3.7824   21.7967 N.am    1  UNL1       -0.2825
      4 H           7.2666   -3.7717   20.9987 H       1  UNL1        0.1549
      5 C           7.2907   -4.0052   23.1530 C.ar    1  UNL1        0.0503
      6 C           7.7698   -2.8366   23.9622 C.ar    1  UNL1        0.0144
      7 C           8.3704   -3.0594   25.3186 C.ar    1  UNL1       -0.0017
      8 C           8.4919   -4.4507   25.8657 C.ar    1  UNL1       -0.0022
      9 C           8.0128   -5.6194   25.0565 C.ar    1  UNL1        0.0700
     10 C           7.4122   -5.3966   23.7001 C.ar    1  UNL1        0.0182
     11 C           8.1343   -7.0107   25.6036 C.3     1  UNL1        0.4184
     12 F           8.2558   -8.4021   26.1507 F       1  UNL1       -0.1659
     13 F           6.7781   -6.8822   26.2315 F       1  UNL1       -0.1659
     14 F           9.4904   -7.1392   24.9757 F       1  UNL1       -0.1659
     15 C           9.0925   -4.6735   27.2220 C.3     1  UNL1        0.0992
     16 N           8.2279   -4.6040   28.4458 N.3     1  UNL1       -0.2665
     17 C           7.6951   -3.2821   28.9136 C.3     1  UNL1        0.0897
     18 C           6.8305   -3.2126   30.1373 C.3     1  UNL1        0.0862
     19 N           6.4986   -4.4649   30.8933 N.3     1  UNL1       -0.2951
     20 C           7.0314   -5.7868   30.4255 C.3     1  UNL1        0.0862
     21 C           7.8960   -5.8563   29.2017 C.3     1  UNL1        0.0897
     22 H           5.4817   -4.5434   30.9010 H       1  UNL1        0.1233
     23 C           4.6104   -3.3532   20.2998 C.3     1  UNL1        0.1739
     24 N           4.8307   -2.0522   19.5865 N.pl3   1  UNL1       -0.3253
     25 H           5.7050   -1.8566   19.1783 H       1  UNL1        0.1473
     26 C           1.4957    0.9565   19.3123 C.ar    1  UNL1        0.0016
     27 C           1.3354   -0.2649   20.1681 C.ar    1  UNL1        0.0013
     28 C           2.4471   -1.2678   20.2595 C.ar    1  UNL1        0.0143
     29 C           3.7190   -1.0493   19.4951 C.ar    1  UNL1        0.0450
     30 C           3.8793    0.1721   18.6393 C.ar    1  UNL1        0.0143
     31 C           2.7677    1.1750   18.5479 C.ar    1  UNL1        0.0013
     32 C          -1.8393    3.9653   19.0382 C.ar    1  UNL1        0.1342
     33 C          -0.8998    3.7798   17.8837 C.ar    1  UNL1        0.0345
     34 C           0.2119    2.7769   17.9751 C.ar    1  UNL1        0.0044
     35 C           0.3840    1.9594   19.2210 C.ar    1  UNL1        0.0193
     36 C          -0.5555    2.1449   20.3754 C.ar    1  UNL1        0.1003
     37 N          -1.6672    3.1478   20.2840 N.ar    1  UNL1       -0.2290
     38 C          -5.2930    5.6563   18.0573 C.3     1  UNL1        0.0950
     39 C          -4.1814    4.6534   18.1487 C.2     1  UNL1        0.2277
     40 O          -4.3001    3.3357   17.4419 O.2     1  UNL1       -0.2747
     41 N          -2.9510    4.9682   18.9468 N.am    1  UNL1       -0.2693
     42 H          -2.8731    5.8330   19.4107 H       1  UNL1        0.1563
@<TRIPOS>BOND
     1    38    39    1
     2    39    40    2
     3    39    41   am
     4    41    32    1
     5    32    33   ar
     6    33    34   ar
     7    34    35   ar
     8    35    26    1
     9    26    27   ar
    10    27    28   ar
    11    28    29   ar
    12    29    24    1
    13    24    23    1
    14    23     1    1
    15     1     2    2
    16     1     3   am
    17     3     5    1
    18     5     6   ar
    19     6     7   ar
    20     7     8   ar
    21     8    15    1
    22    15    16    1
    23    16    17    1
    24    17    18    1
    25    18    19    1
    26    19    20    1
    27    20    21    1
    28     8     9   ar
    29     9    11    1
    30    11    12    1
    31    11    13    1
    32    11    14    1
    33     9    10   ar
    34    29    30   ar
    35    30    31   ar
    36    35    36   ar
    37    36    37   ar
    38    37    32   ar
    39    31    26   ar
    40    10     5   ar
    41    21    16    1
    42    41    42    1
    43    24    25    1
    44     3     4    1
    45    19    22    1
@<TRIPOS>MOLECULE
*****
 42 45 0 0 0
SMALL
GASTEIGER

@<TRIPOS>ATOM
      1 C           1.7817    0.2765   18.9863 C.2     1  UNL1        0.2461
      2 O           1.3797   -0.5591   20.1653 O.2     1  UNL1       -0.2729
      3 N           3.1278    0.0823   18.3534 N.am    1  UNL1       -0.2825
      4 H           3.3917    0.6308   17.5796 H       1  UNL1        0.1549
      5 C           4.0718   -0.9475   18.8996 C.ar    1  UNL1        0.0503
      6 C           5.4247   -0.5349   19.3990 C.ar    1  UNL1        0.0144
      7 C           6.3687   -1.5647   19.9452 C.ar    1  UNL1       -0.0017
      8 C           5.9598   -3.0071   19.9921 C.ar    1  UNL1       -0.0022
      9 C           4.6069   -3.4197   19.4927 C.ar    1  UNL1        0.0700
     10 C           3.6629   -2.3899   18.9465 C.ar    1  UNL1        0.0182
     11 C           4.1980   -4.8621   19.5396 C.3     1  UNL1        0.4184
     12 F           3.7891   -6.3045   19.5864 F       1  UNL1       -0.1659
     13 F           3.6702   -4.6674   20.9300 F       1  UNL1       -0.1659
     14 F           4.7258   -5.0569   18.1491 F       1  UNL1       -0.1659
     15 C           6.9038   -4.0369   20.5383 C.3     1  UNL1        0.0992
     16 N           7.0534   -4.2056   22.0212 N.3     1  UNL1       -0.2665
     17 C           8.2470   -4.9239   22.5778 C.3     1  UNL1        0.0897
     18 C           8.3966   -5.0926   24.0607 C.3     1  UNL1        0.0862
     19 N           7.3527   -4.5432   24.9871 N.3     1  UNL1       -0.2951
     20 C           6.1592   -3.8250   24.4307 C.3     1  UNL1        0.0862
     21 C           6.0095   -3.6562   22.9477 C.3     1  UNL1        0.0897
     22 H           7.8265   -3.8886   25.6095 H       1  UNL1        0.1233
     23 C           0.8377    1.3063   18.4400 C.3     1  UNL1        0.1739
     24 N           0.8392    2.6975   19.0008 N.pl3   1  UNL1       -0.3253
     25 H           1.5363    3.3372   18.7288 H       1  UNL1        0.1473
     26 C          -2.3432    3.9473   21.9267 C.ar    1  UNL1        0.0016
     27 C          -1.1013    3.2632   22.4162 C.ar    1  UNL1        0.0013
     28 C          -0.0405    2.8466   21.4409 C.ar    1  UNL1        0.0143
     29 C          -0.2216    3.1141   19.9761 C.ar    1  UNL1        0.0450
     30 C          -1.4635    3.7982   19.4867 C.ar    1  UNL1        0.0143
     31 C          -2.5243    4.2149   20.4619 C.ar    1  UNL1        0.0013
     32 C          -5.5255    5.1972   24.8526 C.ar    1  UNL1        0.1342
     33 C          -5.1583    3.7492   24.7170 C.ar    1  UNL1        0.0345
     34 C          -4.0975    3.3326   23.7417 C.ar    1  UNL1        0.0044
     35 C          -3.4039    4.3639   22.9020 C.ar    1  UNL1        0.0193
     36 C          -3.7711    5.8119   23.0376 C.ar    1  UNL1        0.1003
     37 N          -4.8319    6.2285   24.0129 N.ar    1  UNL1       -0.2290
     38 C          -7.2911    6.2738   28.2398 C.3     1  UNL1        0.0950
     39 C          -6.2303    5.8572   27.2645 C.2     1  UNL1        0.2277
     40 O          -4.8136    5.6839   27.7260 O.2     1  UNL1       -0.2747
     41 N          -6.5863    5.6138   25.8279 N.am    1  UNL1       -0.2693
     42 H          -7.5161    5.7274   25.5250 H       1  UNL1        0.1563
@<TRIPOS>BOND
     1    38    39    1
     2    39    40    2
     3    39    41   am
     4    41    32    1
     5    32    33   ar
     6    33    34   ar
     7    34    35   ar
     8    35    26    1
     9    26    27   ar
    10    27    28   ar
    11    28    29   ar
    12    29    24    1
    13    24    23    1
    14    23     1    1
    15     1     2    2
    16     1     3   am
    17     3     5    1
    18     5     6   ar
    19     6     7   ar
    20     7     8   ar
    21     8    15    1
    22    15    16    1
    23    16    17    1
    24    17    18    1
    25    18    19    1
    26    19    20    1
    27    20    21    1
    28     8     9   ar
    29     9    11    1
    30    11    12    1
    31    11    13    1
    32    11    14    1
    33     9    10   ar
    34    29    30   ar
    35    30    31   ar
    36    35    36   ar
    37    36    37   ar
    38    37    32   ar
    39    31    26   ar
    40    10     5   ar
    41    21    16    1
    42    41    42    1
    43    24    25    1
    44     3     4    1
    45    19    22    1
@<TRIPOS>MOLECULE
*****
 42 45 0 0 0
SMALL
GASTEIGER

@<TRIPOS>ATOM
      1 C           5.3589   -4.0403   19.8351 C.2     1  UNL1        0.2461
      2 O           4.6126   -4.7525   20.9239 O.2     1  UNL1       -0.2729
      3 N           6.7885   -3.6374   20.0453 N.am    1  UNL1       -0.2825
      4 H           7.2784   -3.1700   19.3306 H       1  UNL1        0.1549
      5 C           7.4716   -3.9467   21.3444 C.ar    1  UNL1        0.0503
      6 C           8.6307   -4.8983   21.3743 C.ar    1  UNL1        0.0144
      7 C           9.3138   -5.2076   22.6735 C.ar    1  UNL1       -0.0017
      8 C           8.8378   -4.5654   23.9426 C.ar    1  UNL1       -0.0022
      9 C           7.6786   -3.6138   23.9128 C.ar    1  UNL1        0.0700
     10 C           6.9955   -3.3045   22.6137 C.ar    1  UNL1        0.0182
     11 C           7.2026   -2.9716   25.1820 C.3     1  UNL1        0.4184
     12 F           6.7265   -2.3294   26.4512 F       1  UNL1       -0.1659
     13 F           8.1105   -1.8041   24.9318 F       1  UNL1       -0.1659
     14 F           6.2946   -4.1390   25.4321 F       1  UNL1       -0.1659
     15 C           9.5209   -4.8747   25.2418 C.3     1  UNL1        0.0992
     16 N           8.9799   -5.9506   26.1360 N.3     1  UNL1       -0.2665
     17 C           8.0721   -7.0053   25.5760 C.3     1  UNL1        0.0897
     18 C           7.5311   -8.0812   26.4702 C.3     1  UNL1        0.0862
     19 N           7.8978   -8.1025   27.9246 N.3     1  UNL1       -0.2951
     20 C           8.8056   -7.0478   28.4846 C.3     1  UNL1        0.0862
     21 C           9.3466   -5.9719   27.5903 C.3     1  UNL1        0.0897
     22 H           8.3461   -9.0013   28.1021 H       1  UNL1        0.1233
     23 C           4.6758   -3.7310   18.5360 C.3     1  UNL1        0.1739
     24 N           4.6799   -2.3294   18.0016 N.pl3   1  UNL1       -0.3253
     25 H           5.3569   -2.0565   17.3409 H       1  UNL1        0.1473
     26 C           1.5979    0.6277   19.4179 C.ar    1  UNL1        0.0016
     27 C           1.7697   -0.6782   20.1355 C.ar    1  UNL1        0.0013
     28 C           2.7971   -1.6639   19.6634 C.ar    1  UNL1        0.0143
     29 C           3.6526   -1.3437   18.4737 C.ar    1  UNL1        0.0450
     30 C           3.4808   -0.0378   17.7561 C.ar    1  UNL1        0.0143
     31 C           2.4534    0.9479   18.2282 C.ar    1  UNL1        0.0013
     32 C          -1.4842    3.5849   20.8343 C.ar    1  UNL1        0.1342
     33 C          -1.0228    3.6080   19.4072 C.ar    1  UNL1        0.0345
     34 C           0.0046    2.6223   18.9351 C.ar    1  UNL1        0.0044
     35 C           0.5705    1.6135   19.8900 C.ar    1  UNL1        0.0193
     36 C           0.1091    1.5904   21.3171 C.ar    1  UNL1        0.1003
     37 N          -0.9182    2.5761   21.7892 N.ar    1  UNL1       -0.2290
     38 C          -4.9580    5.1181   21.9884 C.3     1  UNL1        0.0950
     39 C          -3.9306    4.1324   21.5163 C.2     1  UNL1        0.2277
     40 O          -4.3224    2.7083   21.2540 O.2     1  UNL1       -0.2747
     41 N          -2.5115    4.5706   21.3064 N.am    1  UNL1       -0.2693
     42 H          -2.2544    5.5052   21.4785 H       1  UNL1        0.1563
@<TRIPOS>BOND
     1    38    39    1
     2    39    40    2
     3    39    41   am
     4    41    32    1
     5    32    33   ar
     6    33    34   ar
     7    34    35   ar
     8    35    26    1
     9    26    27   ar
    10    27    28   ar
    11    28    29   ar
    12    29    24    1
    13    24    23    1
    14    23     1    1
    15     1     2    2
    16     1     3   am
    17     3     5    1
    18     5     6   ar
    19     6     7   ar
    20     7     8   ar
    21     8    15    1
    22    15    16    1
    23    16    17    1
    24    17    18    1
    25    18    19    1
    26    19    20    1
    27    20    21    1
    28     8     9   ar
    29     9    11    1
    30    11    12    1
    31    11    13    1
    32    11    14    1
    33     9    10   ar
    34    29    30   ar
    35    30    31   ar
    36    35    36   ar
    37    36    37   ar
    38    37    32   ar
    39    31    26   ar
    40    10     5   ar
    41    21    16    1
    42    41    42    1
    43    24    25    1
    44     3     4    1
    45    19    22    1
