@<TRIPOS>MOLECULE
*****
 22 24 0 0 0
SMALL
GASTEIGER

@<TRIPOS>ATOM
      1 N          -6.8953  -18.8006   21.6227 N.pl3   1  UNL1       -0.2166
      2 H          -6.8293  -18.1843   20.8577 H       1  UNL1        0.2923
      3 C          -8.2363  -19.1231   22.2124 C.2     1  UNL1        0.3276
      4 N          -8.3530  -20.1658   23.2844 N.2     1  UNL1       -0.0164
      5 C          -9.6940  -20.4882   23.8741 C.2     1  UNL1        0.3383
      6 N         -10.9182  -19.7681   23.3918 N.2     1  UNL1       -0.2017
      7 C         -10.8015  -18.7254   22.3198 C.2     1  UNL1        0.0940
      8 C         -11.8239  -17.8571   21.6486 C.2     1  UNL1        0.0075
      9 C         -13.2969  -17.8493   21.9321 C.3     1  UNL1        0.0336
     10 C         -11.1149  -16.9979   20.6440 C.2     1  UNL1        0.0523
     11 C         -11.7543  -15.9801   19.7466 C.3     1  UNL1        0.0514
     12 N          -9.6542  -17.3352   20.6944 N.2     1  UNL1       -0.2589
     13 C          -9.4605  -18.4029   21.7301 C.3     1  UNL1        0.2471
     14 C          -5.6549  -19.4170   22.1984 C.3     1  UNL1        0.2258
     15 C          -4.1904  -20.6660   19.8973 C.3     1  UNL1        0.0308
     16 C          -3.5728  -19.5237   20.6481 C.ar    1  UNL1       -0.0223
     17 C          -2.2229  -19.0059   20.2484 C.ar    1  UNL1       -0.0045
     18 C          -1.6053  -17.8637   20.9993 C.ar    1  UNL1       -0.0007
     19 C          -2.3376  -17.2392   22.1499 C.ar    1  UNL1       -0.0045
     20 C          -3.6874  -17.7569   22.5496 C.ar    1  UNL1       -0.0223
     21 C          -4.4197  -17.1325   23.7001 C.3     1  UNL1        0.0308
     22 C          -4.3051  -18.8993   21.7987 C.ar    1  UNL1        0.0162
@<TRIPOS>BOND
     1    15    16    1
     2    16    17   ar
     3    17    18   ar
     4    18    19   ar
     5    19    20   ar
     6    20    21    1
     7    20    22   ar
     8    22    14    1
     9    14     1    1
    10     1     3    1
    11     3     4    2
    12     4     5    1
    13     5     6    2
    14     6     7    1
    15     7     8    2
    16     8     9    1
    17     8    10    1
    18    10    11    1
    19    10    12    2
    20    12    13    1
    21    22    16   ar
    22    13     3    1
    23    13     7    1
    24     1     2    1
@<TRIPOS>MOLECULE
*****
 22 24 0 0 0
SMALL
GASTEIGER

@<TRIPOS>ATOM
      1 N          -6.9246  -18.7535   21.7011 N.pl3   1  UNL1       -0.2166
      2 H          -6.8470  -18.1207   20.9509 H       1  UNL1        0.2923
      3 C          -8.2745  -19.0899   22.2619 C.2     1  UNL1        0.3276
      4 N          -8.4049  -20.1423   23.3228 N.2     1  UNL1       -0.0164
      5 C          -9.7548  -20.4787   23.8836 C.2     1  UNL1        0.3383
      6 N         -10.9744  -19.7627   23.3835 N.2     1  UNL1       -0.2017
      7 C         -10.8440  -18.7103   22.3226 C.2     1  UNL1        0.0940
      8 C         -11.8592  -17.8433   21.6388 C.2     1  UNL1        0.0075
      9 C         -13.3373  -17.8477   21.8937 C.3     1  UNL1        0.0336
     10 C         -11.1366  -16.9710   20.6553 C.2     1  UNL1        0.0523
     11 C         -11.7655  -15.9500   19.7541 C.3     1  UNL1        0.0514
     12 N          -9.6749  -17.2990   20.7314 N.2     1  UNL1       -0.2589
     13 C          -9.4941  -18.3740   21.7618 C.3     1  UNL1        0.2471
     14 C          -5.6929  -19.3812   22.2833 C.3     1  UNL1        0.2258
     15 C          -4.3886  -17.1381   23.7890 C.3     1  UNL1        0.0308
     16 C          -3.6837  -17.7700   22.6255 C.ar    1  UNL1       -0.0223
     17 C          -2.3266  -17.2804   22.2148 C.ar    1  UNL1       -0.0045
     18 C          -1.6217  -17.9124   21.0513 C.ar    1  UNL1       -0.0007
     19 C          -2.2739  -19.0339   20.2985 C.ar    1  UNL1       -0.0045
     20 C          -3.6309  -19.5236   20.7091 C.ar    1  UNL1       -0.0223
     21 C          -4.2831  -20.6451   19.9563 C.3     1  UNL1        0.0308
     22 C          -4.3359  -18.8916   21.8727 C.ar    1  UNL1        0.0162
@<TRIPOS>BOND
     1    15    16    1
     2    16    17   ar
     3    17    18   ar
     4    18    19   ar
     5    19    20   ar
     6    20    21    1
     7    20    22   ar
     8    22    14    1
     9    14     1    1
    10     1     3    1
    11     3     4    2
    12     4     5    1
    13     5     6    2
    14     6     7    1
    15     7     8    2
    16     8     9    1
    17     8    10    1
    18    10    11    1
    19    10    12    2
    20    12    13    1
    21    22    16   ar
    22    13     3    1
    23    13     7    1
    24     1     2    1
@<TRIPOS>MOLECULE
*****
 22 24 0 0 0
SMALL
GASTEIGER

@<TRIPOS>ATOM
      1 N          -9.8539  -20.2901   23.0027 N.pl3   1  UNL1       -0.2166
      2 H          -9.8947  -20.8769   23.7922 H       1  UNL1        0.2923
      3 C          -8.5920  -19.5425   22.6884 C.2     1  UNL1        0.3276
      4 N          -7.6107  -20.1074   21.7046 N.2     1  UNL1       -0.0164
      5 C          -6.3489  -19.3598   21.3904 C.2     1  UNL1        0.3383
      6 N          -6.0683  -18.0472   22.0600 N.2     1  UNL1       -0.2017
      7 C          -7.0496  -17.4822   23.0438 C.2     1  UNL1        0.0940
      8 C          -7.0444  -16.2203   23.8546 C.2     1  UNL1        0.0075
      9 C          -5.9693  -15.1742   23.8507 C.3     1  UNL1        0.0336
     10 C          -8.3031  -16.1880   24.6699 C.2     1  UNL1        0.0523
     11 C          -8.7076  -15.1039   25.6246 C.3     1  UNL1        0.0514
     12 N          -9.0861  -17.4300   24.3631 N.2     1  UNL1       -0.2589
     13 C          -8.3114  -18.2299   23.3580 C.3     1  UNL1        0.2471
     14 C         -11.0534  -20.1438   22.1141 C.3     1  UNL1        0.2258
     15 C         -10.1408  -19.4516   19.3414 C.3     1  UNL1        0.0308
     16 C         -10.9355  -18.4603   20.1387 C.ar    1  UNL1       -0.0223
     17 C         -11.2738  -17.1229   19.5498 C.ar    1  UNL1       -0.0045
     18 C         -12.0685  -16.1316   20.3471 C.ar    1  UNL1       -0.0007
     19 C         -12.5248  -16.4777   21.7335 C.ar    1  UNL1       -0.0045
     20 C         -12.1864  -17.8150   22.3225 C.ar    1  UNL1       -0.0223
     21 C         -12.6427  -18.1611   23.7089 C.3     1  UNL1        0.0308
     22 C         -11.3918  -18.8064   21.5251 C.ar    1  UNL1        0.0162
@<TRIPOS>BOND
     1    15    16    1
     2    16    17   ar
     3    17    18   ar
     4    18    19   ar
     5    19    20   ar
     6    20    21    1
     7    20    22   ar
     8    22    14    1
     9    14     1    1
    10     1     3    1
    11     3     4    2
    12     4     5    1
    13     5     6    2
    14     6     7    1
    15     7     8    2
    16     8     9    1
    17     8    10    1
    18    10    11    1
    19    10    12    2
    20    12    13    1
    21    22    16   ar
    22    13     3    1
    23    13     7    1
    24     1     2    1
@<TRIPOS>MOLECULE
*****
 22 24 0 0 0
SMALL
GASTEIGER

@<TRIPOS>ATOM
      1 N          -8.8310  -18.3213   20.7537 N.pl3   1  UNL1       -0.2166
      2 H          -8.9691  -17.4005   20.4337 H       1  UNL1        0.2923
      3 C          -7.4400  -18.8403   20.9675 C.2     1  UNL1        0.3276
      4 N          -6.9689  -20.0528   20.2206 N.2     1  UNL1       -0.0164
      5 C          -5.5779  -20.5718   20.4343 C.2     1  UNL1        0.3383
      6 N          -4.6580  -19.8783   21.3950 N.2     1  UNL1       -0.2017
      7 C          -5.1291  -18.6658   22.1419 C.2     1  UNL1        0.0940
      8 C          -4.4529  -17.7796   23.1456 C.2     1  UNL1        0.0075
      9 C          -3.0499  -17.9332   23.6535 C.3     1  UNL1        0.0336
     10 C          -5.4259  -16.7129   23.5521 C.2     1  UNL1        0.0523
     11 C          -5.1668  -15.6125   24.5380 C.3     1  UNL1        0.0514
     12 N          -6.7036  -16.9398   22.7997 N.2     1  UNL1       -0.2589
     13 C          -6.5201  -18.1468   21.9281 C.3     1  UNL1        0.2471
     14 C         -10.0116  -19.2051   21.0276 C.3     1  UNL1        0.2258
     15 C          -9.3367  -20.4622   23.6666 C.3     1  UNL1        0.0308
     16 C         -10.5415  -19.5772   23.5437 C.ar    1  UNL1       -0.0223
     17 C         -11.4089  -19.3206   24.7403 C.ar    1  UNL1       -0.0045
     18 C         -12.6137  -18.4357   24.6174 C.ar    1  UNL1       -0.0007
     19 C         -12.9512  -17.8071   23.2979 C.ar    1  UNL1       -0.0045
     20 C         -12.0839  -18.0636   22.1013 C.ar    1  UNL1       -0.0223
     21 C         -12.4214  -17.4351   20.7818 C.3     1  UNL1        0.0308
     22 C         -10.8790  -18.9486   22.2242 C.ar    1  UNL1        0.0162
@<TRIPOS>BOND
     1    15    16    1
     2    16    17   ar
     3    17    18   ar
     4    18    19   ar
     5    19    20   ar
     6    20    21    1
     7    20    22   ar
     8    22    14    1
     9    14     1    1
    10     1     3    1
    11     3     4    2
    12     4     5    1
    13     5     6    2
    14     6     7    1
    15     7     8    2
    16     8     9    1
    17     8    10    1
    18    10    11    1
    19    10    12    2
    20    12    13    1
    21    22    16   ar
    22    13     3    1
    23    13     7    1
    24     1     2    1
@<TRIPOS>MOLECULE
*****
 22 24 0 0 0
SMALL
GASTEIGER

@<TRIPOS>ATOM
      1 N          -8.5077  -18.6202   20.9203 N.pl3   1  UNL1       -0.2166
      2 H          -8.4558  -18.4795   19.9473 H       1  UNL1        0.2923
      3 C          -7.5407  -17.9239   21.8314 C.2     1  UNL1        0.3276
      4 N          -8.0223  -16.8383   22.7476 N.2     1  UNL1       -0.0164
      5 C          -7.0553  -16.1420   23.6587 C.2     1  UNL1        0.3383
      6 N          -5.6067  -16.5313   23.6536 N.2     1  UNL1       -0.2017
      7 C          -5.1251  -17.6169   22.7374 C.2     1  UNL1        0.0940
      8 C          -3.7665  -18.2116   22.5130 C.2     1  UNL1        0.0075
      9 C          -2.5025  -17.8125   23.2151 C.3     1  UNL1        0.0336
     10 C          -3.8937  -19.2754   21.4632 C.2     1  UNL1        0.0523
     11 C          -2.7792  -20.1270   20.9312 C.3     1  UNL1        0.0514
     12 N          -5.3310  -19.3382   21.0388 N.2     1  UNL1       -0.2589
     13 C          -6.0921  -18.3131   21.8263 C.3     1  UNL1        0.2471
     14 C          -9.5536  -19.5310   21.4917 C.3     1  UNL1        0.2258
     15 C         -10.0780  -20.0430   24.4008 C.3     1  UNL1        0.0308
     16 C         -11.0357  -19.2103   23.6013 C.ar    1  UNL1       -0.0223
     17 C         -12.2558  -18.6335   24.2563 C.ar    1  UNL1       -0.0045
     18 C         -13.2135  -17.8008   23.4567 C.ar    1  UNL1       -0.0007
     19 C         -12.9513  -17.5448   22.0022 C.ar    1  UNL1       -0.0045
     20 C         -11.7313  -18.1215   21.3472 C.ar    1  UNL1       -0.0223
     21 C         -11.4691  -17.8655   19.8926 C.3     1  UNL1        0.0308
     22 C         -10.7735  -18.9543   22.1467 C.ar    1  UNL1        0.0162
@<TRIPOS>BOND
     1    15    16    1
     2    16    17   ar
     3    17    18   ar
     4    18    19   ar
     5    19    20   ar
     6    20    21    1
     7    20    22   ar
     8    22    14    1
     9    14     1    1
    10     1     3    1
    11     3     4    2
    12     4     5    1
    13     5     6    2
    14     6     7    1
    15     7     8    2
    16     8     9    1
    17     8    10    1
    18    10    11    1
    19    10    12    2
    20    12    13    1
    21    22    16   ar
    22    13     3    1
    23    13     7    1
    24     1     2    1
@<TRIPOS>MOLECULE
*****
 22 24 0 0 0
SMALL
GASTEIGER

@<TRIPOS>ATOM
      1 N          -6.8650  -18.4723   20.7185 N.pl3   1  UNL1       -0.2166
      2 H          -6.4570  -17.8884   20.0390 H       1  UNL1        0.2923
      3 C          -8.3570  -18.6090   20.7919 C.2     1  UNL1        0.3276
      4 N          -9.1456  -18.8984   19.5492 N.2     1  UNL1       -0.0164
      5 C         -10.6375  -19.0351   19.6226 C.2     1  UNL1        0.3383
      6 N         -11.3408  -18.8824   20.9386 N.2     1  UNL1       -0.2017
      7 C         -10.5522  -18.5931   22.1813 C.2     1  UNL1        0.0940
      8 C         -10.9664  -18.3926   23.6090 C.2     1  UNL1        0.0075
      9 C         -12.3701  -18.4437   24.1353 C.3     1  UNL1        0.0336
     10 C          -9.7304  -18.1320   24.4180 C.2     1  UNL1        0.0523
     11 C          -9.6811  -17.8768   25.8954 C.3     1  UNL1        0.0514
     12 N          -8.5523  -18.1714   23.4903 N.2     1  UNL1       -0.2589
     13 C          -9.0603  -18.4564   22.1079 C.3     1  UNL1        0.2471
     14 C          -5.9947  -19.2254   21.6806 C.3     1  UNL1        0.2258
     15 C          -4.9010  -17.1620   23.5638 C.3     1  UNL1        0.0308
     16 C          -3.9727  -17.9258   22.6667 C.ar    1  UNL1       -0.0223
     17 C          -2.4974  -17.6580   22.7112 C.ar    1  UNL1       -0.0045
     18 C          -1.5690  -18.4218   21.8142 C.ar    1  UNL1       -0.0007
     19 C          -2.1159  -19.4535   20.8726 C.ar    1  UNL1       -0.0045
     20 C          -3.5911  -19.7213   20.8280 C.ar    1  UNL1       -0.0223
     21 C          -4.1379  -20.7530   19.8864 C.3     1  UNL1        0.0308
     22 C          -4.5195  -18.9575   21.7251 C.ar    1  UNL1        0.0162
@<TRIPOS>BOND
     1    15    16    1
     2    16    17   ar
     3    17    18   ar
     4    18    19   ar
     5    19    20   ar
     6    20    21    1
     7    20    22   ar
     8    22    14    1
     9    14     1    1
    10     1     3    1
    11     3     4    2
    12     4     5    1
    13     5     6    2
    14     6     7    1
    15     7     8    2
    16     8     9    1
    17     8    10    1
    18    10    11    1
    19    10    12    2
    20    12    13    1
    21    22    16   ar
    22    13     3    1
    23    13     7    1
    24     1     2    1
@<TRIPOS>MOLECULE
*****
 22 24 0 0 0
SMALL
GASTEIGER

@<TRIPOS>ATOM
      1 N          -6.8536  -18.4645   20.7291 N.pl3   1  UNL1       -0.2166
      2 H          -6.4522  -17.8470   20.0758 H       1  UNL1        0.2923
      3 C          -8.3444  -18.6140   20.8021 C.2     1  UNL1        0.3276
      4 N          -9.1292  -18.9191   19.5608 N.2     1  UNL1       -0.0164
      5 C         -10.6199  -19.0687   19.6339 C.2     1  UNL1        0.3383
      6 N         -11.3258  -18.9131   20.9482 N.2     1  UNL1       -0.2017
      7 C         -10.5409  -18.6080   22.1896 C.2     1  UNL1        0.0940
      8 C         -10.9582  -18.4013   23.6154 C.2     1  UNL1        0.0075
      9 C         -12.3619  -18.4614   24.1408 C.3     1  UNL1        0.0336
     10 C          -9.7253  -18.1240   24.4237 C.2     1  UNL1        0.0523
     11 C          -9.6798  -17.8580   25.8992 C.3     1  UNL1        0.0514
     12 N          -8.5461  -18.1593   23.4973 N.2     1  UNL1       -0.2589
     13 C          -9.0502  -18.4585   22.1165 C.3     1  UNL1        0.2471
     14 C          -5.9744  -19.2557   21.6516 C.3     1  UNL1        0.2258
     15 C          -4.0966  -20.7592   19.8590 C.3     1  UNL1        0.0308
     16 C          -3.5626  -19.7292   20.8097 C.ar    1  UNL1       -0.0223
     17 C          -2.0896  -19.4509   20.8641 C.ar    1  UNL1       -0.0045
     18 C          -1.5555  -18.4209   21.8148 C.ar    1  UNL1       -0.0007
     19 C          -2.4944  -17.6692   22.7112 C.ar    1  UNL1       -0.0045
     20 C          -3.9673  -17.9474   22.6568 C.ar    1  UNL1       -0.0223
     21 C          -4.9062  -17.1957   23.5531 C.3     1  UNL1        0.0308
     22 C          -4.5015  -18.9774   21.7060 C.ar    1  UNL1        0.0162
@<TRIPOS>BOND
     1    15    16    1
     2    16    17   ar
     3    17    18   ar
     4    18    19   ar
     5    19    20   ar
     6    20    21    1
     7    20    22   ar
     8    22    14    1
     9    14     1    1
    10     1     3    1
    11     3     4    2
    12     4     5    1
    13     5     6    2
    14     6     7    1
    15     7     8    2
    16     8     9    1
    17     8    10    1
    18    10    11    1
    19    10    12    2
    20    12    13    1
    21    22    16   ar
    22    13     3    1
    23    13     7    1
    24     1     2    1
@<TRIPOS>MOLECULE
*****
 22 24 0 0 0
SMALL
GASTEIGER

@<TRIPOS>ATOM
      1 N          -7.4001  -19.0736   22.5794 N.pl3   1  UNL1       -0.2166
      2 H          -7.2804  -18.1967   23.0105 H       1  UNL1        0.2923
      3 C          -6.3227  -19.6280   21.6951 C.2     1  UNL1        0.3276
      4 N          -6.5714  -20.8772   20.9030 N.2     1  UNL1       -0.0164
      5 C          -5.4940  -21.4315   20.0187 C.2     1  UNL1        0.3383
      6 N          -4.1679  -20.7365   19.9266 N.2     1  UNL1       -0.2017
      7 C          -3.9192  -19.4873   20.7188 C.2     1  UNL1        0.0940
      8 C          -2.7216  -18.5910   20.8299 C.2     1  UNL1        0.0075
      9 C          -1.4159  -18.7713   20.1139 C.3     1  UNL1        0.0336
     10 C          -3.0588  -17.4828   21.7829 C.2     1  UNL1        0.0523
     11 C          -2.1496  -16.3602   22.1871 C.3     1  UNL1        0.0514
     12 N          -4.4649  -17.6941   22.2607 N.2     1  UNL1       -0.2589
     13 C          -4.9966  -18.9330   21.6030 C.3     1  UNL1        0.2471
     14 C          -8.6599  -19.8555   22.8068 C.3     1  UNL1        0.2258
     15 C          -9.9055  -19.5193   20.0983 C.3     1  UNL1        0.0308
     16 C         -10.6170  -19.0153   21.3188 C.ar    1  UNL1       -0.0223
     17 C         -11.9513  -18.3431   21.1852 C.ar    1  UNL1       -0.0045
     18 C         -12.6628  -17.8390   22.4057 C.ar    1  UNL1       -0.0007
     19 C         -12.0400  -18.0071   23.7599 C.ar    1  UNL1       -0.0045
     20 C         -10.7058  -18.6792   23.8936 C.ar    1  UNL1       -0.0223
     21 C         -10.0830  -18.8473   25.2478 C.3     1  UNL1        0.0308
     22 C          -9.9942  -19.1833   22.6730 C.ar    1  UNL1        0.0162
@<TRIPOS>BOND
     1    15    16    1
     2    16    17   ar
     3    17    18   ar
     4    18    19   ar
     5    19    20   ar
     6    20    21    1
     7    20    22   ar
     8    22    14    1
     9    14     1    1
    10     1     3    1
    11     3     4    2
    12     4     5    1
    13     5     6    2
    14     6     7    1
    15     7     8    2
    16     8     9    1
    17     8    10    1
    18    10    11    1
    19    10    12    2
    20    12    13    1
    21    22    16   ar
    22    13     3    1
    23    13     7    1
    24     1     2    1
@<TRIPOS>MOLECULE
*****
 22 24 0 0 0
SMALL
GASTEIGER

@<TRIPOS>ATOM
      1 N          -7.3645  -19.0315   22.5549 N.pl3   1  UNL1       -0.2166
      2 H          -7.2501  -18.1430   22.9632 H       1  UNL1        0.2923
      3 C          -6.2897  -19.5961   21.6739 C.2     1  UNL1        0.3276
      4 N          -6.5482  -20.8422   20.8800 N.2     1  UNL1       -0.0164
      5 C          -5.4734  -21.4067   19.9991 C.2     1  UNL1        0.3383
      6 N          -4.1400  -20.7251   19.9121 N.2     1  UNL1       -0.2017
      7 C          -3.8815  -19.4790   20.7060 C.2     1  UNL1        0.0940
      8 C          -2.6753  -18.5950   20.8220 C.2     1  UNL1        0.0075
      9 C          -1.3690  -18.7880   20.1103 C.3     1  UNL1        0.0336
     10 C          -3.0046  -17.4841   21.7746 C.2     1  UNL1        0.0523
     11 C          -2.0854  -16.3711   22.1828 C.3     1  UNL1        0.0514
     12 N          -4.4143  -17.6815   22.2474 N.2     1  UNL1       -0.2589
     13 C          -4.9563  -18.9145   21.5869 C.3     1  UNL1        0.2471
     14 C          -8.6136  -19.8207   22.8137 C.3     1  UNL1        0.2258
     15 C         -10.0221  -18.7875   25.2526 C.3     1  UNL1        0.0308
     16 C         -10.6603  -18.6478   23.9024 C.ar    1  UNL1       -0.0223
     17 C         -12.0028  -17.9914   23.7715 C.ar    1  UNL1       -0.0045
     18 C         -12.6409  -17.8518   22.4213 C.ar    1  UNL1       -0.0007
     19 C         -11.9366  -18.3684   21.2018 C.ar    1  UNL1       -0.0045
     20 C         -10.5942  -19.0247   21.3326 C.ar    1  UNL1       -0.0223
     21 C          -9.8899  -19.5413   20.1131 C.3     1  UNL1        0.0308
     22 C          -9.9560  -19.1644   22.6829 C.ar    1  UNL1        0.0162
@<TRIPOS>BOND
     1    15    16    1
     2    16    17   ar
     3    17    18   ar
     4    18    19   ar
     5    19    20   ar
     6    20    21    1
     7    20    22   ar
     8    22    14    1
     9    14     1    1
    10     1     3    1
    11     3     4    2
    12     4     5    1
    13     5     6    2
    14     6     7    1
    15     7     8    2
    16     8     9    1
    17     8    10    1
    18    10    11    1
    19    10    12    2
    20    12    13    1
    21    22    16   ar
    22    13     3    1
    23    13     7    1
    24     1     2    1
