@<TRIPOS>MOLECULE
*****
 23 25 0 0 0
SMALL
GASTEIGER

@<TRIPOS>ATOM
      1 C         -12.1084  -17.9810   22.6496 C.3     1  UNL1        0.0064
      2 C         -11.7632  -18.7788   21.4272 C.3     1  UNL1        0.0261
      3 C         -10.3319  -18.9136   20.9990 C.ar    1  UNL1       -0.0258
      4 C          -9.9867  -19.7115   19.7767 C.ar    1  UNL1       -0.0046
      5 C          -8.5555  -19.8463   19.3486 C.ar    1  UNL1       -0.0003
      6 C          -7.4694  -19.1832   20.1428 C.ar    1  UNL1       -0.0003
      7 C          -7.8146  -18.3853   21.3652 C.ar    1  UNL1       -0.0043
      8 C          -9.2459  -18.2505   21.7933 C.ar    1  UNL1       -0.0224
      9 C          -9.5911  -17.4526   23.0157 C.3     1  UNL1        0.0443
     10 C         -11.0224  -17.3179   23.4438 C.3     1  UNL1        0.0091
     11 C          -8.5051  -16.7895   23.8099 C.ar    1  UNL1       -0.0175
     12 C          -7.1858  -16.4821   23.1657 C.ar    1  UNL1       -0.0030
     13 C          -6.0997  -15.8190   23.9599 C.ar    1  UNL1        0.0119
     14 C          -6.3330  -15.4633   25.3984 C.ar    1  UNL1        0.0682
     15 CL         -5.2470  -14.8002   26.1926 Cl      1  UNL1       -0.0814
     16 C          -7.6523  -15.7707   26.0425 C.ar    1  UNL1        0.0679
     17 CL         -7.8856  -15.4150   27.4810 Cl      1  UNL1       -0.0814
     18 C          -8.7383  -16.4338   25.2483 C.ar    1  UNL1        0.0083
     19 C         -13.5397  -17.8462   23.0778 C.3     1  UNL1        0.0172
     20 N         -15.3290  -18.6249   24.7929 N.3     1  UNL1       -0.3211
     21 C         -13.9336  -18.1659   24.4893 C.3     1  UNL1        0.0651
     22 H         -15.4204  -18.7957   25.7944 H       1  UNL1        0.1189
     23 H         -15.5223  -19.4862   24.2820 H       1  UNL1        0.1189
@<TRIPOS>BOND
     1    20    21    1
     2    21    19    1
     3     1    19    1
     4     1     2    1
     5     2     3    1
     6     3     4   ar
     7     4     5   ar
     8     5     6   ar
     9     6     7   ar
    10     7     8   ar
    11     8     9    1
    12     9    11    1
    13    11    12   ar
    14    12    13   ar
    15    13    14   ar
    16    14    15    1
    17    14    16   ar
    18    16    17    1
    19    16    18   ar
    20     9    10    1
    21    10     1    1
    22     8     3   ar
    23    18    11   ar
    24    20    22    1
    25    20    23    1
@<TRIPOS>MOLECULE
*****
 23 25 0 0 0
SMALL
GASTEIGER

@<TRIPOS>ATOM
      1 C          -5.9514  -19.3451   21.6492 C.3     1  UNL1        0.0064
      2 C          -5.0504  -18.3358   22.2969 C.3     1  UNL1        0.0261
      3 C          -5.6295  -17.2721   23.1819 C.ar    1  UNL1       -0.0258
      4 C          -4.7284  -16.2628   23.8296 C.ar    1  UNL1       -0.0046
      5 C          -5.3075  -15.1992   24.7146 C.ar    1  UNL1       -0.0003
      6 C          -6.7876  -15.1448   24.9520 C.ar    1  UNL1       -0.0003
      7 C          -7.6886  -16.1541   24.3043 C.ar    1  UNL1       -0.0043
      8 C          -7.1096  -17.2177   23.4193 C.ar    1  UNL1       -0.0224
      9 C          -8.0106  -18.2271   22.7717 C.3     1  UNL1        0.0443
     10 C          -7.4315  -19.2907   21.8866 C.3     1  UNL1        0.0091
     11 C          -9.4907  -18.1727   23.0090 C.ar    1  UNL1       -0.0175
     12 C         -10.0776  -18.8083   24.2345 C.ar    1  UNL1       -0.0030
     13 C         -11.5577  -18.7539   24.4719 C.ar    1  UNL1        0.0119
     14 C         -12.4509  -18.0639   23.4838 C.ar    1  UNL1        0.0682
     15 CL        -13.9310  -18.0096   23.7212 Cl      1  UNL1       -0.0814
     16 C         -11.8640  -17.4284   22.2585 C.ar    1  UNL1        0.0679
     17 CL        -12.7572  -16.7384   21.2704 Cl      1  UNL1       -0.0814
     18 C         -10.3839  -17.4827   22.0211 C.ar    1  UNL1        0.0083
     19 C          -5.3724  -20.4088   20.7642 C.3     1  UNL1        0.0172
     20 N          -2.7750  -20.4102   20.8194 N.3     1  UNL1       -0.3211
     21 C          -4.0584  -20.1801   20.0779 C.3     1  UNL1        0.0651
     22 H          -1.9863  -20.2079   20.2049 H       1  UNL1        0.1189
     23 H          -2.7280  -21.3826   21.1240 H       1  UNL1        0.1189
@<TRIPOS>BOND
     1    20    21    1
     2    21    19    1
     3     1    19    1
     4     1     2    1
     5     2     3    1
     6     3     4   ar
     7     4     5   ar
     8     5     6   ar
     9     6     7   ar
    10     7     8   ar
    11     8     9    1
    12     9    11    1
    13    11    12   ar
    14    12    13   ar
    15    13    14   ar
    16    14    15    1
    17    14    16   ar
    18    16    17    1
    19    16    18   ar
    20     9    10    1
    21    10     1    1
    22     8     3   ar
    23    18    11   ar
    24    20    22    1
    25    20    23    1
@<TRIPOS>MOLECULE
*****
 23 25 0 0 0
SMALL
GASTEIGER

@<TRIPOS>ATOM
      1 C         -10.4463  -17.6266   20.6188 C.3     1  UNL1        0.0064
      2 C          -9.6461  -18.6877   19.9233 C.3     1  UNL1        0.0261
      3 C          -8.3155  -19.1062   20.4750 C.ar    1  UNL1       -0.0258
      4 C          -7.5153  -20.1673   19.7795 C.ar    1  UNL1       -0.0046
      5 C          -6.1848  -20.5857   20.3313 C.ar    1  UNL1       -0.0003
      6 C          -5.6544  -19.9431   21.5785 C.ar    1  UNL1       -0.0003
      7 C          -6.4546  -18.8820   22.2741 C.ar    1  UNL1       -0.0043
      8 C          -7.7851  -18.4635   21.7223 C.ar    1  UNL1       -0.0224
      9 C          -8.5853  -17.4024   22.4178 C.3     1  UNL1        0.0443
     10 C          -9.9159  -16.9839   21.8661 C.3     1  UNL1        0.0091
     11 C          -8.0550  -16.7598   23.6651 C.ar    1  UNL1       -0.0175
     12 C          -6.8733  -15.8387   23.5901 C.ar    1  UNL1       -0.0030
     13 C          -6.3429  -15.1961   24.8373 C.ar    1  UNL1        0.0119
     14 C          -6.9942  -15.4745   26.1597 C.ar    1  UNL1        0.0682
     15 CL         -6.4638  -14.8319   27.4069 Cl      1  UNL1       -0.0814
     16 C          -8.1757  -16.3955   26.2347 C.ar    1  UNL1        0.0679
     17 CL         -8.8270  -16.6739   27.5570 Cl      1  UNL1       -0.0814
     18 C          -8.7061  -17.0381   24.9874 C.ar    1  UNL1        0.0083
     19 C         -11.7769  -17.2081   20.0670 C.3     1  UNL1        0.0172
     20 N         -10.8282  -15.1001   18.8814 N.3     1  UNL1       -0.3211
     21 C         -11.9677  -15.8149   19.5449 C.3     1  UNL1        0.0651
     22 H         -11.1329  -14.1713   18.5900 H       1  UNL1        0.1189
     23 H         -10.5239  -15.6298   18.0646 H       1  UNL1        0.1189
@<TRIPOS>BOND
     1    20    21    1
     2    21    19    1
     3     1    19    1
     4     1     2    1
     5     2     3    1
     6     3     4   ar
     7     4     5   ar
     8     5     6   ar
     9     6     7   ar
    10     7     8   ar
    11     8     9    1
    12     9    11    1
    13    11    12   ar
    14    12    13   ar
    15    13    14   ar
    16    14    15    1
    17    14    16   ar
    18    16    17    1
    19    16    18   ar
    20     9    10    1
    21    10     1    1
    22     8     3   ar
    23    18    11   ar
    24    20    22    1
    25    20    23    1
@<TRIPOS>MOLECULE
*****
 23 25 0 0 0
SMALL
GASTEIGER

@<TRIPOS>ATOM
      1 C          -7.9153  -19.1616   20.8272 C.3     1  UNL1        0.0064
      2 C          -9.2734  -18.9212   20.2375 C.3     1  UNL1        0.0261
      3 C         -10.2405  -18.0070   20.9298 C.ar    1  UNL1       -0.0258
      4 C         -11.5986  -17.7666   20.3401 C.ar    1  UNL1       -0.0046
      5 C         -12.5656  -16.8525   21.0323 C.ar    1  UNL1       -0.0003
      6 C         -12.1746  -16.1788   22.3142 C.ar    1  UNL1       -0.0003
      7 C         -10.8165  -16.4193   22.9039 C.ar    1  UNL1       -0.0043
      8 C          -9.8495  -17.3334   22.2117 C.ar    1  UNL1       -0.0224
      9 C          -8.4913  -17.5739   22.8014 C.3     1  UNL1        0.0443
     10 C          -7.5243  -18.4880   22.1091 C.3     1  UNL1        0.0091
     11 C          -8.1003  -16.9002   24.0833 C.ar    1  UNL1       -0.0175
     12 C          -8.9982  -16.9894   25.2816 C.ar    1  UNL1       -0.0030
     13 C          -8.6071  -16.3157   26.5635 C.ar    1  UNL1        0.0119
     14 C          -7.3182  -15.5529   26.6471 C.ar    1  UNL1        0.0682
     15 CL         -6.9272  -14.8793   27.9290 Cl      1  UNL1       -0.0814
     16 C          -6.4204  -15.4638   25.4488 C.ar    1  UNL1        0.0679
     17 CL         -5.1315  -14.7011   25.5324 Cl      1  UNL1       -0.0814
     18 C          -6.8114  -16.1375   24.1669 C.ar    1  UNL1        0.0083
     19 C          -6.9482  -20.0758   20.1350 C.3     1  UNL1        0.0172
     20 N          -4.9321  -18.5466   19.5463 N.3     1  UNL1       -0.3211
     21 C          -5.4768  -19.7889   20.1866 C.3     1  UNL1        0.0651
     22 H          -3.9210  -18.5125   19.6764 H       1  UNL1        0.1189
     23 H          -5.3583  -17.7267   19.9780 H       1  UNL1        0.1189
@<TRIPOS>BOND
     1    20    21    1
     2    21    19    1
     3     1    19    1
     4     1     2    1
     5     2     3    1
     6     3     4   ar
     7     4     5   ar
     8     5     6   ar
     9     6     7   ar
    10     7     8   ar
    11     8     9    1
    12     9    11    1
    13    11    12   ar
    14    12    13   ar
    15    13    14   ar
    16    14    15    1
    17    14    16   ar
    18    16    17    1
    19    16    18   ar
    20     9    10    1
    21    10     1    1
    22     8     3   ar
    23    18    11   ar
    24    20    22    1
    25    20    23    1
@<TRIPOS>MOLECULE
*****
 23 25 0 0 0
SMALL
GASTEIGER

@<TRIPOS>ATOM
      1 C          -7.9302  -19.1207   20.7410 C.3     1  UNL1        0.0064
      2 C          -9.3245  -18.9189   20.2262 C.3     1  UNL1        0.0261
      3 C         -10.2657  -18.0019   20.9496 C.ar    1  UNL1       -0.0258
      4 C         -11.6601  -17.8001   20.4348 C.ar    1  UNL1       -0.0046
      5 C         -12.6012  -16.8831   21.1581 C.ar    1  UNL1       -0.0003
      6 C         -12.1480  -16.1678   22.3963 C.ar    1  UNL1       -0.0003
      7 C         -10.7537  -16.3696   22.9111 C.ar    1  UNL1       -0.0043
      8 C          -9.8125  -17.2866   22.1877 C.ar    1  UNL1       -0.0224
      9 C          -8.4181  -17.4884   22.7025 C.3     1  UNL1        0.0443
     10 C          -7.4770  -18.4055   21.9792 C.3     1  UNL1        0.0091
     11 C          -7.9649  -16.7732   23.9407 C.ar    1  UNL1       -0.0175
     12 C          -6.8398  -15.7839   23.8660 C.ar    1  UNL1       -0.0030
     13 C          -6.3866  -15.0687   25.1042 C.ar    1  UNL1        0.0119
     14 C          -7.0586  -15.3427   26.4170 C.ar    1  UNL1        0.0682
     15 CL         -6.6054  -14.6275   27.6552 Cl      1  UNL1       -0.0814
     16 C          -8.1836  -16.3319   26.4916 C.ar    1  UNL1        0.0679
     17 CL         -8.8556  -16.6059   27.8045 Cl      1  UNL1       -0.0814
     18 C          -8.6368  -17.0472   25.2535 C.ar    1  UNL1        0.0083
     19 C          -6.9889  -20.0378   20.0177 C.3     1  UNL1        0.0172
     20 N          -4.9068  -18.5601   19.5373 N.3     1  UNL1       -0.3211
     21 C          -5.5085  -19.8123   20.1029 C.3     1  UNL1        0.0651
     22 H          -3.8971  -18.5729   19.6816 H       1  UNL1        0.1189
     23 H          -5.3071  -17.7482   20.0072 H       1  UNL1        0.1189
@<TRIPOS>BOND
     1    20    21    1
     2    21    19    1
     3     1    19    1
     4     1     2    1
     5     2     3    1
     6     3     4   ar
     7     4     5   ar
     8     5     6   ar
     9     6     7   ar
    10     7     8   ar
    11     8     9    1
    12     9    11    1
    13    11    12   ar
    14    12    13   ar
    15    13    14   ar
    16    14    15    1
    17    14    16   ar
    18    16    17    1
    19    16    18   ar
    20     9    10    1
    21    10     1    1
    22     8     3   ar
    23    18    11   ar
    24    20    22    1
    25    20    23    1
@<TRIPOS>MOLECULE
*****
 23 25 0 0 0
SMALL
GASTEIGER

@<TRIPOS>ATOM
      1 C          -8.7141  -16.1799   24.4578 C.3     1  UNL1        0.0064
      2 C         -10.1324  -16.2420   23.9738 C.3     1  UNL1        0.0261
      3 C         -10.4859  -17.1003   22.7955 C.ar    1  UNL1       -0.0258
      4 C         -11.9043  -17.1625   22.3114 C.ar    1  UNL1       -0.0046
      5 C         -12.2577  -18.0207   21.1331 C.ar    1  UNL1       -0.0003
      6 C         -11.1927  -18.8169   20.4389 C.ar    1  UNL1       -0.0003
      7 C          -9.7744  -18.7548   20.9229 C.ar    1  UNL1       -0.0043
      8 C          -9.4210  -17.8965   22.1012 C.ar    1  UNL1       -0.0224
      9 C          -8.0025  -17.8343   22.5853 C.3     1  UNL1        0.0443
     10 C          -7.6491  -16.9761   23.7636 C.3     1  UNL1        0.0091
     11 C          -6.9376  -18.6305   21.8910 C.ar    1  UNL1       -0.0175
     12 C          -7.3061  -19.5650   20.7770 C.ar    1  UNL1       -0.0030
     13 C          -6.2411  -20.3612   20.0827 C.ar    1  UNL1        0.0119
     14 C          -4.8076  -20.2228   20.5025 C.ar    1  UNL1        0.0682
     15 CL         -3.7427  -21.0189   19.8082 Cl      1  UNL1       -0.0814
     16 C          -4.4392  -19.2883   21.6164 C.ar    1  UNL1        0.0679
     17 CL         -3.0057  -19.1499   22.0362 Cl      1  UNL1       -0.0814
     18 C          -5.5042  -18.4922   22.3107 C.ar    1  UNL1        0.0083
     19 C          -8.3606  -15.3216   25.6362 C.3     1  UNL1        0.0172
     20 N          -5.8929  -14.6094   26.0271 N.3     1  UNL1       -0.3211
     21 C          -7.0486  -15.5138   26.3374 C.3     1  UNL1        0.0651
     22 H          -5.0874  -14.8815   26.5907 H       1  UNL1        0.1189
     23 H          -6.1482  -13.6455   26.2419 H       1  UNL1        0.1189
@<TRIPOS>BOND
     1    20    21    1
     2    21    19    1
     3     1    19    1
     4     1     2    1
     5     2     3    1
     6     3     4   ar
     7     4     5   ar
     8     5     6   ar
     9     6     7   ar
    10     7     8   ar
    11     8     9    1
    12     9    11    1
    13    11    12   ar
    14    12    13   ar
    15    13    14   ar
    16    14    15    1
    17    14    16   ar
    18    16    17    1
    19    16    18   ar
    20     9    10    1
    21    10     1    1
    22     8     3   ar
    23    18    11   ar
    24    20    22    1
    25    20    23    1
@<TRIPOS>MOLECULE
*****
 23 25 0 0 0
SMALL
GASTEIGER

@<TRIPOS>ATOM
      1 C          -5.7818  -19.7304   20.6924 C.3     1  UNL1        0.0064
      2 C          -6.9317  -19.9900   19.7649 C.3     1  UNL1        0.0261
      3 C          -8.2829  -19.4122   20.0654 C.ar    1  UNL1       -0.0258
      4 C          -9.4328  -19.6719   19.1379 C.ar    1  UNL1       -0.0046
      5 C         -10.7840  -19.0941   19.4385 C.ar    1  UNL1       -0.0003
      6 C         -10.9853  -18.2566   20.6666 C.ar    1  UNL1       -0.0003
      7 C          -9.8354  -17.9970   21.5941 C.ar    1  UNL1       -0.0043
      8 C          -8.4842  -18.5748   21.2935 C.ar    1  UNL1       -0.0224
      9 C          -7.3342  -18.3151   22.2210 C.3     1  UNL1        0.0443
     10 C          -5.9831  -18.8929   21.9204 C.3     1  UNL1        0.0091
     11 C          -7.5355  -17.4777   23.4491 C.ar    1  UNL1       -0.0175
     12 C          -8.8394  -17.5323   24.1887 C.ar    1  UNL1       -0.0030
     13 C          -9.0407  -16.6948   25.4168 C.ar    1  UNL1        0.0119
     14 C          -7.9381  -15.8027   25.9052 C.ar    1  UNL1        0.0682
     15 CL         -8.1394  -14.9653   27.1333 Cl      1  UNL1       -0.0814
     16 C          -6.6343  -15.7481   25.1656 C.ar    1  UNL1        0.0679
     17 CL         -5.5317  -14.8561   25.6541 Cl      1  UNL1       -0.0814
     18 C          -6.4330  -16.5856   23.9375 C.ar    1  UNL1        0.0083
     19 C          -4.4305  -20.3082   20.3918 C.3     1  UNL1        0.0172
     20 N          -2.0791  -20.1385   21.4836 N.3     1  UNL1       -0.3211
     21 C          -3.1924  -19.5169   20.6936 C.3     1  UNL1        0.0651
     22 H          -1.3223  -19.4636   21.5937 H       1  UNL1        0.1189
     23 H          -1.7317  -20.9617   20.9917 H       1  UNL1        0.1189
@<TRIPOS>BOND
     1    20    21    1
     2    21    19    1
     3     1    19    1
     4     1     2    1
     5     2     3    1
     6     3     4   ar
     7     4     5   ar
     8     5     6   ar
     9     6     7   ar
    10     7     8   ar
    11     8     9    1
    12     9    11    1
    13    11    12   ar
    14    12    13   ar
    15    13    14   ar
    16    14    15    1
    17    14    16   ar
    18    16    17    1
    19    16    18   ar
    20     9    10    1
    21    10     1    1
    22     8     3   ar
    23    18    11   ar
    24    20    22    1
    25    20    23    1
@<TRIPOS>MOLECULE
*****
 23 25 0 0 0
SMALL
GASTEIGER

@<TRIPOS>ATOM
      1 C          -5.1623  -16.5313   24.2862 C.3     1  UNL1        0.0064
      2 C          -4.1423  -17.3922   23.6017 C.3     1  UNL1        0.0261
      3 C          -4.5644  -18.3326   22.5120 C.ar    1  UNL1       -0.0258
      4 C          -3.5445  -19.1935   21.8275 C.ar    1  UNL1       -0.0046
      5 C          -3.9666  -20.1339   20.7379 C.ar    1  UNL1       -0.0003
      6 C          -5.4086  -20.2134   20.3327 C.ar    1  UNL1       -0.0003
      7 C          -6.4285  -19.3526   21.0171 C.ar    1  UNL1       -0.0043
      8 C          -6.0064  -18.4122   22.1068 C.ar    1  UNL1       -0.0224
      9 C          -7.0264  -17.5512   22.7913 C.3     1  UNL1        0.0443
     10 C          -6.6043  -16.6108   23.8810 C.3     1  UNL1        0.0091
     11 C          -8.4685  -17.6307   22.3861 C.ar    1  UNL1       -0.0175
     12 C          -9.2121  -16.3830   22.0114 C.ar    1  UNL1       -0.0030
     13 C         -10.6541  -16.4626   21.6061 C.ar    1  UNL1        0.0119
     14 C         -11.3525  -17.7898   21.5757 C.ar    1  UNL1        0.0682
     15 CL        -12.7946  -17.8693   21.1705 Cl      1  UNL1       -0.0814
     16 C         -10.6089  -19.0373   21.9505 C.ar    1  UNL1        0.0679
     17 CL        -11.3073  -20.3645   21.9200 Cl      1  UNL1       -0.0814
     18 C          -9.1669  -18.9578   22.3557 C.ar    1  UNL1        0.0083
     19 C          -4.7402  -15.5908   25.3759 C.3     1  UNL1        0.0172
     20 N          -6.5370  -15.7703   27.2438 N.3     1  UNL1       -0.3211
     21 C          -5.7732  -14.9451   26.2511 C.3     1  UNL1        0.0651
     22 H          -7.1921  -15.1739   27.7493 H       1  UNL1        0.1189
     23 H          -5.8865  -16.1967   27.9037 H       1  UNL1        0.1189
@<TRIPOS>BOND
     1    20    21    1
     2    21    19    1
     3     1    19    1
     4     1     2    1
     5     2     3    1
     6     3     4   ar
     7     4     5   ar
     8     5     6   ar
     9     6     7   ar
    10     7     8   ar
    11     8     9    1
    12     9    11    1
    13    11    12   ar
    14    12    13   ar
    15    13    14   ar
    16    14    15    1
    17    14    16   ar
    18    16    17    1
    19    16    18   ar
    20     9    10    1
    21    10     1    1
    22     8     3   ar
    23    18    11   ar
    24    20    22    1
    25    20    23    1
@<TRIPOS>MOLECULE
*****
 23 25 0 0 0
SMALL
GASTEIGER

@<TRIPOS>ATOM
      1 C         -13.5818   -3.1018   19.1101 C.3     1  UNL1        0.0064
      2 C         -12.0853   -3.2031   19.0932 C.3     1  UNL1        0.0261
      3 C         -11.4256   -4.5470   18.9979 C.ar    1  UNL1       -0.0258
      4 C          -9.9292   -4.6483   18.9810 C.ar    1  UNL1       -0.0046
      5 C          -9.2696   -5.9921   18.8856 C.ar    1  UNL1       -0.0003
      6 C         -10.1064   -7.2345   18.8071 C.ar    1  UNL1       -0.0003
      7 C         -11.6028   -7.1331   18.8240 C.ar    1  UNL1       -0.0043
      8 C         -12.2625   -5.7894   18.9193 C.ar    1  UNL1       -0.0224
      9 C         -13.7590   -5.6879   18.9362 C.3     1  UNL1        0.0443
     10 C         -14.4186   -4.3442   19.0316 C.3     1  UNL1        0.0091
     11 C         -14.5958   -6.9304   18.8577 C.ar    1  UNL1       -0.0175
     12 C         -14.1958   -8.0472   17.9397 C.ar    1  UNL1       -0.0030
     13 C         -15.0326   -9.2896   17.8611 C.ar    1  UNL1        0.0119
     14 C         -16.2694   -9.4152   18.7006 C.ar    1  UNL1        0.0682
     15 CL        -17.1063  -10.6576   18.6221 Cl      1  UNL1       -0.0814
     16 C         -16.6694   -8.2983   19.6186 C.ar    1  UNL1        0.0679
     17 CL        -17.9061   -8.4238   20.4581 Cl      1  UNL1       -0.0814
     18 C         -15.8325   -7.0559   19.6971 C.ar    1  UNL1        0.0083
     19 C         -14.2415   -1.7580   19.2055 C.3     1  UNL1        0.0172
     20 N         -16.2999   -0.8173   20.4813 N.3     1  UNL1       -0.3211
     21 C         -15.7280   -1.6631   19.3825 C.3     1  UNL1        0.0651
     22 H         -17.3182   -0.8683   20.4547 H       1  UNL1        0.1189
     23 H         -16.0046    0.1507   20.3540 H       1  UNL1        0.1189
@<TRIPOS>BOND
     1    20    21    1
     2    21    19    1
     3     1    19    1
     4     1     2    1
     5     2     3    1
     6     3     4   ar
     7     4     5   ar
     8     5     6   ar
     9     6     7   ar
    10     7     8   ar
    11     8     9    1
    12     9    11    1
    13    11    12   ar
    14    12    13   ar
    15    13    14   ar
    16    14    15    1
    17    14    16   ar
    18    16    17    1
    19    16    18   ar
    20     9    10    1
    21    10     1    1
    22     8     3   ar
    23    18    11   ar
    24    20    22    1
    25    20    23    1
