@<TRIPOS>MOLECULE
*****
 41 44 0 0 0
SMALL
GASTEIGER

@<TRIPOS>ATOM
      1 C           2.2728    1.5025   19.7288 C.3     1  UNL1        0.0777
      2 C           2.2150    0.3287   18.7967 C.3     1  UNL1        0.0412
      3 C           3.1278   -0.8426   19.0083 C.3     1  UNL1        0.0951
      4 N           4.0984   -0.8402   20.1520 N.am    1  UNL1       -0.2794
      5 C           5.0112   -2.0116   20.3635 C.2     1  UNL1        0.2251
      6 O           5.9817   -2.0091   21.5072 O.2     1  UNL1       -0.2749
      7 C           4.1562    0.3336   21.0840 C.3     1  UNL1        0.0964
      8 C           3.2434    1.5049   20.8725 C.3     1  UNL1        0.0539
      9 N          -0.9729    3.7855   19.7848 N.am    1  UNL1       -0.2485
     10 C          -0.0601    2.6141   19.9963 C.2     1  UNL1        0.3058
     11 O          -0.5675    1.3830   20.6870 O.2     1  UNL1       -0.2524
     12 N           1.3600    2.6739   19.5172 N.am    1  UNL1       -0.2901
     13 H          -0.6399    4.5935   19.3315 H       1  UNL1        0.1583
     14 H           1.6930    3.4819   19.0639 H       1  UNL1        0.1509
     15 C          -4.8165    3.8461   20.3224 C.ar    1  UNL1        0.0803
     16 S          -3.6129    4.0342   19.4472 S.2     1  UNL1       -0.0488
     17 C          -2.3931    3.7257   20.2639 C.ar    1  UNL1        0.1664
     18 N          -2.8429    3.3470   21.6439 N.ar    1  UNL1       -0.2282
     19 C          -4.3406    3.4215   21.6801 C.ar    1  UNL1        0.0701
     20 C          -5.2098    3.1235   22.8657 C.3     1  UNL1        0.0528
     21 C          -6.8075    3.2802   18.7523 C.3     1  UNL1        0.0779
     22 C          -6.2451    4.0474   19.9120 C.2     1  UNL1        0.1807
     23 O          -7.1114    5.0159   20.6613 O.2     1  UNL1       -0.2908
     24 C           4.9534   -3.1853   19.4314 C.3     1  UNL1        0.0767
     25 C           4.0835   -4.3622   19.7604 C.3     1  UNL1        0.0096
     26 C           5.7655   -3.1823   18.1703 C.3     1  UNL1        0.0096
     27 C           3.3011    2.6788   21.8046 C.3     1  UNL1        0.0754
     28 N           2.1202    3.0095   22.6682 N.3     1  UNL1       -0.2726
     29 C           1.4988    4.3730   22.5991 C.3     1  UNL1        0.0721
     30 C           0.3178    4.7037   23.4627 C.3     1  UNL1        0.0174
     31 C          -0.2418    3.6708   24.3956 C.3     1  UNL1        0.0031
     32 C           0.3796    2.3074   24.4647 C.3     1  UNL1        0.0204
     33 C           1.5606    1.9767   23.6010 C.3     1  UNL1        0.0724
     34 C          -0.1800    1.2745   25.3976 C.3     1  UNL1        0.0277
     35 C           0.0656    1.3849   26.8732 C.ar    1  UNL1       -0.0220
     36 C           1.2024    2.2199   27.3838 C.ar    1  UNL1       -0.0020
     37 C           1.4480    2.3304   28.8595 C.ar    1  UNL1        0.0293
     38 C           0.5569    1.6058   29.8244 C.ar    1  UNL1        0.1401
     39 F           0.8026    1.7162   31.3000 F       1  UNL1       -0.2042
     40 C          -0.5797    0.7708   29.3137 C.ar    1  UNL1        0.0293
     41 C          -0.8254    0.6604   27.8381 C.ar    1  UNL1       -0.0020
@<TRIPOS>BOND
     1    21    22    1
     2    22    23    2
     3    22    15    1
     4    15    16   ar
     5    16    17   ar
     6    17     9    1
     7     9    10   am
     8    10    11    2
     9    10    12   am
    10     1    12    1
    11     1     2    1
    12     2     3    1
    13     3     4    1
    14     4     5   am
    15     5     6    2
    16     5    24    1
    17    24    25    1
    18    24    26    1
    19     4     7    1
    20     7     8    1
    21     8    27    1
    22    27    28    1
    23    28    29    1
    24    29    30    1
    25    30    31    1
    26    31    32    1
    27    32    34    1
    28    34    35    1
    29    35    36   ar
    30    36    37   ar
    31    37    38   ar
    32    38    39    1
    33    38    40   ar
    34    40    41   ar
    35    32    33    1
    36    17    18   ar
    37    18    19   ar
    38    19    20    1
    39    19    15   ar
    40     8     1    1
    41    33    28    1
    42    41    35   ar
    43     9    13    1
    44    12    14    1
@<TRIPOS>MOLECULE
*****
 41 44 0 0 0
SMALL
GASTEIGER

@<TRIPOS>ATOM
      1 C           6.7476   -2.3728   24.2756 C.3     1  UNL1        0.0777
      2 C           6.8544   -3.1209   25.5714 C.3     1  UNL1        0.0412
      3 C           7.3037   -4.5520   25.5763 C.3     1  UNL1        0.0951
      4 N           7.6462   -5.2350   24.2855 N.am    1  UNL1       -0.2794
      5 C           8.0955   -6.6662   24.2905 C.2     1  UNL1        0.2251
      6 O           8.4380   -7.3492   22.9997 O.2     1  UNL1       -0.2749
      7 C           7.5394   -4.4869   22.9898 C.3     1  UNL1        0.0964
      8 C           7.0901   -3.0558   22.9848 C.3     1  UNL1        0.0539
      9 N           4.4541    0.8391   24.6926 N.am    1  UNL1       -0.2485
     10 C           4.9034   -0.5920   24.6975 C.2     1  UNL1        0.3058
     11 O           3.9579   -1.6735   25.1294 O.2     1  UNL1       -0.2524
     12 N           6.2983   -0.9417   24.2707 N.am    1  UNL1       -0.2901
     13 H           5.0747    1.5489   24.4092 H       1  UNL1        0.1583
     14 H           6.9188   -0.2319   23.9873 H       1  UNL1        0.1509
     15 C           1.1024    1.6087   26.4923 C.ar    1  UNL1        0.0803
     16 S           2.5461    1.2033   26.5288 S.2     1  UNL1       -0.0488
     17 C           3.0593    1.1887   25.1194 C.ar    1  UNL1        0.1664
     18 N           1.9327    1.5852   24.2119 N.ar    1  UNL1       -0.2282
     19 C           0.7233    1.8448   25.0603 C.ar    1  UNL1        0.0701
     20 C          -0.6279    2.2664   24.5639 C.3     1  UNL1        0.0528
     21 C          -0.7549    0.6493   28.0350 C.3     1  UNL1        0.0779
     22 C           0.1968    1.7529   27.6794 C.2     1  UNL1        0.1807
     23 O           0.2428    3.0005   28.5107 O.2     1  UNL1       -0.2908
     24 C           8.2023   -7.4142   25.5862 C.3     1  UNL1        0.0767
     25 C           9.5358   -7.5680   26.2558 C.3     1  UNL1        0.0096
     26 C           6.9757   -8.0086   26.2124 C.3     1  UNL1        0.0096
     27 C           6.9833   -2.3077   21.6891 C.3     1  UNL1        0.0754
     28 N           5.8477   -2.5909   20.7509 N.3     1  UNL1       -0.2726
     29 C           5.3706   -3.9994   20.5545 C.3     1  UNL1        0.0721
     30 C           4.2349   -4.2826   19.6164 C.3     1  UNL1        0.0174
     31 C           3.5764   -3.1573   18.8747 C.3     1  UNL1        0.0031
     32 C           4.0535   -1.7489   19.0712 C.3     1  UNL1        0.0204
     33 C           5.1891   -1.4657   20.0093 C.3     1  UNL1        0.0724
     34 C           3.3949   -0.6236   18.3295 C.3     1  UNL1        0.0277
     35 C           2.2928    0.1595   18.9793 C.ar    1  UNL1       -0.0220
     36 C           2.1372    1.6220   18.6842 C.ar    1  UNL1       -0.0020
     37 C           1.0351    2.4050   19.3340 C.ar    1  UNL1        0.0293
     38 C           0.0887    1.7256   20.2790 C.ar    1  UNL1        0.1401
     39 F          -1.0133    2.5087   20.9288 F       1  UNL1       -0.2042
     40 C           0.2444    0.2632   20.5740 C.ar    1  UNL1        0.0293
     41 C           1.3465   -0.5198   19.9242 C.ar    1  UNL1       -0.0020
@<TRIPOS>BOND
     1    21    22    1
     2    22    23    2
     3    22    15    1
     4    15    16   ar
     5    16    17   ar
     6    17     9    1
     7     9    10   am
     8    10    11    2
     9    10    12   am
    10     1    12    1
    11     1     2    1
    12     2     3    1
    13     3     4    1
    14     4     5   am
    15     5     6    2
    16     5    24    1
    17    24    25    1
    18    24    26    1
    19     4     7    1
    20     7     8    1
    21     8    27    1
    22    27    28    1
    23    28    29    1
    24    29    30    1
    25    30    31    1
    26    31    32    1
    27    32    34    1
    28    34    35    1
    29    35    36   ar
    30    36    37   ar
    31    37    38   ar
    32    38    39    1
    33    38    40   ar
    34    40    41   ar
    35    32    33    1
    36    17    18   ar
    37    18    19   ar
    38    19    20    1
    39    19    15   ar
    40     8     1    1
    41    33    28    1
    42    41    35   ar
    43     9    13    1
    44    12    14    1
@<TRIPOS>MOLECULE
*****
 41 44 0 0 0
SMALL
GASTEIGER

@<TRIPOS>ATOM
      1 C          -0.7846    4.0203   24.5139 C.3     1  UNL1        0.0777
      2 C          -1.5513    3.9004   25.7976 C.3     1  UNL1        0.0412
      3 C          -1.1392    2.8887   26.8255 C.3     1  UNL1        0.0951
      4 N           0.0395    1.9970   26.5698 N.am    1  UNL1       -0.2794
      5 C           0.4515    0.9853   27.5978 C.2     1  UNL1        0.2251
      6 O           1.6302    0.0935   27.3421 O.2     1  UNL1       -0.2749
      7 C           0.8061    2.1169   25.2861 C.3     1  UNL1        0.0964
      8 C           0.3941    3.1285   24.2582 C.3     1  UNL1        0.0539
      9 N          -2.4392    5.6224   21.2819 N.am    1  UNL1       -0.2485
     10 C          -2.0272    4.6108   22.3099 C.2     1  UNL1        0.3058
     11 O          -2.4456    3.1779   22.1620 O.2     1  UNL1       -0.2524
     12 N          -1.1967    5.0320   23.4859 N.am    1  UNL1       -0.2901
     13 H          -2.1646    6.5628   21.3790 H       1  UNL1        0.1583
     14 H          -0.9221    5.9724   23.5830 H       1  UNL1        0.1509
     15 C          -5.1503    4.8734   18.6071 C.ar    1  UNL1        0.0803
     16 S          -4.7330    5.4719   19.9177 S.2     1  UNL1       -0.0488
     17 C          -3.2697    5.2012   20.1059 C.ar    1  UNL1        0.1664
     18 N          -2.7827    4.4353   18.9117 N.ar    1  UNL1       -0.2282
     19 C          -3.9449    4.2327   17.9854 C.ar    1  UNL1        0.0701
     20 C          -3.9083    3.5153   16.6685 C.3     1  UNL1        0.0528
     21 C          -6.8659    5.9064   16.9521 C.3     1  UNL1        0.0779
     22 C          -6.5307    4.9092   18.0212 C.2     1  UNL1        0.1807
     23 O          -7.5757    3.9479   18.5045 O.2     1  UNL1       -0.2908
     24 C          -0.3151    0.8654   28.8815 C.3     1  UNL1        0.0767
     25 C          -1.5098   -0.0384   28.9600 C.3     1  UNL1        0.0096
     26 C           0.1127    1.6493   30.0866 C.3     1  UNL1        0.0096
     27 C           1.1608    3.2485   22.9745 C.3     1  UNL1        0.0754
     28 N           1.3625    2.0423   22.1059 N.3     1  UNL1       -0.2726
     29 C           0.2270    1.5144   21.2800 C.3     1  UNL1        0.0721
     30 C           0.4288    0.3082   20.4115 C.3     1  UNL1        0.0174
     31 C           1.7660   -0.3701   20.3688 C.3     1  UNL1        0.0031
     32 C           2.9014    0.1578   21.1947 C.3     1  UNL1        0.0204
     33 C           2.6997    1.3640   22.0632 C.3     1  UNL1        0.0724
     34 C           4.2387   -0.5205   21.1520 C.3     1  UNL1        0.0277
     35 C           4.3991   -1.8165   20.4140 C.ar    1  UNL1       -0.0220
     36 C           4.0686   -3.1124   21.0935 C.ar    1  UNL1       -0.0020
     37 C           4.2290   -4.4084   20.3556 C.ar    1  UNL1        0.0293
     38 C           4.7198   -4.4086   18.9381 C.ar    1  UNL1        0.1401
     39 F           4.8801   -5.7046   18.2001 F       1  UNL1       -0.2042
     40 C           5.0502   -3.1127   18.2586 C.ar    1  UNL1        0.0293
     41 C           4.8898   -1.8167   18.9966 C.ar    1  UNL1       -0.0020
@<TRIPOS>BOND
     1    21    22    1
     2    22    23    2
     3    22    15    1
     4    15    16   ar
     5    16    17   ar
     6    17     9    1
     7     9    10   am
     8    10    11    2
     9    10    12   am
    10     1    12    1
    11     1     2    1
    12     2     3    1
    13     3     4    1
    14     4     5   am
    15     5     6    2
    16     5    24    1
    17    24    25    1
    18    24    26    1
    19     4     7    1
    20     7     8    1
    21     8    27    1
    22    27    28    1
    23    28    29    1
    24    29    30    1
    25    30    31    1
    26    31    32    1
    27    32    34    1
    28    34    35    1
    29    35    36   ar
    30    36    37   ar
    31    37    38   ar
    32    38    39    1
    33    38    40   ar
    34    40    41   ar
    35    32    33    1
    36    17    18   ar
    37    18    19   ar
    38    19    20    1
    39    19    15   ar
    40     8     1    1
    41    33    28    1
    42    41    35   ar
    43     9    13    1
    44    12    14    1
@<TRIPOS>MOLECULE
*****
 41 44 0 0 0
SMALL
GASTEIGER

@<TRIPOS>ATOM
      1 C           3.2854   -0.4908   27.9230 C.3     1  UNL1        0.0777
      2 C           4.7153   -0.8600   28.1857 C.3     1  UNL1        0.0412
      3 C           5.1558   -1.2119   29.5757 C.3     1  UNL1        0.0951
      4 N           4.1664   -1.1947   30.7030 N.am    1  UNL1       -0.2794
      5 C           4.6069   -1.5466   32.0930 C.2     1  UNL1        0.2251
      6 O           3.6175   -1.5294   33.2203 O.2     1  UNL1       -0.2749
      7 C           2.7365   -0.8255   30.4403 C.3     1  UNL1        0.0964
      8 C           2.2960   -0.4735   29.0503 C.3     1  UNL1        0.0539
      9 N           3.1171   -0.3716   23.9597 N.am    1  UNL1       -0.2485
     10 C           3.5576   -0.7235   25.3497 C.2     1  UNL1        0.3058
     11 O           4.7109   -1.6601   25.5565 O.2     1  UNL1       -0.2524
     12 N           2.8449   -0.1388   26.5330 N.am    1  UNL1       -0.2901
     13 H           2.3602    0.2431   23.8241 H       1  UNL1        0.1583
     14 H           2.0879    0.4759   26.3973 H       1  UNL1        0.1509
     15 C           4.2691   -2.0693   20.6649 C.ar    1  UNL1        0.0803
     16 S           3.1848   -1.6451   21.6106 S.2     1  UNL1       -0.0488
     17 C           3.8299   -0.9563   22.7765 C.ar    1  UNL1        0.1664
     18 N           5.3129   -0.9548   22.5513 N.ar    1  UNL1       -0.2282
     19 C           5.5843   -1.6427   21.2463 C.ar    1  UNL1        0.0701
     20 C           6.9341   -1.8649   20.6308 C.3     1  UNL1        0.0528
     21 C           3.5339   -4.1931   19.3613 C.3     1  UNL1        0.0779
     22 C           4.0726   -2.7932   19.3658 C.2     1  UNL1        0.1807
     23 O           4.4148   -2.1171   18.0714 O.2     1  UNL1       -0.2908
     24 C           6.0368   -1.9158   32.3557 C.3     1  UNL1        0.0767
     25 C           7.0247   -0.8575   32.7483 C.3     1  UNL1        0.0096
     26 C           6.4789   -3.3433   32.2258 C.3     1  UNL1        0.0096
     27 C           0.8660   -0.1043   28.7876 C.3     1  UNL1        0.0754
     28 N           0.5301    1.2500   28.2371 N.3     1  UNL1       -0.2726
     29 C           1.0281    2.4849   28.9278 C.3     1  UNL1        0.0721
     30 C           0.6922    3.8392   28.3774 C.3     1  UNL1        0.0174
     31 C          -0.1417    3.9586   27.1362 C.3     1  UNL1        0.0031
     32 C          -0.6396    2.7237   26.4455 C.3     1  UNL1        0.0204
     33 C          -0.3037    1.3694   26.9960 C.3     1  UNL1        0.0724
     34 C          -1.4734    2.8431   25.2043 C.3     1  UNL1        0.0277
     35 C          -2.8492    3.4361   25.2792 C.ar    1  UNL1       -0.0220
     36 C          -3.6740    3.5769   24.0342 C.ar    1  UNL1       -0.0020
     37 C          -5.0498    4.1699   24.1091 C.ar    1  UNL1        0.0293
     38 C          -5.6007    4.6221   25.4290 C.ar    1  UNL1        0.1401
     39 F          -6.9765    5.2151   25.5039 F       1  UNL1       -0.2042
     40 C          -4.7759    4.4813   26.6739 C.ar    1  UNL1        0.0293
     41 C          -3.4001    3.8883   26.5990 C.ar    1  UNL1       -0.0020
@<TRIPOS>BOND
     1    21    22    1
     2    22    23    2
     3    22    15    1
     4    15    16   ar
     5    16    17   ar
     6    17     9    1
     7     9    10   am
     8    10    11    2
     9    10    12   am
    10     1    12    1
    11     1     2    1
    12     2     3    1
    13     3     4    1
    14     4     5   am
    15     5     6    2
    16     5    24    1
    17    24    25    1
    18    24    26    1
    19     4     7    1
    20     7     8    1
    21     8    27    1
    22    27    28    1
    23    28    29    1
    24    29    30    1
    25    30    31    1
    26    31    32    1
    27    32    34    1
    28    34    35    1
    29    35    36   ar
    30    36    37   ar
    31    37    38   ar
    32    38    39    1
    33    38    40   ar
    34    40    41   ar
    35    32    33    1
    36    17    18   ar
    37    18    19   ar
    38    19    20    1
    39    19    15   ar
    40     8     1    1
    41    33    28    1
    42    41    35   ar
    43     9    13    1
    44    12    14    1
@<TRIPOS>MOLECULE
*****
 41 44 0 0 0
SMALL
GASTEIGER

@<TRIPOS>ATOM
      1 C           0.9870    0.5009   20.3047 C.3     1  UNL1        0.0777
      2 C           1.7762   -0.5872   20.9703 C.3     1  UNL1        0.0412
      3 C           2.8798   -1.2768   20.2244 C.3     1  UNL1        0.0951
      4 N           3.1942   -0.8783   18.8129 N.am    1  UNL1       -0.2794
      5 C           4.2979   -1.5680   18.0670 C.2     1  UNL1        0.2251
      6 O           4.6122   -1.1696   16.6554 O.2     1  UNL1       -0.2749
      7 C           2.4049    0.2097   18.1473 C.3     1  UNL1        0.0964
      8 C           1.3013    0.8993   18.8932 C.3     1  UNL1        0.0539
      9 N          -0.8941    2.8126   22.9253 N.am    1  UNL1       -0.2485
     10 C           0.2095    2.1229   22.1794 C.2     1  UNL1        0.3058
     11 O           1.6394    2.3656   22.5624 O.2     1  UNL1       -0.2524
     12 N          -0.1167    1.1906   21.0506 N.am    1  UNL1       -0.2901
     13 H          -1.8326    2.6533   22.6740 H       1  UNL1        0.1583
     14 H          -1.0552    1.0313   20.7992 H       1  UNL1        0.1509
     15 C          -0.3139    4.6709   26.2833 C.ar    1  UNL1        0.0803
     16 S          -0.7774    3.4696   25.5137 S.2     1  UNL1       -0.0488
     17 C          -0.5679    3.7449   24.0541 C.ar    1  UNL1        0.1664
     18 N           0.0251    5.1164   23.9217 N.ar    1  UNL1       -0.2282
     19 C           0.1821    5.6886   25.2993 C.ar    1  UNL1        0.0701
     20 C           0.7375    7.0412   25.6342 C.3     1  UNL1        0.0528
     21 C           0.4793    3.9165   28.6395 C.3     1  UNL1        0.0779
     22 C          -0.3415    4.8269   27.7749 C.2     1  UNL1        0.1807
     23 O          -1.1898    5.8932   28.4018 O.2     1  UNL1       -0.2908
     24 C           5.0872   -2.6561   18.7326 C.3     1  UNL1        0.0767
     25 C           6.3616   -2.3258   19.4515 C.3     1  UNL1        0.0096
     26 C           4.6020   -4.0745   18.6794 C.3     1  UNL1        0.0096
     27 C           0.5120    1.9875   18.2275 C.3     1  UNL1        0.0754
     28 N           0.2501    3.2745   18.9520 N.3     1  UNL1       -0.2726
     29 C           1.3961    4.1524   19.3597 C.3     1  UNL1        0.0721
     30 C           1.1342    5.4394   20.0842 C.3     1  UNL1        0.0174
     31 C          -0.2738    5.8486   20.4010 C.3     1  UNL1        0.0031
     32 C          -1.4197    4.9708   19.9934 C.3     1  UNL1        0.0204
     33 C          -1.1578    3.6838   19.2689 C.3     1  UNL1        0.0724
     34 C          -2.8276    5.3800   20.3102 C.3     1  UNL1        0.0277
     35 C          -3.4850    4.8938   21.5678 C.ar    1  UNL1       -0.0220
     36 C          -3.4147    5.7194   22.8183 C.ar    1  UNL1       -0.0020
     37 C          -4.0721    5.2332   24.0758 C.ar    1  UNL1        0.0293
     38 C          -4.7997    3.9214   24.0829 C.ar    1  UNL1        0.1401
     39 F          -5.4570    3.4352   25.3405 F       1  UNL1       -0.2042
     40 C          -4.8699    3.0960   22.8325 C.ar    1  UNL1        0.0293
     41 C          -4.2126    3.5822   21.5749 C.ar    1  UNL1       -0.0020
@<TRIPOS>BOND
     1    21    22    1
     2    22    23    2
     3    22    15    1
     4    15    16   ar
     5    16    17   ar
     6    17     9    1
     7     9    10   am
     8    10    11    2
     9    10    12   am
    10     1    12    1
    11     1     2    1
    12     2     3    1
    13     3     4    1
    14     4     5   am
    15     5     6    2
    16     5    24    1
    17    24    25    1
    18    24    26    1
    19     4     7    1
    20     7     8    1
    21     8    27    1
    22    27    28    1
    23    28    29    1
    24    29    30    1
    25    30    31    1
    26    31    32    1
    27    32    34    1
    28    34    35    1
    29    35    36   ar
    30    36    37   ar
    31    37    38   ar
    32    38    39    1
    33    38    40   ar
    34    40    41   ar
    35    32    33    1
    36    17    18   ar
    37    18    19   ar
    38    19    20    1
    39    19    15   ar
    40     8     1    1
    41    33    28    1
    42    41    35   ar
    43     9    13    1
    44    12    14    1
@<TRIPOS>MOLECULE
*****
 41 44 0 0 0
SMALL
GASTEIGER

@<TRIPOS>ATOM
      1 C          -0.8865    4.2278   24.6629 C.3     1  UNL1        0.0777
      2 C          -1.7715    3.7203   25.7625 C.3     1  UNL1        0.0412
      3 C          -1.2500    2.7065   26.7373 C.3     1  UNL1        0.0951
      4 N           0.1564    2.2002   26.6124 N.am    1  UNL1       -0.2794
      5 C           0.6778    1.1863   27.5872 C.2     1  UNL1        0.2251
      6 O           2.0842    0.6799   27.4623 O.2     1  UNL1       -0.2749
      7 C           1.0413    2.7076   25.5127 C.3     1  UNL1        0.0964
      8 C           0.5199    3.7214   24.5380 C.3     1  UNL1        0.0539
      9 N          -2.6916    5.8078   21.5013 N.am    1  UNL1       -0.2485
     10 C          -2.1701    4.7940   22.4761 C.2     1  UNL1        0.3058
     11 O          -2.4108    3.3325   22.2390 O.2     1  UNL1       -0.2524
     12 N          -1.4080    5.2417   23.6880 N.am    1  UNL1       -0.2901
     13 H          -2.5336    6.7670   21.6569 H       1  UNL1        0.1583
     14 H          -1.2500    6.2009   23.8436 H       1  UNL1        0.1509
     15 C          -5.2500    4.9828   18.7014 C.ar    1  UNL1        0.0803
     16 S          -4.9105    5.6010   20.0253 S.2     1  UNL1       -0.0488
     17 C          -3.4537    5.3602   20.2894 C.ar    1  UNL1        0.1664
     18 N          -2.8929    4.5931   19.1287 N.ar    1  UNL1       -0.2282
     19 C          -4.0031    4.3599   18.1473 C.ar    1  UNL1        0.0701
     20 C          -3.8867    3.6316   16.8412 C.3     1  UNL1        0.0528
     21 C          -6.9132    5.9948   16.9811 C.3     1  UNL1        0.0779
     22 C          -6.5996    4.9868   18.0467 C.2     1  UNL1        0.1807
     23 O          -7.6355    3.9829   18.4576 O.2     1  UNL1       -0.2908
     24 C          -0.2072    0.6788   28.6869 C.3     1  UNL1        0.0767
     25 C          -1.1256   -0.4804   28.4360 C.3     1  UNL1        0.0096
     26 C          -0.1738    1.3305   30.0375 C.3     1  UNL1        0.0096
     27 C           1.4048    4.2289   23.4382 C.3     1  UNL1        0.0754
     28 N           1.1153    3.8620   22.0129 N.3     1  UNL1       -0.2726
     29 C           0.9794    4.9361   20.9747 C.3     1  UNL1        0.0721
     30 C           0.6898    4.5691   19.5494 C.3     1  UNL1        0.0174
     31 C           0.5362    3.1280   19.1623 C.3     1  UNL1        0.0031
     32 C           0.6721    2.0540   20.2005 C.3     1  UNL1        0.0204
     33 C           0.9617    2.4210   21.6258 C.3     1  UNL1        0.0724
     34 C           0.5185    0.6129   19.8134 C.3     1  UNL1        0.0277
     35 C           1.7110   -0.1706   19.3506 C.ar    1  UNL1       -0.0220
     36 C           2.3892    0.1873   18.0614 C.ar    1  UNL1       -0.0020
     37 C           3.5817   -0.5962   17.5986 C.ar    1  UNL1        0.0293
     38 C           4.0960   -1.7375   18.4251 C.ar    1  UNL1        0.1401
     39 F           5.2885   -2.5209   17.9623 F       1  UNL1       -0.2042
     40 C           3.4178   -2.0953   19.7142 C.ar    1  UNL1        0.0293
     41 C           2.2253   -1.3118   20.1770 C.ar    1  UNL1       -0.0020
@<TRIPOS>BOND
     1    21    22    1
     2    22    23    2
     3    22    15    1
     4    15    16   ar
     5    16    17   ar
     6    17     9    1
     7     9    10   am
     8    10    11    2
     9    10    12   am
    10     1    12    1
    11     1     2    1
    12     2     3    1
    13     3     4    1
    14     4     5   am
    15     5     6    2
    16     5    24    1
    17    24    25    1
    18    24    26    1
    19     4     7    1
    20     7     8    1
    21     8    27    1
    22    27    28    1
    23    28    29    1
    24    29    30    1
    25    30    31    1
    26    31    32    1
    27    32    34    1
    28    34    35    1
    29    35    36   ar
    30    36    37   ar
    31    37    38   ar
    32    38    39    1
    33    38    40   ar
    34    40    41   ar
    35    32    33    1
    36    17    18   ar
    37    18    19   ar
    38    19    20    1
    39    19    15   ar
    40     8     1    1
    41    33    28    1
    42    41    35   ar
    43     9    13    1
    44    12    14    1
@<TRIPOS>MOLECULE
*****
 41 44 0 0 0
SMALL
GASTEIGER

@<TRIPOS>ATOM
      1 C           1.9136    1.8519   19.8831 C.3     1  UNL1        0.0777
      2 C           1.9686    0.8454   18.7723 C.3     1  UNL1        0.0412
      3 C           2.7772   -0.4074   18.9348 C.3     1  UNL1        0.0951
      4 N           3.5309   -0.6538   20.2081 N.am    1  UNL1       -0.2794
      5 C           4.3396   -1.9067   20.3705 C.2     1  UNL1        0.2251
      6 O           5.0933   -2.1531   21.6438 O.2     1  UNL1       -0.2749
      7 C           3.4760    0.3527   21.3189 C.3     1  UNL1        0.0964
      8 C           2.6673    1.6055   21.1564 C.3     1  UNL1        0.0539
      9 N          -1.1924    4.3179   19.7375 N.am    1  UNL1       -0.2485
     10 C          -0.3838    3.0651   19.8999 C.2     1  UNL1        0.3058
     11 O          -1.0638    1.7724   20.2417 O.2     1  UNL1       -0.2524
     12 N           1.1050    3.1048   19.7207 N.am    1  UNL1       -0.2901
     13 H          -0.7461    5.1663   19.5132 H       1  UNL1        0.1583
     14 H           1.5513    3.9532   19.4964 H       1  UNL1        0.1509
     15 C          -4.9026    4.5733   20.8490 C.ar    1  UNL1        0.0803
     16 S          -3.4437    4.8312   21.0841 S.2     1  UNL1       -0.0488
     17 C          -2.6811    4.2782   19.9168 C.ar    1  UNL1        0.1664
     18 N          -3.6687    3.6784   18.9603 N.ar    1  UNL1       -0.2282
     19 C          -5.0416    3.8608   19.5364 C.ar    1  UNL1        0.0701
     20 C          -6.3277    3.4098   18.9098 C.3     1  UNL1        0.0528
     21 C          -6.5355    3.9808   22.7809 C.3     1  UNL1        0.0779
     22 C          -6.0252    4.9600   21.7656 C.2     1  UNL1        0.1807
     23 O          -6.6374    6.3257   21.6669 O.2     1  UNL1       -0.2908
     24 C           4.3946   -2.9132   19.2597 C.3     1  UNL1        0.0767
     25 C           5.4022   -2.7611   18.1590 C.3     1  UNL1        0.0096
     26 C           3.4419   -4.0718   19.2496 C.3     1  UNL1        0.0096
     27 C           2.6124    2.6121   22.2672 C.3     1  UNL1        0.0754
     28 N           1.5927    2.4701   23.3582 N.3     1  UNL1       -0.2726
     29 C           1.1608    1.1059   23.8082 C.3     1  UNL1        0.0721
     30 C           0.1411    0.9639   24.8991 C.3     1  UNL1        0.0174
     31 C          -0.4466    2.1862   25.5400 C.3     1  UNL1        0.0031
     32 C          -0.0147    3.5503   25.0900 C.3     1  UNL1        0.0204
     33 C           1.0049    3.6923   23.9991 C.3     1  UNL1        0.0724
     34 C          -0.6025    4.7726   25.7310 C.3     1  UNL1        0.0277
     35 C          -2.0905    4.9584   25.7672 C.ar    1  UNL1       -0.0220
     36 C          -2.9134    4.2244   26.7842 C.ar    1  UNL1       -0.0020
     37 C          -4.4014    4.4103   26.8204 C.ar    1  UNL1        0.0293
     38 C          -5.0665    5.3301   25.8398 C.ar    1  UNL1        0.1401
     39 F          -6.5545    5.5160   25.8761 F       1  UNL1       -0.2042
     40 C          -4.2435    6.0641   24.8229 C.ar    1  UNL1        0.0293
     41 C          -2.7555    5.8782   24.7867 C.ar    1  UNL1       -0.0020
@<TRIPOS>BOND
     1    21    22    1
     2    22    23    2
     3    22    15    1
     4    15    16   ar
     5    16    17   ar
     6    17     9    1
     7     9    10   am
     8    10    11    2
     9    10    12   am
    10     1    12    1
    11     1     2    1
    12     2     3    1
    13     3     4    1
    14     4     5   am
    15     5     6    2
    16     5    24    1
    17    24    25    1
    18    24    26    1
    19     4     7    1
    20     7     8    1
    21     8    27    1
    22    27    28    1
    23    28    29    1
    24    29    30    1
    25    30    31    1
    26    31    32    1
    27    32    34    1
    28    34    35    1
    29    35    36   ar
    30    36    37   ar
    31    37    38   ar
    32    38    39    1
    33    38    40   ar
    34    40    41   ar
    35    32    33    1
    36    17    18   ar
    37    18    19   ar
    38    19    20    1
    39    19    15   ar
    40     8     1    1
    41    33    28    1
    42    41    35   ar
    43     9    13    1
    44    12    14    1
@<TRIPOS>MOLECULE
*****
 41 44 0 0 0
SMALL
GASTEIGER

@<TRIPOS>ATOM
      1 C           2.9644   -0.1102   22.7753 C.3     1  UNL1        0.0777
      2 C           3.3530   -1.2100   21.8324 C.3     1  UNL1        0.0412
      3 C           3.7931   -0.8808   20.4367 C.3     1  UNL1        0.0951
      4 N           3.8446    0.5484   19.9841 N.am    1  UNL1       -0.2794
      5 C           4.2847    0.8776   18.5883 C.2     1  UNL1        0.2251
      6 O           4.3363    2.3067   18.1357 O.2     1  UNL1       -0.2749
      7 C           3.4561    1.6482   20.9270 C.3     1  UNL1        0.0964
      8 C           3.0160    1.3190   22.3227 C.3     1  UNL1        0.0539
      9 N           3.0923   -0.8321   26.6757 N.am    1  UNL1       -0.2485
     10 C           3.5324   -0.5029   25.2800 C.2     1  UNL1        0.3058
     11 O           4.9806   -0.2372   24.9932 O.2     1  UNL1       -0.2524
     12 N           2.5243   -0.4394   24.1711 N.am    1  UNL1       -0.2901
     13 H           2.1418   -1.0065   26.8639 H       1  UNL1        0.1583
     14 H           1.5738   -0.6138   24.3592 H       1  UNL1        0.1509
     15 C           5.8367   -1.6897   29.2830 C.ar    1  UNL1        0.0803
     16 S           4.9924   -2.0597   28.0997 S.2     1  UNL1       -0.0488
     17 C           4.1004   -0.8956   27.7846 C.ar    1  UNL1        0.1664
     18 N           4.3935    0.1938   28.7731 N.ar    1  UNL1       -0.2282
     19 C           5.4666   -0.2970   29.6992 C.ar    1  UNL1        0.0701
     20 C           6.0646    0.4703   30.8410 C.3     1  UNL1        0.0528
     21 C           6.5027   -3.3967   31.1249 C.3     1  UNL1        0.0779
     22 C           6.8698   -2.5598   29.9355 C.2     1  UNL1        0.1807
     23 O           8.2700   -2.5929   29.3986 O.2     1  UNL1       -0.2908
     24 C           4.6733   -0.2223   17.6454 C.3     1  UNL1        0.0767
     25 C           3.6265   -0.9008   16.8123 C.3     1  UNL1        0.0096
     26 C           6.1087   -0.6438   17.5354 C.3     1  UNL1        0.0096
     27 C           2.6274    2.4189   23.2657 C.3     1  UNL1        0.0754
     28 N           1.1784    2.7144   23.5169 N.3     1  UNL1       -0.2726
     29 C           0.3115    3.2186   22.4014 C.3     1  UNL1        0.0721
     30 C          -1.1375    3.5141   22.6525 C.3     1  UNL1        0.0174
     31 C          -1.7196    3.3055   24.0192 C.3     1  UNL1        0.0031
     32 C          -0.8527    2.8014   25.1347 C.3     1  UNL1        0.0204
     33 C           0.5963    2.5059   24.8835 C.3     1  UNL1        0.0724
     34 C          -1.4347    2.5928   26.5014 C.3     1  UNL1        0.0277
     35 C          -0.5823    2.0352   27.6024 C.ar    1  UNL1       -0.0220
     36 C          -0.6120    0.5658   27.9031 C.ar    1  UNL1       -0.0020
     37 C           0.2404    0.0082   29.0041 C.ar    1  UNL1        0.0293
     38 C           1.1226    0.9199   29.8046 C.ar    1  UNL1        0.1401
     39 F           1.9751    0.3623   30.9057 F       1  UNL1       -0.2042
     40 C           1.1523    2.3891   29.5040 C.ar    1  UNL1        0.0293
     41 C           0.2999    2.9468   28.4029 C.ar    1  UNL1       -0.0020
@<TRIPOS>BOND
     1    21    22    1
     2    22    23    2
     3    22    15    1
     4    15    16   ar
     5    16    17   ar
     6    17     9    1
     7     9    10   am
     8    10    11    2
     9    10    12   am
    10     1    12    1
    11     1     2    1
    12     2     3    1
    13     3     4    1
    14     4     5   am
    15     5     6    2
    16     5    24    1
    17    24    25    1
    18    24    26    1
    19     4     7    1
    20     7     8    1
    21     8    27    1
    22    27    28    1
    23    28    29    1
    24    29    30    1
    25    30    31    1
    26    31    32    1
    27    32    34    1
    28    34    35    1
    29    35    36   ar
    30    36    37   ar
    31    37    38   ar
    32    38    39    1
    33    38    40   ar
    34    40    41   ar
    35    32    33    1
    36    17    18   ar
    37    18    19   ar
    38    19    20    1
    39    19    15   ar
    40     8     1    1
    41    33    28    1
    42    41    35   ar
    43     9    13    1
    44    12    14    1
@<TRIPOS>MOLECULE
*****
 41 44 0 0 0
SMALL
GASTEIGER

@<TRIPOS>ATOM
      1 C           3.3603    1.5123   25.3801 C.3     1  UNL1        0.0777
      2 C           3.1821    0.6890   26.6212 C.3     1  UNL1        0.0412
      3 C           1.8828    0.7317   27.3694 C.3     1  UNL1        0.0951
      4 N           0.7617    1.5978   26.8765 N.am    1  UNL1       -0.2794
      5 C          -0.5377    1.6405   27.6248 C.2     1  UNL1        0.2251
      6 O          -1.6589    2.5066   27.1319 O.2     1  UNL1       -0.2749
      7 C           0.9398    2.4211   25.6354 C.3     1  UNL1        0.0964
      8 C           2.2392    2.3784   24.8872 C.3     1  UNL1        0.0539
      9 N           6.2408    0.3006   22.9337 N.am    1  UNL1       -0.2485
     10 C           4.9415    0.3434   23.6819 C.2     1  UNL1        0.3058
     11 O           3.9238   -0.7401   23.4803 O.2     1  UNL1       -0.2524
     12 N           4.6597    1.4696   24.6318 N.am    1  UNL1       -0.2901
     13 H           6.9086    1.0117   23.0660 H       1  UNL1        0.1583
     14 H           5.3276    2.1807   24.7642 H       1  UNL1        0.1509
     15 C           6.5029   -2.2436   20.0141 C.ar    1  UNL1        0.0803
     16 S           5.9548   -0.9779   20.6037 S.2     1  UNL1       -0.0488
     17 C           6.5225   -0.8256   21.9838 C.ar    1  UNL1        0.1664
     18 N           7.4214   -1.9971   22.2471 N.ar    1  UNL1       -0.2282
     19 C           7.4093   -2.8736   21.0298 C.ar    1  UNL1        0.0701
     20 C           8.1700   -4.1549   20.8584 C.3     1  UNL1        0.0528
     21 C           5.0648   -3.7489   18.4598 C.3     1  UNL1        0.0779
     22 C           6.1980   -2.7845   18.6486 C.2     1  UNL1        0.1807
     23 O           7.0263   -2.3608   17.4721 O.2     1  UNL1       -0.2908
     24 C          -0.7159    0.8172   28.8659 C.3     1  UNL1        0.0767
     25 C          -1.4038   -0.5137   28.7907 C.3     1  UNL1        0.0096
     26 C          -0.2062    1.3247   30.1822 C.3     1  UNL1        0.0096
     27 C           2.4174    3.2017   23.6461 C.3     1  UNL1        0.0754
     28 N           1.5471    2.9533   22.4499 N.3     1  UNL1       -0.2726
     29 C           0.3158    3.7822   22.2331 C.3     1  UNL1        0.0721
     30 C          -0.5545    3.5337   21.0369 C.3     1  UNL1        0.0174
     31 C          -0.1935    2.4564   20.0575 C.3     1  UNL1        0.0031
     32 C           1.0377    1.6276   20.2743 C.3     1  UNL1        0.0204
     33 C           1.9080    1.8761   21.4705 C.3     1  UNL1        0.0724
     34 C           1.3987    0.5503   19.2949 C.3     1  UNL1        0.0277
     35 C           2.7020    0.6154   18.5551 C.ar    1  UNL1       -0.0220
     36 C           3.6253    1.7791   18.7632 C.ar    1  UNL1       -0.0020
     37 C           4.9285    1.8442   18.0234 C.ar    1  UNL1        0.0293
     38 C           5.3085    0.7455   17.0755 C.ar    1  UNL1        0.1401
     39 F           6.6117    0.8105   16.3356 F       1  UNL1       -0.2042
     40 C           4.3852   -0.4182   16.8674 C.ar    1  UNL1        0.0293
     41 C           3.0819   -0.4833   17.6072 C.ar    1  UNL1       -0.0020
@<TRIPOS>BOND
     1    21    22    1
     2    22    23    2
     3    22    15    1
     4    15    16   ar
     5    16    17   ar
     6    17     9    1
     7     9    10   am
     8    10    11    2
     9    10    12   am
    10     1    12    1
    11     1     2    1
    12     2     3    1
    13     3     4    1
    14     4     5   am
    15     5     6    2
    16     5    24    1
    17    24    25    1
    18    24    26    1
    19     4     7    1
    20     7     8    1
    21     8    27    1
    22    27    28    1
    23    28    29    1
    24    29    30    1
    25    30    31    1
    26    31    32    1
    27    32    34    1
    28    34    35    1
    29    35    36   ar
    30    36    37   ar
    31    37    38   ar
    32    38    39    1
    33    38    40   ar
    34    40    41   ar
    35    32    33    1
    36    17    18   ar
    37    18    19   ar
    38    19    20    1
    39    19    15   ar
    40     8     1    1
    41    33    28    1
    42    41    35   ar
    43     9    13    1
    44    12    14    1
