@<TRIPOS>MOLECULE
*****
 29 32 0 0 0
SMALL
GASTEIGER

@<TRIPOS>ATOM
      1 O           3.7917   -0.4272   30.7858 O.2     1  UNL1       -0.2505
      2 C           3.1494    0.4573   31.8130 C.2     1  UNL1        0.3269
      3 N           1.9612    1.2951   31.4438 N.am    1  UNL1       -0.2668
      4 N           3.6953    0.5039   33.2094 N.am    1  UNL1       -0.1624
      5 N           3.1610    1.3359   34.3374 N.2     1  UNL1       -0.1786
      6 C           4.0068    1.0730   35.5482 C.2     1  UNL1        0.0787
      7 C           5.0637    0.0786   35.1682 C.3     1  UNL1        0.0738
      8 C           4.8711   -0.2731   33.7228 C.3     1  UNL1        0.1288
      9 H           1.5397    1.8756   32.1180 H       1  UNL1        0.1565
     10 C           1.4154    1.2484   30.0474 C.ar    1  UNL1        0.0518
     11 C           2.0436    2.0796   28.9683 C.ar    1  UNL1        0.0170
     12 C           1.4978    2.0329   27.5720 C.ar    1  UNL1        0.0309
     13 C           0.3236    1.1551   27.2547 C.ar    1  UNL1        0.1402
     14 F          -0.2223    1.1084   25.8583 F       1  UNL1       -0.2042
     15 C          -0.3047    0.3239   28.3337 C.ar    1  UNL1        0.0309
     16 C           0.2412    0.3706   29.7301 C.ar    1  UNL1        0.0170
     17 C           5.7075   -1.2331   32.9300 C.ar    1  UNL1       -0.0018
     18 C           5.3245   -2.6818   32.8610 C.ar    1  UNL1       -0.0003
     19 C           6.1610   -3.6418   32.0682 C.ar    1  UNL1        0.0294
     20 C           7.3805   -3.1532   31.3442 C.ar    1  UNL1        0.1401
     21 F           8.2169   -4.1133   30.5513 F       1  UNL1       -0.2042
     22 C           7.7636   -1.7046   31.4131 C.ar    1  UNL1        0.0294
     23 C           6.9271   -0.7446   32.2060 C.ar    1  UNL1       -0.0003
     24 C           3.8272    1.6952   36.9011 C.ar    1  UNL1        0.0182
     25 C           2.4699    2.1607   37.3384 C.ar    1  UNL1        0.0219
     26 C           2.2903    2.7829   38.6913 C.ar    1  UNL1        0.0989
     27 N           3.4679    2.9396   39.6071 N.ar    1  UNL1       -0.2423
     28 C           4.8252    2.4740   39.1698 C.ar    1  UNL1        0.0989
     29 C           5.0048    1.8518   37.8169 C.ar    1  UNL1        0.0219
@<TRIPOS>BOND
     1     1     2    2
     2     2     3   am
     3     3    10    1
     4    10    11   ar
     5    11    12   ar
     6    12    13   ar
     7    13    14    1
     8    13    15   ar
     9    15    16   ar
    10     2     4   am
    11     4     5    1
    12     5     6    2
    13     6    24    1
    14    24    25   ar
    15    25    26   ar
    16    26    27   ar
    17    27    28   ar
    18    28    29   ar
    19     6     7    1
    20     7     8    1
    21     8    17    1
    22    17    18   ar
    23    18    19   ar
    24    19    20   ar
    25    20    21    1
    26    20    22   ar
    27    22    23   ar
    28    16    10   ar
    29     8     4    1
    30    23    17   ar
    31    29    24   ar
    32     3     9    1
@<TRIPOS>MOLECULE
*****
 29 32 0 0 0
SMALL
GASTEIGER

@<TRIPOS>ATOM
      1 O          -1.4486    3.2366   22.8225 O.2     1  UNL1       -0.2505
      2 C          -1.0847    2.6538   21.4891 C.2     1  UNL1        0.3269
      3 N          -1.9536    2.9140   20.2945 N.am    1  UNL1       -0.2668
      4 N           0.1482    1.8107   21.3505 N.am    1  UNL1       -0.1624
      5 N           0.6369    1.1645   20.0881 N.2     1  UNL1       -0.1786
      6 C           1.8996    0.4202   20.4072 C.2     1  UNL1        0.0787
      7 C           2.1912    0.6065   21.8668 C.3     1  UNL1        0.0738
      8 C           1.1088    1.4658   22.4497 C.3     1  UNL1        0.1288
      9 H          -1.7148    2.5314   19.4194 H       1  UNL1        0.1565
     10 C          -3.1866    3.7571   20.4332 C.ar    1  UNL1        0.0518
     11 C          -4.4593    3.1467   20.9406 C.ar    1  UNL1        0.0170
     12 C          -5.6922    3.9898   21.0792 C.ar    1  UNL1        0.0309
     13 C          -5.6522    5.4432   20.7105 C.ar    1  UNL1        0.1402
     14 F          -6.8852    6.2863   20.8492 F       1  UNL1       -0.2042
     15 C          -4.3795    6.0536   20.2032 C.ar    1  UNL1        0.0309
     16 C          -3.1466    5.2105   20.0645 C.ar    1  UNL1        0.0170
     17 C           1.0051    1.9035   23.8806 C.ar    1  UNL1       -0.0018
     18 C           0.2351    1.0738   24.8649 C.ar    1  UNL1       -0.0003
     19 C           0.1315    1.5116   26.2958 C.ar    1  UNL1        0.0294
     20 C           0.7978    2.7791   26.7426 C.ar    1  UNL1        0.1401
     21 F           0.6940    3.2168   28.1735 F       1  UNL1       -0.2042
     22 C           1.5677    3.6088   25.7584 C.ar    1  UNL1        0.0294
     23 C           1.6714    3.1710   24.3274 C.ar    1  UNL1       -0.0003
     24 C           2.7257   -0.3714   19.4371 C.ar    1  UNL1        0.0182
     25 C           3.2771   -1.7077   19.8373 C.ar    1  UNL1        0.0219
     26 C           4.1032   -2.4992   18.8672 C.ar    1  UNL1        0.0989
     27 N           4.3777   -1.9544   17.4968 N.ar    1  UNL1       -0.2423
     28 C           3.8262   -0.6181   17.0966 C.ar    1  UNL1        0.0989
     29 C           3.0002    0.1734   18.0667 C.ar    1  UNL1        0.0219
@<TRIPOS>BOND
     1     1     2    2
     2     2     3   am
     3     3    10    1
     4    10    11   ar
     5    11    12   ar
     6    12    13   ar
     7    13    14    1
     8    13    15   ar
     9    15    16   ar
    10     2     4   am
    11     4     5    1
    12     5     6    2
    13     6    24    1
    14    24    25   ar
    15    25    26   ar
    16    26    27   ar
    17    27    28   ar
    18    28    29   ar
    19     6     7    1
    20     7     8    1
    21     8    17    1
    22    17    18   ar
    23    18    19   ar
    24    19    20   ar
    25    20    21    1
    26    20    22   ar
    27    22    23   ar
    28    16    10   ar
    29     8     4    1
    30    23    17   ar
    31    29    24   ar
    32     3     9    1
@<TRIPOS>MOLECULE
*****
 29 32 0 0 0
SMALL
GASTEIGER

@<TRIPOS>ATOM
      1 O           1.2211    1.6584   22.1048 O.2     1  UNL1       -0.2505
      2 C           0.0935    1.7820   21.1233 C.2     1  UNL1        0.3269
      3 N           0.1820    1.1011   19.7898 N.am    1  UNL1       -0.2668
      4 N          -1.1225    2.5867   21.4754 N.am    1  UNL1       -0.1624
      5 N          -2.3226    2.7992   20.6010 N.2     1  UNL1       -0.1786
      6 C          -3.2937    3.6640   21.3489 C.2     1  UNL1        0.0787
      7 C          -2.6937    3.9858   22.6855 C.3     1  UNL1        0.0738
      8 C          -1.3519    3.3200   22.7637 C.3     1  UNL1        0.1288
      9 H          -0.5581    1.1822   19.1456 H       1  UNL1        0.1565
     10 C           1.3980    0.2964   19.4377 C.ar    1  UNL1        0.0518
     11 C           1.7146   -0.9565   20.1991 C.ar    1  UNL1        0.0170
     12 C           2.9306   -1.7611   19.8470 C.ar    1  UNL1        0.0309
     13 C           3.8299   -1.3127   18.7334 C.ar    1  UNL1        0.1402
     14 F           5.0459   -2.1174   18.3813 F       1  UNL1       -0.2042
     15 C           3.5133   -0.0598   17.9719 C.ar    1  UNL1        0.0309
     16 C           2.2973    0.7448   18.3240 C.ar    1  UNL1        0.0170
     17 C          -0.4055    3.3773   23.9260 C.ar    1  UNL1       -0.0018
     18 C           0.6369    4.4539   23.9921 C.ar    1  UNL1       -0.0003
     19 C           1.5832    4.5112   25.1545 C.ar    1  UNL1        0.0294
     20 C           1.4872    3.4920   26.2509 C.ar    1  UNL1        0.1401
     21 F           2.4336    3.5494   27.4132 F       1  UNL1       -0.2042
     22 C           0.4448    2.4154   26.1848 C.ar    1  UNL1        0.0294
     23 C          -0.5015    2.3581   25.0224 C.ar    1  UNL1       -0.0003
     24 C          -4.6301    4.1257   20.8481 C.ar    1  UNL1        0.0182
     25 C          -5.3733    5.2041   21.5794 C.ar    1  UNL1        0.0219
     26 C          -6.7097    5.6659   21.0786 C.ar    1  UNL1        0.0989
     27 N          -7.3028    5.0493   19.8465 N.ar    1  UNL1       -0.2423
     28 C          -6.5596    3.9709   19.1153 C.ar    1  UNL1        0.0989
     29 C          -5.2232    3.5091   19.6161 C.ar    1  UNL1        0.0219
@<TRIPOS>BOND
     1     1     2    2
     2     2     3   am
     3     3    10    1
     4    10    11   ar
     5    11    12   ar
     6    12    13   ar
     7    13    14    1
     8    13    15   ar
     9    15    16   ar
    10     2     4   am
    11     4     5    1
    12     5     6    2
    13     6    24    1
    14    24    25   ar
    15    25    26   ar
    16    26    27   ar
    17    27    28   ar
    18    28    29   ar
    19     6     7    1
    20     7     8    1
    21     8    17    1
    22    17    18   ar
    23    18    19   ar
    24    19    20   ar
    25    20    21    1
    26    20    22   ar
    27    22    23   ar
    28    16    10   ar
    29     8     4    1
    30    23    17   ar
    31    29    24   ar
    32     3     9    1
@<TRIPOS>MOLECULE
*****
 29 32 0 0 0
SMALL
GASTEIGER

@<TRIPOS>ATOM
      1 O           2.7588    0.3301   30.5305 O.2     1  UNL1       -0.2505
      2 C           2.8307    1.0491   31.8450 C.2     1  UNL1        0.3269
      3 N           3.7999    0.5954   32.8960 N.am    1  UNL1       -0.2668
      4 N           1.9333    2.2220   32.1084 N.am    1  UNL1       -0.1624
      5 N           1.8923    3.0351   33.3682 N.2     1  UNL1       -0.1786
      6 C           0.8530    4.1033   33.1967 C.2     1  UNL1        0.0787
      7 C           0.2519    3.9501   31.8310 C.3     1  UNL1        0.0738
      8 C           0.9196    2.7874   31.1584 C.3     1  UNL1        0.1288
      9 H           3.8471    1.0673   33.7587 H       1  UNL1        0.1565
     10 C           4.6973   -0.5774   32.6326 C.ar    1  UNL1        0.0518
     11 C           4.3318   -1.9342   33.1574 C.ar    1  UNL1        0.0170
     12 C           5.2292   -3.1069   32.8940 C.ar    1  UNL1        0.0309
     13 C           6.4920   -2.9228   32.1057 C.ar    1  UNL1        0.1402
     14 F           7.3894   -4.0956   31.8423 F       1  UNL1       -0.2042
     15 C           6.8575   -1.5660   31.5808 C.ar    1  UNL1        0.0309
     16 C           5.9601   -0.3933   31.8443 C.ar    1  UNL1        0.0170
     17 C           0.6252    2.2793   29.7781 C.ar    1  UNL1       -0.0018
     18 C           1.3005    2.8991   28.5908 C.ar    1  UNL1       -0.0003
     19 C           1.0061    2.3910   27.2106 C.ar    1  UNL1        0.0294
     20 C           0.0363    1.2629   27.0176 C.ar    1  UNL1        0.1401
     21 F          -0.2580    0.7548   25.6373 F       1  UNL1       -0.2042
     22 C          -0.6390    0.6431   28.2049 C.ar    1  UNL1        0.0294
     23 C          -0.3445    1.1512   29.5851 C.ar    1  UNL1       -0.0003
     24 C           0.4804    5.1421   34.2126 C.ar    1  UNL1        0.0182
     25 C           1.2025    5.1996   35.5261 C.ar    1  UNL1        0.0219
     26 C           0.8299    6.2384   36.5420 C.ar    1  UNL1        0.0989
     27 N          -0.2648    7.2197   36.2443 N.ar    1  UNL1       -0.2423
     28 C          -0.9869    7.1622   34.9308 C.ar    1  UNL1        0.0989
     29 C          -0.6143    6.1234   33.9150 C.ar    1  UNL1        0.0219
@<TRIPOS>BOND
     1     1     2    2
     2     2     3   am
     3     3    10    1
     4    10    11   ar
     5    11    12   ar
     6    12    13   ar
     7    13    14    1
     8    13    15   ar
     9    15    16   ar
    10     2     4   am
    11     4     5    1
    12     5     6    2
    13     6    24    1
    14    24    25   ar
    15    25    26   ar
    16    26    27   ar
    17    27    28   ar
    18    28    29   ar
    19     6     7    1
    20     7     8    1
    21     8    17    1
    22    17    18   ar
    23    18    19   ar
    24    19    20   ar
    25    20    21    1
    26    20    22   ar
    27    22    23   ar
    28    16    10   ar
    29     8     4    1
    30    23    17   ar
    31    29    24   ar
    32     3     9    1
@<TRIPOS>MOLECULE
*****
 29 32 0 0 0
SMALL
GASTEIGER

@<TRIPOS>ATOM
      1 O           5.0687   -1.6693   28.6434 O.2     1  UNL1       -0.2505
      2 C           5.2424   -2.2089   27.2546 C.2     1  UNL1        0.3269
      3 N           6.1781   -3.3547   27.0067 N.am    1  UNL1       -0.2668
      4 N           4.4803   -1.6025   26.1137 N.am    1  UNL1       -0.1624
      5 N           4.5506   -2.0334   24.6786 N.2     1  UNL1       -0.1786
      6 C           3.6279   -1.1560   23.8855 C.2     1  UNL1        0.0787
      7 C           2.9873   -0.1829   24.8305 C.3     1  UNL1        0.0738
      8 C           3.5142   -0.4589   26.2076 C.3     1  UNL1        0.1288
      9 H           6.2921   -3.7088   26.0952 H       1  UNL1        0.1565
     10 C           6.9402   -3.9610   28.1476 C.ar    1  UNL1        0.0518
     11 C           6.4438   -5.2188   28.7968 C.ar    1  UNL1        0.0170
     12 C           7.2059   -5.8251   29.9376 C.ar    1  UNL1        0.0309
     13 C           8.4644   -5.1736   30.4293 C.ar    1  UNL1        0.1402
     14 F           9.2265   -5.7800   31.5702 F       1  UNL1       -0.2042
     15 C           8.9608   -3.9158   29.7801 C.ar    1  UNL1        0.0309
     16 C           8.1987   -3.3095   28.6393 C.ar    1  UNL1        0.0170
     17 C           3.1405    0.2791   27.4588 C.ar    1  UNL1       -0.0018
     18 C           2.0514   -0.2495   28.3445 C.ar    1  UNL1       -0.0003
     19 C           1.6779    0.4886   29.5958 C.ar    1  UNL1        0.0294
     20 C           2.3933    1.7553   29.9614 C.ar    1  UNL1        0.1401
     21 F           2.0197    2.4933   31.2127 F       1  UNL1       -0.2042
     22 C           3.4824    2.2838   29.0757 C.ar    1  UNL1        0.0294
     23 C           3.8560    1.5458   27.8245 C.ar    1  UNL1       -0.0003
     24 C           3.3878   -1.2374   22.4071 C.ar    1  UNL1        0.0182
     25 C           2.4299   -0.2888   21.7494 C.ar    1  UNL1        0.0219
     26 C           2.1899   -0.3702   20.2710 C.ar    1  UNL1        0.0989
     27 N           2.9078   -1.4002   19.4503 N.ar    1  UNL1       -0.2423
     28 C           3.8657   -2.3489   20.1079 C.ar    1  UNL1        0.0989
     29 C           4.1057   -2.2674   21.5864 C.ar    1  UNL1        0.0219
@<TRIPOS>BOND
     1     1     2    2
     2     2     3   am
     3     3    10    1
     4    10    11   ar
     5    11    12   ar
     6    12    13   ar
     7    13    14    1
     8    13    15   ar
     9    15    16   ar
    10     2     4   am
    11     4     5    1
    12     5     6    2
    13     6    24    1
    14    24    25   ar
    15    25    26   ar
    16    26    27   ar
    17    27    28   ar
    18    28    29   ar
    19     6     7    1
    20     7     8    1
    21     8    17    1
    22    17    18   ar
    23    18    19   ar
    24    19    20   ar
    25    20    21    1
    26    20    22   ar
    27    22    23   ar
    28    16    10   ar
    29     8     4    1
    30    23    17   ar
    31    29    24   ar
    32     3     9    1
@<TRIPOS>MOLECULE
*****
 29 32 0 0 0
SMALL
GASTEIGER

@<TRIPOS>ATOM
      1 O           4.4282   -1.7144   22.0988 O.2     1  UNL1       -0.2505
      2 C           3.8795   -0.3194   22.0433 C.2     1  UNL1        0.3269
      3 N           3.8755    0.5346   23.2764 N.am    1  UNL1       -0.2668
      4 N           3.3347    0.2214   20.7545 N.am    1  UNL1       -0.1624
      5 N           2.7564    1.5899   20.5472 N.2     1  UNL1       -0.1786
      6 C           2.3368    1.7031   19.1115 C.2     1  UNL1        0.0787
      7 C           2.6559    0.4046   18.4316 C.3     1  UNL1        0.0738
      8 C           3.2726   -0.5111   19.4471 C.3     1  UNL1        0.1288
      9 H           3.5154    1.4501   23.2399 H       1  UNL1        0.1565
     10 C           4.4203   -0.0063   24.5651 C.ar    1  UNL1        0.0518
     11 C           5.8671    0.1900   24.9088 C.ar    1  UNL1        0.0170
     12 C           6.4118   -0.3509   26.1975 C.ar    1  UNL1        0.0309
     13 C           5.5098   -1.0881   27.1424 C.ar    1  UNL1        0.1402
     14 F           6.0546   -1.6290   28.4311 F       1  UNL1       -0.2042
     15 C           4.0630   -1.2844   26.7986 C.ar    1  UNL1        0.0309
     16 C           3.5183   -0.7435   25.5100 C.ar    1  UNL1        0.0170
     17 C           3.7445   -1.9131   19.1987 C.ar    1  UNL1       -0.0018
     18 C           2.8231   -3.0700   19.4491 C.ar    1  UNL1       -0.0003
     19 C           3.2950   -4.4719   19.2007 C.ar    1  UNL1        0.0294
     20 C           4.6883   -4.7171   18.7020 C.ar    1  UNL1        0.1401
     21 F           5.1601   -6.1191   18.4536 F       1  UNL1       -0.2042
     22 C           5.6097   -3.5602   18.4516 C.ar    1  UNL1        0.0294
     23 C           5.1378   -2.1583   18.7000 C.ar    1  UNL1       -0.0003
     24 C           1.7085    2.9038   18.4686 C.ar    1  UNL1        0.0182
     25 C           0.2412    2.9062   18.1569 C.ar    1  UNL1        0.0219
     26 C          -0.3871    4.1070   17.5140 C.ar    1  UNL1        0.0989
     27 N           0.4520    5.3054   17.1827 N.ar    1  UNL1       -0.2423
     28 C           1.9192    5.3031   17.4943 C.ar    1  UNL1        0.0989
     29 C           2.5475    4.1023   18.1373 C.ar    1  UNL1        0.0219
@<TRIPOS>BOND
     1     1     2    2
     2     2     3   am
     3     3    10    1
     4    10    11   ar
     5    11    12   ar
     6    12    13   ar
     7    13    14    1
     8    13    15   ar
     9    15    16   ar
    10     2     4   am
    11     4     5    1
    12     5     6    2
    13     6    24    1
    14    24    25   ar
    15    25    26   ar
    16    26    27   ar
    17    27    28   ar
    18    28    29   ar
    19     6     7    1
    20     7     8    1
    21     8    17    1
    22    17    18   ar
    23    18    19   ar
    24    19    20   ar
    25    20    21    1
    26    20    22   ar
    27    22    23   ar
    28    16    10   ar
    29     8     4    1
    30    23    17   ar
    31    29    24   ar
    32     3     9    1
@<TRIPOS>MOLECULE
*****
 29 32 0 0 0
SMALL
GASTEIGER

@<TRIPOS>ATOM
      1 O           0.8093    2.9372   21.8395 O.2     1  UNL1       -0.2505
      2 C           1.4400    1.6473   22.2736 C.2     1  UNL1        0.3269
      3 N           1.4243    1.2546   23.7211 N.am    1  UNL1       -0.2668
      4 N           2.0864    0.7501   21.2600 N.am    1  UNL1       -0.1624
      5 N           2.7536   -0.5631   21.5432 N.2     1  UNL1       -0.1786
      6 C           3.2587   -1.1162   20.2435 C.2     1  UNL1        0.0787
      7 C           2.9036   -0.1447   19.1571 C.3     1  UNL1        0.0738
      8 C           2.1791    1.0087   19.7854 C.3     1  UNL1        0.1288
      9 H           1.8383    0.4080   24.0060 H       1  UNL1        0.1565
     10 C           0.7779    2.1518   24.7347 C.ar    1  UNL1        0.0518
     11 C           1.4633    3.4153   25.1634 C.ar    1  UNL1        0.0170
     12 C           0.8169    4.3124   26.1769 C.ar    1  UNL1        0.0309
     13 C          -0.5149    3.9461   26.7618 C.ar    1  UNL1        0.1402
     14 F          -1.1613    4.8432   27.7754 F       1  UNL1       -0.2042
     15 C          -1.2003    2.6826   26.3331 C.ar    1  UNL1        0.0309
     16 C          -0.5539    1.7854   25.3196 C.ar    1  UNL1        0.0170
     17 C           1.6416    2.2098   19.0654 C.ar    1  UNL1       -0.0018
     18 C           0.2360    2.2037   18.5418 C.ar    1  UNL1       -0.0003
     19 C          -0.3013    3.4049   17.8219 C.ar    1  UNL1        0.0294
     20 C           0.5669    4.6123   17.6255 C.ar    1  UNL1        0.1401
     21 F           0.0294    5.8135   16.9056 F       1  UNL1       -0.2042
     22 C           1.9725    4.6184   18.1491 C.ar    1  UNL1        0.0294
     23 C           2.5099    3.4172   18.8690 C.ar    1  UNL1       -0.0003
     24 C           3.9903   -2.4131   20.0621 C.ar    1  UNL1        0.0182
     25 C           3.3433   -3.5410   19.3143 C.ar    1  UNL1        0.0219
     26 C           4.0749   -4.8378   19.1329 C.ar    1  UNL1        0.0989
     27 N           5.4536   -5.0067   19.6993 N.ar    1  UNL1       -0.2423
     28 C           6.1006   -3.8788   20.4471 C.ar    1  UNL1        0.0989
     29 C           5.3689   -2.5820   20.6285 C.ar    1  UNL1        0.0219
@<TRIPOS>BOND
     1     1     2    2
     2     2     3   am
     3     3    10    1
     4    10    11   ar
     5    11    12   ar
     6    12    13   ar
     7    13    14    1
     8    13    15   ar
     9    15    16   ar
    10     2     4   am
    11     4     5    1
    12     5     6    2
    13     6    24    1
    14    24    25   ar
    15    25    26   ar
    16    26    27   ar
    17    27    28   ar
    18    28    29   ar
    19     6     7    1
    20     7     8    1
    21     8    17    1
    22    17    18   ar
    23    18    19   ar
    24    19    20   ar
    25    20    21    1
    26    20    22   ar
    27    22    23   ar
    28    16    10   ar
    29     8     4    1
    30    23    17   ar
    31    29    24   ar
    32     3     9    1
@<TRIPOS>MOLECULE
*****
 29 32 0 0 0
SMALL
GASTEIGER

@<TRIPOS>ATOM
      1 O           0.2318    1.8219   19.9949 O.2     1  UNL1       -0.2505
      2 C          -0.2902    2.1508   21.3622 C.2     1  UNL1        0.3269
      3 N          -1.5441    2.9602   21.5116 N.am    1  UNL1       -0.2668
      4 N           0.4419    1.6701   22.5801 N.am    1  UNL1       -0.1624
      5 N           0.0426    1.9194   24.0043 N.2     1  UNL1       -0.1786
      6 C           1.0558    1.2592   24.8920 C.2     1  UNL1        0.0787
      7 C           2.0811    0.6020   24.0163 C.3     1  UNL1        0.0738
      8 C           1.7017    0.8560   22.5874 C.3     1  UNL1        0.1288
      9 H          -1.8867    3.1760   22.4090 H       1  UNL1        0.1565
     10 C          -2.2762    3.4408   20.2938 C.ar    1  UNL1        0.0518
     11 C          -3.7623    3.2637   20.1934 C.ar    1  UNL1        0.0170
     12 C          -4.4943    3.7443   18.9756 C.ar    1  UNL1        0.0309
     13 C          -3.7402    4.4020   17.8581 C.ar    1  UNL1        0.1402
     14 F          -4.4723    4.8826   16.6403 F       1  UNL1       -0.2042
     15 C          -2.2542    4.5791   17.9585 C.ar    1  UNL1        0.0309
     16 C          -1.5221    4.0985   19.1763 C.ar    1  UNL1        0.0170
     17 C           2.4506    0.3795   21.3783 C.ar    1  UNL1       -0.0018
     18 C           3.5029    1.2493   20.7568 C.ar    1  UNL1       -0.0003
     19 C           4.2517    0.7727   19.5476 C.ar    1  UNL1        0.0294
     20 C           3.9483   -0.5737   18.9599 C.ar    1  UNL1        0.1401
     21 F           4.6972   -1.0501   17.7507 F       1  UNL1       -0.2042
     22 C           2.8960   -1.4434   19.5814 C.ar    1  UNL1        0.0294
     23 C           2.1472   -0.9668   20.7905 C.ar    1  UNL1       -0.0003
     24 C           1.0453    1.2567   26.3919 C.ar    1  UNL1        0.0182
     25 C           2.3370    1.3303   27.1511 C.ar    1  UNL1        0.0219
     26 C           2.3265    1.3278   28.6510 C.ar    1  UNL1        0.0989
     27 N           1.0245    1.2517   29.3918 N.ar    1  UNL1       -0.2423
     28 C          -0.2672    1.1781   28.6327 C.ar    1  UNL1        0.0989
     29 C          -0.2567    1.1807   27.1327 C.ar    1  UNL1        0.0219
@<TRIPOS>BOND
     1     1     2    2
     2     2     3   am
     3     3    10    1
     4    10    11   ar
     5    11    12   ar
     6    12    13   ar
     7    13    14    1
     8    13    15   ar
     9    15    16   ar
    10     2     4   am
    11     4     5    1
    12     5     6    2
    13     6    24    1
    14    24    25   ar
    15    25    26   ar
    16    26    27   ar
    17    27    28   ar
    18    28    29   ar
    19     6     7    1
    20     7     8    1
    21     8    17    1
    22    17    18   ar
    23    18    19   ar
    24    19    20   ar
    25    20    21    1
    26    20    22   ar
    27    22    23   ar
    28    16    10   ar
    29     8     4    1
    30    23    17   ar
    31    29    24   ar
    32     3     9    1
@<TRIPOS>MOLECULE
*****
 29 32 0 0 0
SMALL
GASTEIGER

@<TRIPOS>ATOM
      1 O           3.3358    0.5359   29.8872 O.2     1  UNL1       -0.2505
      2 C           4.1458   -0.5364   29.2208 C.2     1  UNL1        0.3269
      3 N           5.0473   -1.4128   30.0388 N.am    1  UNL1       -0.2668
      4 N           4.0541   -0.7323   27.7365 N.am    1  UNL1       -0.1624
      5 N           4.7998   -1.7578   26.9349 N.2     1  UNL1       -0.1786
      6 C           4.4072   -1.5964   25.4961 C.2     1  UNL1        0.0787
      7 C           3.4190   -0.4713   25.4086 C.3     1  UNL1        0.0738
      8 C           3.2008    0.0627   26.7932 C.3     1  UNL1        0.1288
      9 H           5.5789   -2.1166   29.6014 H       1  UNL1        0.1565
     10 C           5.1390   -1.2169   31.5231 C.ar    1  UNL1        0.0518
     11 C           6.0673   -0.1825   32.0872 C.ar    1  UNL1        0.0170
     12 C           6.1589    0.0134   33.5715 C.ar    1  UNL1        0.0309
     13 C           5.3222   -0.8252   34.4917 C.ar    1  UNL1        0.1402
     14 F           5.4139   -0.6293   35.9761 F       1  UNL1       -0.2042
     15 C           4.3939   -1.8596   33.9277 C.ar    1  UNL1        0.0309
     16 C           4.3023   -2.0554   32.4434 C.ar    1  UNL1        0.0170
     17 C           2.2894    1.1933   27.1687 C.ar    1  UNL1       -0.0018
     18 C           0.8645    0.9145   27.5456 C.ar    1  UNL1       -0.0003
     19 C          -0.0469    2.0452   27.9210 C.ar    1  UNL1        0.0294
     20 C           0.4665    3.4546   27.9197 C.ar    1  UNL1        0.1401
     21 F          -0.4449    4.5852   28.2952 F       1  UNL1       -0.2042
     22 C           1.8914    3.7334   27.5429 C.ar    1  UNL1        0.0294
     23 C           2.8028    2.6027   27.1674 C.ar    1  UNL1       -0.0003
     24 C           4.9139   -2.4162   24.3467 C.ar    1  UNL1        0.0182
     25 C           6.1600   -3.2367   24.5024 C.ar    1  UNL1        0.0219
     26 C           6.6667   -4.0565   23.3530 C.ar    1  UNL1        0.0989
     27 N           5.9273   -4.0559   22.0479 N.ar    1  UNL1       -0.2423
     28 C           4.6812   -3.2355   21.8922 C.ar    1  UNL1        0.0989
     29 C           4.1745   -2.4156   23.0416 C.ar    1  UNL1        0.0219
@<TRIPOS>BOND
     1     1     2    2
     2     2     3   am
     3     3    10    1
     4    10    11   ar
     5    11    12   ar
     6    12    13   ar
     7    13    14    1
     8    13    15   ar
     9    15    16   ar
    10     2     4   am
    11     4     5    1
    12     5     6    2
    13     6    24    1
    14    24    25   ar
    15    25    26   ar
    16    26    27   ar
    17    27    28   ar
    18    28    29   ar
    19     6     7    1
    20     7     8    1
    21     8    17    1
    22    17    18   ar
    23    18    19   ar
    24    19    20   ar
    25    20    21    1
    26    20    22   ar
    27    22    23   ar
    28    16    10   ar
    29     8     4    1
    30    23    17   ar
    31    29    24   ar
    32     3     9    1
