@<TRIPOS>MOLECULE
*****
 30 33 0 0 0
SMALL
GASTEIGER

@<TRIPOS>ATOM
      1 C           8.0496   -7.2272   24.5507 C.3     1  UNL1        0.0493
      2 C           7.6644   -5.8605   24.0673 C.2     1  UNL1        0.0588
      3 N           7.8383   -5.3373   22.6723 N.2     1  UNL1       -0.2525
      4 C           7.3191   -3.9305   22.6369 C.2     1  UNL1        0.0748
      5 C           6.8242   -3.5842   24.0099 C.2     1  UNL1       -0.0034
      6 C           6.2218   -2.2751   24.4258 C.3     1  UNL1        0.0300
      7 C           7.0377   -4.7771   24.8940 C.3     1  UNL1        0.1281
      8 C           7.2983   -3.0282   21.4386 C.2     1  UNL1        0.0231
      9 C           6.0331   -2.8559   20.6514 C.2     1  UNL1        0.0564
     10 C           4.7180   -3.5168   20.9404 C.2     1  UNL1        0.2496
     11 O           4.4370   -4.4662   22.0672 O.2     1  UNL1       -0.2698
     12 N           3.7331   -3.0617   19.9046 N.am    1  UNL1       -0.2804
     13 C           4.4395   -2.1195   18.9755 C.ar    1  UNL1        0.0508
     14 C           3.9720   -1.3609   17.7689 C.ar    1  UNL1        0.0170
     15 C           4.9261   -0.4751   17.0238 C.ar    1  UNL1        0.0309
     16 C           6.3476   -0.3479   17.4854 C.ar    1  UNL1        0.1402
     17 F           7.3017    0.5379   16.7403 F       1  UNL1       -0.2042
     18 C           6.8151   -1.1065   18.6921 C.ar    1  UNL1        0.0310
     19 C           5.8611   -1.9922   19.4371 C.ar    1  UNL1        0.0201
     20 H           2.7888   -3.3336   19.8450 H       1  UNL1        0.1552
     21 N           6.6861   -4.8702   26.3492 N.am    1  UNL1       -0.2968
     22 C           7.7606   -4.7524   27.3893 C.2     1  UNL1        0.2372
     23 O           9.1865   -4.5416   26.9742 O.2     1  UNL1       -0.2736
     24 H           5.7503   -5.0086   26.6217 H       1  UNL1        0.1500
     25 C           7.4090   -4.8455   28.8446 C.3     1  UNL1        0.1315
     26 C           7.1604   -3.6893   29.7673 C.3     1  UNL1        0.0265
     27 C           6.8420   -4.2403   31.1255 C.3     1  UNL1        0.0190
     28 C           6.8939   -5.7371   31.0423 C.3     1  UNL1        0.0689
     29 N           7.2443   -6.1111   29.6326 N.3     1  UNL1       -0.2913
     30 H           6.4972   -6.6758   29.2285 H       1  UNL1        0.1236
@<TRIPOS>BOND
     1     1     2    1
     2     2     3    2
     3     3     4    1
     4     4     8    1
     5     8     9    2
     6     9    10    1
     7    10    11    2
     8    10    12   am
     9    12    13    1
    10    13    14   ar
    11    14    15   ar
    12    15    16   ar
    13    16    17    1
    14    16    18   ar
    15    18    19   ar
    16     4     5    2
    17     5     6    1
    18     5     7    1
    19     7    21    1
    20    21    22   am
    21    22    23    2
    22    25    22    1
    23    25    26    1
    24    26    27    1
    25    27    28    1
    26    28    29    1
    27     7     2    1
    28    29    25    1
    29    19     9    1
    30    19    13   ar
    31    12    20    1
    32    21    24    1
    33    29    30    1
@<TRIPOS>MOLECULE
*****
 30 33 0 0 0
SMALL
GASTEIGER

@<TRIPOS>ATOM
      1 C           8.0369    1.1031   34.2996 C.3     1  UNL1        0.0493
      2 C           7.4251   -0.1512   33.7497 C.2     1  UNL1        0.0588
      3 N           8.1222   -1.1742   32.9026 N.2     1  UNL1       -0.2525
      4 C           7.1367   -2.2580   32.5798 C.2     1  UNL1        0.0748
      5 C           5.8306   -1.9048   33.2274 C.2     1  UNL1       -0.0034
      6 C           4.5679   -2.7120   33.1631 C.3     1  UNL1        0.0300
      7 C           6.0089   -0.6027   33.9504 C.3     1  UNL1        0.1281
      8 C           7.4094   -3.4804   31.7542 C.2     1  UNL1        0.0231
      9 C           6.9960   -3.5196   30.3129 C.2     1  UNL1        0.0564
     10 C           6.3052   -2.4190   29.5636 C.2     1  UNL1        0.2496
     11 O           5.9064   -1.0860   30.1241 O.2     1  UNL1       -0.2698
     12 N           6.0831   -2.8855   28.1553 N.am    1  UNL1       -0.2804
     13 C           6.6367   -4.2743   28.0343 C.ar    1  UNL1        0.0508
     14 C           6.7000   -5.2327   26.8822 C.ar    1  UNL1        0.0170
     15 C           7.3274   -6.5830   27.0635 C.ar    1  UNL1        0.0309
     16 C           7.8917   -6.9749   28.3970 C.ar    1  UNL1        0.1402
     17 F           8.5191   -8.3253   28.5782 F       1  UNL1       -0.2042
     18 C           7.8284   -6.0165   29.5491 C.ar    1  UNL1        0.0310
     19 C           7.2010   -4.6662   29.3677 C.ar    1  UNL1        0.0201
     20 H           5.6500   -2.3705   27.4367 H       1  UNL1        0.1552
     21 N           4.9558    0.1208   34.7363 N.am    1  UNL1       -0.2968
     22 C           5.0310    0.1585   36.2339 C.2     1  UNL1        0.2372
     23 O           6.1593   -0.5272   36.9458 O.2     1  UNL1       -0.2736
     24 H           4.2152    0.5709   34.2691 H       1  UNL1        0.1500
     25 C           3.9779    0.8820   37.0197 C.3     1  UNL1        0.1315
     26 C           3.2370    2.1097   36.5794 C.3     1  UNL1        0.0265
     27 C           2.2820    2.4913   37.6714 C.3     1  UNL1        0.0190
     28 C           2.4327    1.4995   38.7865 C.3     1  UNL1        0.0689
     29 N           3.4809    0.5050   38.3838 N.3     1  UNL1       -0.2913
     30 H           3.0778   -0.4317   38.3586 H       1  UNL1        0.1236
@<TRIPOS>BOND
     1     1     2    1
     2     2     3    2
     3     3     4    1
     4     4     8    1
     5     8     9    2
     6     9    10    1
     7    10    11    2
     8    10    12   am
     9    12    13    1
    10    13    14   ar
    11    14    15   ar
    12    15    16   ar
    13    16    17    1
    14    16    18   ar
    15    18    19   ar
    16     4     5    2
    17     5     6    1
    18     5     7    1
    19     7    21    1
    20    21    22   am
    21    22    23    2
    22    25    22    1
    23    25    26    1
    24    26    27    1
    25    27    28    1
    26    28    29    1
    27     7     2    1
    28    29    25    1
    29    19     9    1
    30    19    13   ar
    31    12    20    1
    32    21    24    1
    33    29    30    1
@<TRIPOS>MOLECULE
*****
 30 33 0 0 0
SMALL
GASTEIGER

@<TRIPOS>ATOM
      1 C          -0.0983   -0.2910   28.7053 C.3     1  UNL1        0.0493
      2 C           1.2114    0.0035   29.3743 C.2     1  UNL1        0.0588
      3 N           1.3917    0.6896   30.6960 N.2     1  UNL1       -0.2525
      4 C           2.8626    0.7738   30.9777 C.2     1  UNL1        0.0748
      5 C           3.5914    0.1398   29.8301 C.2     1  UNL1       -0.0034
      6 C           5.0794    0.0055   29.6969 C.3     1  UNL1        0.0300
      7 C           2.5709   -0.3363   28.8392 C.3     1  UNL1        0.1281
      8 C           3.4939    1.3848   32.1935 C.2     1  UNL1        0.0231
      9 C           4.0265    0.5042   33.2848 C.2     1  UNL1        0.0564
     10 C           3.9986   -0.9954   33.3002 C.2     1  UNL1        0.2496
     11 O           3.4333   -1.8778   32.2270 O.2     1  UNL1       -0.2698
     12 N           4.6354   -1.4577   34.5772 N.am    1  UNL1       -0.2804
     13 C           5.0569   -0.2438   35.3511 C.ar    1  UNL1        0.0508
     14 C           5.7346   -0.0860   36.6798 C.ar    1  UNL1        0.0170
     15 C           6.0361    1.2845   37.2098 C.ar    1  UNL1        0.0309
     16 C           5.6598    2.4971   36.4111 C.ar    1  UNL1        0.1402
     17 F           5.9613    3.8676   36.9412 F       1  UNL1       -0.2042
     18 C           4.9820    2.3392   35.0823 C.ar    1  UNL1        0.0310
     19 C           4.6805    0.9688   34.5523 C.ar    1  UNL1        0.0201
     20 H           4.7557   -2.3936   34.8581 H       1  UNL1        0.1552
     21 N           2.8592   -1.0303   27.5410 N.am    1  UNL1       -0.2968
     22 C           3.3301   -0.2397   26.3564 C.2     1  UNL1        0.2372
     23 O           3.5127    1.2448   26.4699 O.2     1  UNL1       -0.2736
     24 H           2.7394   -2.0046   27.4665 H       1  UNL1        0.1500
     25 C           3.6185   -0.9337   25.0583 C.3     1  UNL1        0.1315
     26 C           3.0302   -0.5860   23.7229 C.3     1  UNL1        0.0265
     27 C           3.5939   -1.5347   22.7069 C.3     1  UNL1        0.0190
     28 C           4.5305   -2.4687   23.4143 C.3     1  UNL1        0.0689
     29 N           4.5457   -2.0972   24.8675 N.3     1  UNL1       -0.2913
     30 H           5.4909   -1.8362   25.1482 H       1  UNL1        0.1236
@<TRIPOS>BOND
     1     1     2    1
     2     2     3    2
     3     3     4    1
     4     4     8    1
     5     8     9    2
     6     9    10    1
     7    10    11    2
     8    10    12   am
     9    12    13    1
    10    13    14   ar
    11    14    15   ar
    12    15    16   ar
    13    16    17    1
    14    16    18   ar
    15    18    19   ar
    16     4     5    2
    17     5     6    1
    18     5     7    1
    19     7    21    1
    20    21    22   am
    21    22    23    2
    22    25    22    1
    23    25    26    1
    24    26    27    1
    25    27    28    1
    26    28    29    1
    27     7     2    1
    28    29    25    1
    29    19     9    1
    30    19    13   ar
    31    12    20    1
    32    21    24    1
    33    29    30    1
@<TRIPOS>MOLECULE
*****
 30 33 0 0 0
SMALL
GASTEIGER

@<TRIPOS>ATOM
      1 C           4.7956   -4.7879   18.9800 C.3     1  UNL1        0.0493
      2 C           4.1690   -3.5441   19.5371 C.2     1  UNL1        0.0588
      3 N           3.4344   -2.4989   18.7511 N.2     1  UNL1       -0.2525
      4 C           2.9783   -1.4360   19.7062 C.2     1  UNL1        0.0748
      5 C           3.4311   -1.8243   21.0825 C.2     1  UNL1       -0.0034
      6 C           3.1902   -1.0464   22.3421 C.3     1  UNL1        0.0300
      7 C           4.1669   -3.1273   20.9779 C.3     1  UNL1        0.1281
      8 C           2.2052   -0.2015   19.3479 C.2     1  UNL1        0.0231
      9 C           2.9304    1.0391   18.9177 C.2     1  UNL1        0.0564
     10 C           4.4175    1.1946   18.7987 C.2     1  UNL1        0.2496
     11 O           5.4406    0.1367   19.0889 O.2     1  UNL1       -0.2698
     12 N           4.7019    2.5936   18.3385 N.am    1  UNL1       -0.2804
     13 C           3.3906    3.3028   18.1731 C.ar    1  UNL1        0.0508
     14 C           3.0520    4.6993   17.7428 C.ar    1  UNL1        0.0170
     15 C           1.6186    5.1350   17.6704 C.ar    1  UNL1        0.0309
     16 C           0.5237    4.1743   18.0284 C.ar    1  UNL1        0.1402
     17 F          -0.9099    4.6101   17.9561 F       1  UNL1       -0.2042
     18 C           0.8622    2.7778   18.4587 C.ar    1  UNL1        0.0310
     19 C           2.2957    2.3421   18.5311 C.ar    1  UNL1        0.0201
     20 H           5.5929    2.9788   18.1739 H       1  UNL1        0.1552
     21 N           4.7912   -3.8809   22.1147 N.am    1  UNL1       -0.2968
     22 C           6.2576   -3.7357   22.3954 C.2     1  UNL1        0.2372
     23 O           7.0997   -2.8368   21.5393 O.2     1  UNL1       -0.2736
     24 H           4.2385   -4.4709   22.6766 H       1  UNL1        0.1500
     25 C           6.8818   -4.4894   23.5321 C.3     1  UNL1        0.1315
     26 C           6.8564   -4.0863   24.9768 C.3     1  UNL1        0.0265
     27 C           7.5999   -5.1262   25.7613 C.3     1  UNL1        0.0190
     28 C           8.0849   -6.1721   24.8016 C.3     1  UNL1        0.0689
     29 N           7.6410   -5.7785   23.4240 N.3     1  UNL1       -0.2913
     30 H           7.0386   -6.5033   23.0341 H       1  UNL1        0.1236
@<TRIPOS>BOND
     1     1     2    1
     2     2     3    2
     3     3     4    1
     4     4     8    1
     5     8     9    2
     6     9    10    1
     7    10    11    2
     8    10    12   am
     9    12    13    1
    10    13    14   ar
    11    14    15   ar
    12    15    16   ar
    13    16    17    1
    14    16    18   ar
    15    18    19   ar
    16     4     5    2
    17     5     6    1
    18     5     7    1
    19     7    21    1
    20    21    22   am
    21    22    23    2
    22    25    22    1
    23    25    26    1
    24    26    27    1
    25    27    28    1
    26    28    29    1
    27     7     2    1
    28    29    25    1
    29    19     9    1
    30    19    13   ar
    31    12    20    1
    32    21    24    1
    33    29    30    1
@<TRIPOS>MOLECULE
*****
 30 33 0 0 0
SMALL
GASTEIGER

@<TRIPOS>ATOM
      1 C           9.2541   -0.7293   33.2057 C.3     1  UNL1        0.0493
      2 C           7.8152   -0.8196   33.6195 C.2     1  UNL1        0.0588
      3 N           7.2381   -0.3310   34.9150 N.2     1  UNL1       -0.2525
      4 C           5.7670   -0.6238   34.9067 C.2     1  UNL1        0.0748
      5 C           5.4349   -1.2932   33.6062 C.2     1  UNL1       -0.0034
      6 C           4.0756   -1.7598   33.1766 C.3     1  UNL1        0.0300
      7 C           6.7008   -1.4143   32.8106 C.3     1  UNL1        0.1281
      8 C           4.7980   -0.3033   36.0061 C.2     1  UNL1        0.0231
      9 C           4.1226    1.0355   36.0439 C.2     1  UNL1        0.0564
     10 C           4.3152    2.1484   35.0567 C.2     1  UNL1        0.2496
     11 O           5.2171    2.1179   33.8585 O.2     1  UNL1       -0.2698
     12 N           3.4476    3.2971   35.4782 N.am    1  UNL1       -0.2804
     13 C           2.7187    2.8942   36.7258 C.ar    1  UNL1        0.0508
     14 C           1.7291    3.6195   37.5886 C.ar    1  UNL1        0.0170
     15 C           1.1567    2.9471   38.8011 C.ar    1  UNL1        0.0309
     16 C           1.5738    1.5493   39.1507 C.ar    1  UNL1        0.1402
     17 F           1.0013    0.8769   40.3632 F       1  UNL1       -0.2042
     18 C           2.5635    0.8240   38.2878 C.ar    1  UNL1        0.0310
     19 C           3.1359    1.4965   37.0754 C.ar    1  UNL1        0.0201
     20 H           3.3701    4.1634   35.0170 H       1  UNL1        0.1552
     21 N           6.8296   -2.0231   31.4458 N.am    1  UNL1       -0.2968
     22 C           6.6645   -3.5031   31.2662 C.2     1  UNL1        0.2372
     23 O           6.3706   -4.3744   32.4514 O.2     1  UNL1       -0.2736
     24 H           7.0225   -1.4513   30.6679 H       1  UNL1        0.1500
     25 C           6.7933   -4.1120   29.9014 C.3     1  UNL1        0.1315
     26 C           7.0251   -3.3653   28.6212 C.3     1  UNL1        0.0265
     27 C           7.0880   -4.3662   27.5058 C.3     1  UNL1        0.0190
     28 C           6.8951   -5.7314   28.0966 C.3     1  UNL1        0.0689
     29 N           6.7130   -5.5742   29.5771 N.3     1  UNL1       -0.2913
     30 H           7.4482   -6.0794   30.0718 H       1  UNL1        0.1236
@<TRIPOS>BOND
     1     1     2    1
     2     2     3    2
     3     3     4    1
     4     4     8    1
     5     8     9    2
     6     9    10    1
     7    10    11    2
     8    10    12   am
     9    12    13    1
    10    13    14   ar
    11    14    15   ar
    12    15    16   ar
    13    16    17    1
    14    16    18   ar
    15    18    19   ar
    16     4     5    2
    17     5     6    1
    18     5     7    1
    19     7    21    1
    20    21    22   am
    21    22    23    2
    22    25    22    1
    23    25    26    1
    24    26    27    1
    25    27    28    1
    26    28    29    1
    27     7     2    1
    28    29    25    1
    29    19     9    1
    30    19    13   ar
    31    12    20    1
    32    21    24    1
    33    29    30    1
@<TRIPOS>MOLECULE
*****
 30 33 0 0 0
SMALL
GASTEIGER

@<TRIPOS>ATOM
      1 C           8.2478   -4.5912   20.7891 C.3     1  UNL1        0.0493
      2 C           7.5515   -4.2767   22.0799 C.2     1  UNL1        0.0588
      3 N           7.8111   -4.9319   23.4040 N.2     1  UNL1       -0.2525
      4 C           6.8934   -4.3119   24.4157 C.2     1  UNL1        0.0748
      5 C           6.0667   -3.2736   23.7168 C.2     1  UNL1       -0.0034
      6 C           5.0176   -2.4088   24.3503 C.3     1  UNL1        0.0300
      7 C           6.4735   -3.2518   22.2732 C.3     1  UNL1        0.1281
      8 C           6.8160   -4.6678   25.8709 C.2     1  UNL1        0.0231
      9 C           7.6329   -3.9077   26.8734 C.2     1  UNL1        0.0564
     10 C           8.5669   -2.7734   26.5715 C.2     1  UNL1        0.2496
     11 O           8.8480   -2.2001   25.2142 O.2     1  UNL1       -0.2698
     12 N           9.1704   -2.3131   27.8653 N.am    1  UNL1       -0.2804
     13 C           8.6094   -3.1629   28.9668 C.ar    1  UNL1        0.0508
     14 C           8.8411   -3.1667   30.4487 C.ar    1  UNL1        0.0170
     15 C           8.1225   -4.1559   31.3176 C.ar    1  UNL1        0.0309
     16 C           7.1723   -5.1414   30.7046 C.ar    1  UNL1        0.1402
     17 F           6.4537   -6.1307   31.5736 F       1  UNL1       -0.2042
     18 C           6.9406   -5.1376   29.2226 C.ar    1  UNL1        0.0310
     19 C           7.6591   -4.1484   28.3537 C.ar    1  UNL1        0.0201
     20 H           9.8205   -1.5817   27.9727 H       1  UNL1        0.1552
     21 N           5.9025   -2.3615   21.2096 N.am    1  UNL1       -0.2968
     22 C           4.9763   -2.9283   20.1747 C.2     1  UNL1        0.2372
     23 O           4.6211   -4.3854   20.2034 O.2     1  UNL1       -0.2736
     24 H           6.1356   -1.4052   21.1907 H       1  UNL1        0.1500
     25 C           4.4052   -2.0380   19.1111 C.3     1  UNL1        0.1315
     26 C           3.4997   -0.8637   19.3368 C.3     1  UNL1        0.0265
     27 C           3.1743   -0.2656   18.0003 C.3     1  UNL1        0.0190
     28 C           3.8788   -1.0703   16.9485 C.3     1  UNL1        0.0689
     29 N           4.6395   -2.1656   17.6350 N.3     1  UNL1       -0.2913
     30 H           5.6352   -2.0744   17.4334 H       1  UNL1        0.1236
@<TRIPOS>BOND
     1     1     2    1
     2     2     3    2
     3     3     4    1
     4     4     8    1
     5     8     9    2
     6     9    10    1
     7    10    11    2
     8    10    12   am
     9    12    13    1
    10    13    14   ar
    11    14    15   ar
    12    15    16   ar
    13    16    17    1
    14    16    18   ar
    15    18    19   ar
    16     4     5    2
    17     5     6    1
    18     5     7    1
    19     7    21    1
    20    21    22   am
    21    22    23    2
    22    25    22    1
    23    25    26    1
    24    26    27    1
    25    27    28    1
    26    28    29    1
    27     7     2    1
    28    29    25    1
    29    19     9    1
    30    19    13   ar
    31    12    20    1
    32    21    24    1
    33    29    30    1
@<TRIPOS>MOLECULE
*****
 30 33 0 0 0
SMALL
GASTEIGER

@<TRIPOS>ATOM
      1 C          -7.8380  -15.8808   27.2303 C.3     1  UNL1        0.0493
      2 C          -7.2908  -16.0162   25.8403 C.2     1  UNL1        0.0588
      3 N          -5.8467  -15.9155   25.4476 N.2     1  UNL1       -0.2525
      4 C          -5.7551  -16.1131   23.9635 C.2     1  UNL1        0.0748
      5 C          -7.1426  -16.3360   23.4390 C.2     1  UNL1       -0.0034
      6 C          -7.5154  -16.5765   22.0062 C.3     1  UNL1        0.0300
      7 C          -8.0918  -16.2761   24.5990 C.3     1  UNL1        0.1281
      8 C          -4.4967  -16.0917   23.1472 C.2     1  UNL1        0.0231
      9 C          -4.0315  -17.3375   22.4533 C.2     1  UNL1        0.0564
     10 C          -4.7163  -18.6718   22.4839 C.2     1  UNL1        0.2496
     11 O          -5.9864  -18.9944   23.2137 O.2     1  UNL1       -0.2698
     12 N          -3.9078  -19.6267   21.6565 N.am    1  UNL1       -0.2804
     13 C          -2.7235  -18.8826   21.1145 C.ar    1  UNL1        0.0508
     14 C          -1.5853  -19.3106   20.2363 C.ar    1  UNL1        0.0170
     15 C          -0.5236  -18.3237   19.8505 C.ar    1  UNL1        0.0309
     16 C          -0.6001  -16.9089   20.3429 C.ar    1  UNL1        0.1402
     17 F           0.4617  -15.9221   19.9571 F       1  UNL1       -0.2042
     18 C          -1.7382  -16.4810   21.2212 C.ar    1  UNL1        0.0310
     19 C          -2.7999  -17.4678   21.6070 C.ar    1  UNL1        0.0201
     20 H          -4.1177  -20.5752   21.4971 H       1  UNL1        0.1552
     21 N          -9.5805  -16.4462   24.5297 N.am    1  UNL1       -0.2968
     22 C         -10.1683  -17.7941   24.2334 C.2     1  UNL1        0.2372
     23 O          -9.2675  -18.9718   24.0063 O.2     1  UNL1       -0.2736
     24 H         -10.1717  -15.6733   24.6788 H       1  UNL1        0.1500
     25 C         -11.6570  -17.9642   24.1641 C.3     1  UNL1        0.1315
     26 C         -12.5481  -17.4885   23.0552 C.3     1  UNL1        0.0265
     27 C         -13.9578  -17.8702   23.3974 C.3     1  UNL1        0.0190
     28 C         -13.9379  -18.5818   24.7177 C.3     1  UNL1        0.0689
     29 N         -12.5159  -18.6399   25.1915 N.3     1  UNL1       -0.2913
     30 H         -12.2265  -19.6120   25.2994 H       1  UNL1        0.1236
@<TRIPOS>BOND
     1     1     2    1
     2     2     3    2
     3     3     4    1
     4     4     8    1
     5     8     9    2
     6     9    10    1
     7    10    11    2
     8    10    12   am
     9    12    13    1
    10    13    14   ar
    11    14    15   ar
    12    15    16   ar
    13    16    17    1
    14    16    18   ar
    15    18    19   ar
    16     4     5    2
    17     5     6    1
    18     5     7    1
    19     7    21    1
    20    21    22   am
    21    22    23    2
    22    25    22    1
    23    25    26    1
    24    26    27    1
    25    27    28    1
    26    28    29    1
    27     7     2    1
    28    29    25    1
    29    19     9    1
    30    19    13   ar
    31    12    20    1
    32    21    24    1
    33    29    30    1
@<TRIPOS>MOLECULE
*****
 30 33 0 0 0
SMALL
GASTEIGER

@<TRIPOS>ATOM
      1 C           1.8287    5.3235   29.2840 C.3     1  UNL1        0.0493
      2 C           0.8450    4.4364   28.5803 C.2     1  UNL1        0.0588
      3 N          -0.2981    4.8931   27.7233 N.2     1  UNL1       -0.2525
      4 C          -1.0179    3.6758   27.2234 C.2     1  UNL1        0.0748
      5 C          -0.3196    2.4667   27.7715 C.2     1  UNL1       -0.0034
      6 C          -0.7051    1.0383   27.5244 C.3     1  UNL1        0.0300
      7 C           0.8317    2.9368   28.6102 C.3     1  UNL1        0.1281
      8 C          -2.2243    3.6688   26.3318 C.2     1  UNL1        0.0231
      9 C          -2.0560    3.6049   24.8427 C.2     1  UNL1        0.0564
     10 C          -0.7515    3.5441   24.1046 C.2     1  UNL1        0.2496
     11 O           0.6136    3.5364   24.7262 O.2     1  UNL1       -0.2698
     12 N          -1.0520    3.4922   22.6360 N.am    1  UNL1       -0.2804
     13 C          -2.5421    3.5210   22.4663 C.ar    1  UNL1        0.0508
     14 C          -3.4140    3.4928   21.2461 C.ar    1  UNL1        0.0170
     15 C          -4.9065    3.5343   21.3898 C.ar    1  UNL1        0.0309
     16 C          -5.5270    3.6039   22.7537 C.ar    1  UNL1        0.1402
     17 F          -7.0196    3.6453   22.8974 F       1  UNL1       -0.2042
     18 C          -4.6551    3.6321   23.9739 C.ar    1  UNL1        0.0310
     19 C          -3.1626    3.5907   23.8302 C.ar    1  UNL1        0.0201
     20 H          -0.3877    3.4472   21.9107 H       1  UNL1        0.1552
     21 N           1.7998    2.0610   29.3490 N.am    1  UNL1       -0.2968
     22 C           1.4131    1.4625   30.6689 C.2     1  UNL1        0.2372
     23 O           0.0584    1.7398   31.2501 O.2     1  UNL1       -0.2736
     24 H           2.6890    1.8790   28.9675 H       1  UNL1        0.1500
     25 C           2.3812    0.5868   31.4077 C.3     1  UNL1        0.1315
     26 C           3.0674   -0.6286   30.8580 C.3     1  UNL1        0.0265
     27 C           3.9434   -1.1939   31.9365 C.3     1  UNL1        0.0190
     28 C           3.7986   -0.3279   33.1527 C.3     1  UNL1        0.0689
     29 N           2.8332    0.7725   32.8259 N.3     1  UNL1       -0.2913
     30 H           3.2927    1.6775   32.9270 H       1  UNL1        0.1236
@<TRIPOS>BOND
     1     1     2    1
     2     2     3    2
     3     3     4    1
     4     4     8    1
     5     8     9    2
     6     9    10    1
     7    10    11    2
     8    10    12   am
     9    12    13    1
    10    13    14   ar
    11    14    15   ar
    12    15    16   ar
    13    16    17    1
    14    16    18   ar
    15    18    19   ar
    16     4     5    2
    17     5     6    1
    18     5     7    1
    19     7    21    1
    20    21    22   am
    21    22    23    2
    22    25    22    1
    23    25    26    1
    24    26    27    1
    25    27    28    1
    26    28    29    1
    27     7     2    1
    28    29    25    1
    29    19     9    1
    30    19    13   ar
    31    12    20    1
    32    21    24    1
    33    29    30    1
@<TRIPOS>MOLECULE
*****
 30 33 0 0 0
SMALL
GASTEIGER

@<TRIPOS>ATOM
      1 C           4.6488   -4.6109   18.6068 C.3     1  UNL1        0.0493
      2 C           4.6235   -3.1656   19.0072 C.2     1  UNL1        0.0588
      3 N           3.8688   -2.0713   18.3124 N.2     1  UNL1       -0.2525
      4 C           4.1274   -0.7902   19.0486 C.2     1  UNL1        0.0748
      5 C           5.0419   -1.0928   20.1984 C.2     1  UNL1       -0.0034
      6 C           5.5590   -0.1013   21.1982 C.3     1  UNL1        0.0300
      7 C           5.3486   -2.5609   20.1728 C.3     1  UNL1        0.1281
      8 C           3.5693    0.5570   18.6967 C.2     1  UNL1        0.0231
      9 C           2.1974    0.9455   19.1625 C.2     1  UNL1        0.0564
     10 C           1.2715    0.0967   19.9825 C.2     1  UNL1        0.2496
     11 O           1.5549   -1.2894   20.4807 O.2     1  UNL1       -0.2698
     12 N           0.0124    0.8776   20.2168 N.am    1  UNL1       -0.2804
     13 C           0.1601    2.2089   19.5416 C.ar    1  UNL1        0.0508
     14 C          -0.7606    3.3883   19.4360 C.ar    1  UNL1        0.0170
     15 C          -0.3309    4.6097   18.6787 C.ar    1  UNL1        0.0309
     16 C           1.0196    4.6517   18.0271 C.ar    1  UNL1        0.1402
     17 F           1.4493    5.8731   17.2698 F       1  UNL1       -0.2042
     18 C           1.9402    3.4722   18.1328 C.ar    1  UNL1        0.0310
     19 C           1.5105    2.2508   18.8900 C.ar    1  UNL1        0.0201
     20 H          -0.7731    0.5703   20.7246 H       1  UNL1        0.1552
     21 N           6.2262   -3.2953   21.1425 N.am    1  UNL1       -0.2968
     22 C           5.6952   -3.6802   22.4916 C.2     1  UNL1        0.2372
     23 O           4.2867   -3.3306   22.8710 O.2     1  UNL1       -0.2736
     24 H           7.1507   -3.5247   20.8936 H       1  UNL1        0.1500
     25 C           6.5728   -4.4146   23.4614 C.3     1  UNL1        0.1315
     26 C           6.5422   -4.2797   24.9550 C.3     1  UNL1        0.0265
     27 C           7.5856   -5.1946   25.5245 C.3     1  UNL1        0.0190
     28 C           8.2611   -5.8948   24.3828 C.3     1  UNL1        0.0689
     29 N           7.6352   -5.4128   23.1078 N.3     1  UNL1       -0.2913
     30 H           7.2192   -6.1985   22.6078 H       1  UNL1        0.1236
@<TRIPOS>BOND
     1     1     2    1
     2     2     3    2
     3     3     4    1
     4     4     8    1
     5     8     9    2
     6     9    10    1
     7    10    11    2
     8    10    12   am
     9    12    13    1
    10    13    14   ar
    11    14    15   ar
    12    15    16   ar
    13    16    17    1
    14    16    18   ar
    15    18    19   ar
    16     4     5    2
    17     5     6    1
    18     5     7    1
    19     7    21    1
    20    21    22   am
    21    22    23    2
    22    25    22    1
    23    25    26    1
    24    26    27    1
    25    27    28    1
    26    28    29    1
    27     7     2    1
    28    29    25    1
    29    19     9    1
    30    19    13   ar
    31    12    20    1
    32    21    24    1
    33    29    30    1
