@<TRIPOS>MOLECULE
*****
 28 30 0 0 0
SMALL
GASTEIGER

@<TRIPOS>ATOM
      1 N          -8.4230  -17.1356   22.6267 N.pl3   1  UNL1       -0.3037
      2 C          -9.8263  -17.4475   23.0552 C.ar    1  UNL1        0.0490
      3 C         -10.0824  -18.5498   24.0397 C.ar    1  UNL1        0.0153
      4 C         -11.4856  -18.8617   24.4682 C.ar    1  UNL1        0.0124
      5 C         -12.6328  -18.0713   23.9121 C.ar    1  UNL1        0.0791
      6 C         -12.3767  -16.9689   22.9275 C.ar    1  UNL1        0.0685
      7 CL        -13.5239  -16.1786   22.3715 Cl      1  UNL1       -0.0815
      8 C         -10.9735  -16.6570   22.4991 C.ar    1  UNL1        0.0266
      9 C         -14.0360  -18.3832   24.3406 C.1     1  UNL1        0.1013
     10 N         -15.4393  -18.6951   24.7690 N.1     1  UNL1       -0.1908
     11 N          -5.8777  -19.3770   20.7391 N.3     1  UNL1       -0.1576
     12 C          -7.1640  -19.7832   20.0829 C.3     1  UNL1        0.0972
     13 C          -8.2741  -18.9929   20.7101 C.3     1  UNL1        0.0403
     14 C          -7.6738  -18.0984   21.7540 C.3     1  UNL1        0.0922
     15 C          -6.1928  -18.3359   21.7719 C.3     1  UNL1        0.1151
     16 C          -3.1535  -20.4576   20.0985 C.3     1  UNL1        0.1960
     17 S          -4.5156  -19.9173   20.4188 S.O2    1  UNL1        0.0457
     18 O          -5.1189  -21.2557   20.1108 O.2     1  UNL1       -0.1572
     19 O          -3.9123  -18.5789   20.7268 O.2     1  UNL1       -0.1572
     20 C          -7.7690  -15.8609   23.0709 C.3     1  UNL1        0.1184
     21 C          -7.3988  -15.6704   24.5120 C.ar    1  UNL1        0.0072
     22 C          -8.4725  -15.5477   25.5522 C.ar    1  UNL1       -0.0019
     23 C          -8.1023  -15.3572   26.9933 C.ar    1  UNL1       -0.0002
     24 C          -6.6585  -15.2896   27.3942 C.ar    1  UNL1        0.0007
     25 C          -5.5847  -15.4124   26.3539 C.ar    1  UNL1        0.0100
     26 C          -5.9549  -15.6028   24.9128 C.ar    1  UNL1        0.0661
     27 C          -4.8812  -15.7256   23.8726 C.1     1  UNL1        0.1001
     28 N          -3.8076  -15.8483   22.8324 N.1     1  UNL1       -0.1908
@<TRIPOS>BOND
     1    16    17    1
     2    17    18    2
     3    17    19    2
     4    17    11    1
     5    11    12    1
     6    12    13    1
     7    13    14    1
     8    14     1    1
     9     1    20    1
    10    20    21    1
    11    21    22   ar
    12    22    23   ar
    13    23    24   ar
    14    24    25   ar
    15    25    26   ar
    16    26    27    1
    17    27    28    3
    18     1     2    1
    19     2     3   ar
    20     3     4   ar
    21     4     5   ar
    22     5     9    1
    23     9    10    3
    24     5     6   ar
    25     6     7    1
    26     6     8   ar
    27    14    15    1
    28    15    11    1
    29    26    21   ar
    30     8     2   ar
@<TRIPOS>MOLECULE
*****
 28 30 0 0 0
SMALL
GASTEIGER

@<TRIPOS>ATOM
      1 N          -7.1068  -18.4184   22.0486 N.pl3   1  UNL1       -0.3037
      2 C          -5.6912  -18.5195   21.5631 C.ar    1  UNL1        0.0490
      3 C          -5.4100  -18.9664   20.1591 C.ar    1  UNL1        0.0153
      4 C          -3.9943  -19.0675   19.6736 C.ar    1  UNL1        0.0124
      5 C          -2.8599  -18.7218   20.5920 C.ar    1  UNL1        0.0791
      6 C          -3.1411  -18.2749   21.9960 C.ar    1  UNL1        0.0685
      7 CL         -2.0067  -17.9291   22.9145 Cl      1  UNL1       -0.0815
      8 C          -4.5568  -18.1737   22.4816 C.ar    1  UNL1        0.0266
      9 C          -1.4443  -18.8229   20.1065 C.1     1  UNL1        0.1013
     10 N          -0.0286  -18.9240   19.6209 N.1     1  UNL1       -0.1908
     11 N          -7.5273  -15.9609   25.0235 N.3     1  UNL1       -0.1576
     12 C          -8.6122  -15.4884   24.1016 C.3     1  UNL1        0.0972
     13 C          -8.5868  -16.3515   22.8750 C.3     1  UNL1        0.0403
     14 C          -7.4861  -17.3574   23.0388 C.3     1  UNL1        0.0922
     15 C          -6.8314  -17.1160   24.3666 C.3     1  UNL1        0.1151
     16 C          -6.8656  -14.7997   27.7092 C.3     1  UNL1        0.1960
     17 S          -7.1965  -15.3803   26.3663 S.O2    1  UNL1        0.0457
     18 O          -8.4654  -15.9519   26.9260 O.2     1  UNL1       -0.1572
     19 O          -5.9275  -14.8088   25.8067 O.2     1  UNL1       -0.1572
     20 C          -8.1432  -19.3782   21.5440 C.3     1  UNL1        0.1184
     21 C          -9.5728  -18.9415   21.4200 C.ar    1  UNL1        0.0072
     22 C         -10.0293  -18.2078   20.1939 C.ar    1  UNL1       -0.0019
     23 C         -11.4589  -17.7711   20.0699 C.ar    1  UNL1       -0.0002
     24 C         -12.4321  -18.0680   21.1720 C.ar    1  UNL1        0.0007
     25 C         -11.9757  -18.8017   22.3981 C.ar    1  UNL1        0.0100
     26 C         -10.5460  -19.2385   22.5221 C.ar    1  UNL1        0.0661
     27 C         -10.0896  -19.9721   23.7482 C.1     1  UNL1        0.1001
     28 N          -9.6332  -20.7058   24.9743 N.1     1  UNL1       -0.1908
@<TRIPOS>BOND
     1    16    17    1
     2    17    18    2
     3    17    19    2
     4    17    11    1
     5    11    12    1
     6    12    13    1
     7    13    14    1
     8    14     1    1
     9     1    20    1
    10    20    21    1
    11    21    22   ar
    12    22    23   ar
    13    23    24   ar
    14    24    25   ar
    15    25    26   ar
    16    26    27    1
    17    27    28    3
    18     1     2    1
    19     2     3   ar
    20     3     4   ar
    21     4     5   ar
    22     5     9    1
    23     9    10    3
    24     5     6   ar
    25     6     7    1
    26     6     8   ar
    27    14    15    1
    28    15    11    1
    29    26    21   ar
    30     8     2   ar
@<TRIPOS>MOLECULE
*****
 28 30 0 0 0
SMALL
GASTEIGER

@<TRIPOS>ATOM
      1 N          -8.2870  -18.0511   21.9260 N.pl3   1  UNL1       -0.3037
      2 C          -8.2986  -17.2739   23.2089 C.ar    1  UNL1        0.0490
      3 C          -7.8073  -15.8569   23.2318 C.ar    1  UNL1        0.0153
      4 C          -7.8189  -15.0797   24.5147 C.ar    1  UNL1        0.0124
      5 C          -8.3218  -15.7196   25.7747 C.ar    1  UNL1        0.0791
      6 C          -8.8131  -17.1367   25.7519 C.ar    1  UNL1        0.0685
      7 CL         -9.3160  -17.7765   27.0119 Cl      1  UNL1       -0.0815
      8 C          -8.8015  -17.9139   24.4690 C.ar    1  UNL1        0.0266
      9 C          -8.3334  -14.9424   27.0576 C.1     1  UNL1        0.1013
     10 N          -8.3449  -14.1652   28.3405 N.1     1  UNL1       -0.1908
     11 N          -4.6164  -18.9333   21.0236 N.3     1  UNL1       -0.1576
     12 C          -5.3439  -19.4524   19.8188 C.3     1  UNL1        0.0972
     13 C          -6.8075  -19.1851   20.0103 C.3     1  UNL1        0.0403
     14 C          -6.9844  -18.5008   21.3333 C.3     1  UNL1        0.0922
     15 C          -5.6304  -18.3452   21.9595 C.3     1  UNL1        0.1151
     16 C          -1.6538  -19.0506   21.4807 C.3     1  UNL1        0.1960
     17 S          -3.1352  -18.9919   21.2521 S.O2    1  UNL1        0.0457
     18 O          -3.1465  -17.5583   21.6934 O.2     1  UNL1       -0.1572
     19 O          -3.1237  -20.4255   20.8109 O.2     1  UNL1       -0.1572
     20 C          -9.5778  -18.3787   21.2358 C.3     1  UNL1        0.1184
     21 C         -10.8849  -18.0541   21.8964 C.ar    1  UNL1        0.0072
     22 C         -11.3940  -18.9144   23.0147 C.ar    1  UNL1       -0.0019
     23 C         -12.7011  -18.5899   23.6753 C.ar    1  UNL1       -0.0002
     24 C         -13.4989  -17.4051   23.2175 C.ar    1  UNL1        0.0007
     25 C         -12.9898  -16.5447   22.0992 C.ar    1  UNL1        0.0100
     26 C         -11.6828  -16.8692   21.4386 C.ar    1  UNL1        0.0661
     27 C         -11.1736  -16.0090   20.3203 C.1     1  UNL1        0.1001
     28 N         -10.6645  -15.1487   19.2021 N.1     1  UNL1       -0.1908
@<TRIPOS>BOND
     1    16    17    1
     2    17    18    2
     3    17    19    2
     4    17    11    1
     5    11    12    1
     6    12    13    1
     7    13    14    1
     8    14     1    1
     9     1    20    1
    10    20    21    1
    11    21    22   ar
    12    22    23   ar
    13    23    24   ar
    14    24    25   ar
    15    25    26   ar
    16    26    27    1
    17    27    28    3
    18     1     2    1
    19     2     3   ar
    20     3     4   ar
    21     4     5   ar
    22     5     9    1
    23     9    10    3
    24     5     6   ar
    25     6     7    1
    26     6     8   ar
    27    14    15    1
    28    15    11    1
    29    26    21   ar
    30     8     2   ar
@<TRIPOS>MOLECULE
*****
 28 30 0 0 0
SMALL
GASTEIGER

@<TRIPOS>ATOM
      1 N          -8.7866  -18.8501   22.2323 N.pl3   1  UNL1       -0.3037
      2 C          -8.7047  -17.9696   23.4439 C.ar    1  UNL1        0.0490
      3 C          -9.3159  -18.4167   24.7387 C.ar    1  UNL1        0.0153
      4 C          -9.2340  -17.5362   25.9503 C.ar    1  UNL1        0.0124
      5 C          -8.5410  -16.2086   25.8671 C.ar    1  UNL1        0.0791
      6 C          -7.9297  -15.7614   24.5723 C.ar    1  UNL1        0.0685
      7 CL         -7.2367  -14.4337   24.4891 Cl      1  UNL1       -0.0815
      8 C          -8.0116  -16.6419   23.3607 C.ar    1  UNL1        0.0266
      9 C          -8.4591  -15.3281   27.0787 C.1     1  UNL1        0.1013
     10 N          -8.3772  -14.4476   28.2903 N.1     1  UNL1       -0.1908
     11 N          -5.1904  -19.8118   21.1330 N.3     1  UNL1       -0.1576
     12 C          -6.0125  -20.6022   20.1585 C.3     1  UNL1        0.0972
     13 C          -7.4598  -20.3381   20.4517 C.3     1  UNL1        0.0403
     14 C          -7.5320  -19.3846   21.6074 C.3     1  UNL1        0.0922
     15 C          -6.1295  -19.0593   22.0284 C.3     1  UNL1        0.1151
     16 C          -2.1942  -19.7474   21.2674 C.3     1  UNL1        0.1960
     17 S          -3.6924  -19.7796   21.2002 S.O2    1  UNL1        0.0457
     18 O          -3.7623  -19.6386   22.6919 O.2     1  UNL1       -0.1572
     19 O          -3.6223  -19.9205   19.7084 O.2     1  UNL1       -0.1572
     20 C         -10.1230  -19.1962   21.6456 C.3     1  UNL1        0.1184
     21 C         -10.9967  -18.1156   21.0809 C.ar    1  UNL1        0.0072
     22 C         -10.7112  -17.5552   19.7192 C.ar    1  UNL1       -0.0019
     23 C         -11.5850  -16.4746   19.1546 C.ar    1  UNL1       -0.0002
     24 C         -12.7443  -15.9544   19.9517 C.ar    1  UNL1        0.0007
     25 C         -13.0299  -16.5148   21.3135 C.ar    1  UNL1        0.0100
     26 C         -12.1561  -17.5954   21.8781 C.ar    1  UNL1        0.0661
     27 C         -12.4416  -18.1558   23.2398 C.1     1  UNL1        0.1001
     28 N         -12.7271  -18.7163   24.6016 N.1     1  UNL1       -0.1908
@<TRIPOS>BOND
     1    16    17    1
     2    17    18    2
     3    17    19    2
     4    17    11    1
     5    11    12    1
     6    12    13    1
     7    13    14    1
     8    14     1    1
     9     1    20    1
    10    20    21    1
    11    21    22   ar
    12    22    23   ar
    13    23    24   ar
    14    24    25   ar
    15    25    26   ar
    16    26    27    1
    17    27    28    3
    18     1     2    1
    19     2     3   ar
    20     3     4   ar
    21     4     5   ar
    22     5     9    1
    23     9    10    3
    24     5     6   ar
    25     6     7    1
    26     6     8   ar
    27    14    15    1
    28    15    11    1
    29    26    21   ar
    30     8     2   ar
@<TRIPOS>MOLECULE
*****
 28 30 0 0 0
SMALL
GASTEIGER

@<TRIPOS>ATOM
      1 N          -6.9200  -18.1165   22.1499 N.pl3   1  UNL1       -0.3037
      2 C          -5.5164  -18.2998   21.6536 C.ar    1  UNL1        0.0490
      3 C          -5.2727  -18.8163   20.2667 C.ar    1  UNL1        0.0153
      4 C          -3.8691  -18.9997   19.7704 C.ar    1  UNL1        0.0124
      5 C          -2.7092  -18.6664   20.6612 C.ar    1  UNL1        0.0791
      6 C          -2.9528  -18.1499   22.0483 C.ar    1  UNL1        0.0685
      7 CL         -1.7929  -17.8167   22.9390 Cl      1  UNL1       -0.0815
      8 C          -4.3565  -17.9666   22.5445 C.ar    1  UNL1        0.0266
      9 C          -1.3056  -18.8498   20.1650 C.1     1  UNL1        0.1013
     10 N           0.0981  -19.0331   19.6687 N.1     1  UNL1       -0.1908
     11 N          -7.3516  -15.6539   25.1189 N.3     1  UNL1       -0.1576
     12 C          -8.1047  -14.9382   24.0369 C.3     1  UNL1        0.0972
     13 C          -8.0347  -15.7737   22.7929 C.3     1  UNL1        0.0403
     14 C          -7.2383  -17.0056   23.1063 C.3     1  UNL1        0.0922
     15 C          -6.8162  -16.9316   24.5437 C.3     1  UNL1        0.1151
     16 C          -6.9813  -14.6977   27.9381 C.3     1  UNL1        0.1960
     17 S          -7.1664  -15.1758   26.5285 S.O2    1  UNL1        0.0457
     18 O          -8.6513  -15.2158   26.7371 O.2     1  UNL1       -0.1572
     19 O          -5.6815  -15.1358   26.3200 O.2     1  UNL1       -0.1572
     20 C          -8.0053  -19.0441   21.6898 C.3     1  UNL1        0.1184
     21 C          -9.2332  -19.2368   22.5295 C.ar    1  UNL1        0.0072
     22 C          -9.1796  -20.1115   23.7468 C.ar    1  UNL1       -0.0019
     23 C         -10.4075  -20.3043   24.5866 C.ar    1  UNL1       -0.0002
     24 C         -11.6890  -19.6222   24.2090 C.ar    1  UNL1        0.0007
     25 C         -11.7426  -18.7474   22.9917 C.ar    1  UNL1        0.0100
     26 C         -10.5147  -18.5547   22.1519 C.ar    1  UNL1        0.0661
     27 C         -10.5683  -17.6799   20.9346 C.1     1  UNL1        0.1001
     28 N         -10.6219  -16.8051   19.7173 N.1     1  UNL1       -0.1908
@<TRIPOS>BOND
     1    16    17    1
     2    17    18    2
     3    17    19    2
     4    17    11    1
     5    11    12    1
     6    12    13    1
     7    13    14    1
     8    14     1    1
     9     1    20    1
    10    20    21    1
    11    21    22   ar
    12    22    23   ar
    13    23    24   ar
    14    24    25   ar
    15    25    26   ar
    16    26    27    1
    17    27    28    3
    18     1     2    1
    19     2     3   ar
    20     3     4   ar
    21     4     5   ar
    22     5     9    1
    23     9    10    3
    24     5     6   ar
    25     6     7    1
    26     6     8   ar
    27    14    15    1
    28    15    11    1
    29    26    21   ar
    30     8     2   ar
@<TRIPOS>MOLECULE
*****
 28 30 0 0 0
SMALL
GASTEIGER

@<TRIPOS>ATOM
      1 N          -6.4848  -18.4673   21.7107 N.pl3   1  UNL1       -0.3037
      2 C          -6.4356  -17.5606   22.9046 C.ar    1  UNL1        0.0490
      3 C          -5.1304  -17.3029   23.5974 C.ar    1  UNL1        0.0153
      4 C          -5.0812  -16.3962   24.7913 C.ar    1  UNL1        0.0124
      5 C          -6.3372  -15.7472   25.2925 C.ar    1  UNL1        0.0791
      6 C          -7.6425  -16.0049   24.5997 C.ar    1  UNL1        0.0685
      7 CL         -8.8985  -15.3559   25.1009 Cl      1  UNL1       -0.0815
      8 C          -7.6917  -16.9116   23.4058 C.ar    1  UNL1        0.0266
      9 C          -6.2880  -14.8405   26.4864 C.1     1  UNL1        0.1013
     10 N          -6.2388  -13.9338   27.6804 N.1     1  UNL1       -0.1908
     11 N          -2.9155  -18.9722   20.2718 N.3     1  UNL1       -0.1576
     12 C          -3.5895  -20.2356   19.8249 C.3     1  UNL1        0.0972
     13 C          -5.0087  -20.2002   20.3096 C.3     1  UNL1        0.0403
     14 C          -5.2116  -18.9150   21.0559 C.3     1  UNL1        0.0922
     15 C          -3.9180  -18.1560   21.0326 C.3     1  UNL1        0.1151
     16 C          -0.0632  -18.2114   19.7377 C.3     1  UNL1        0.1960
     17 S          -1.4894  -18.5918   20.0047 S.O2    1  UNL1        0.0457
     18 O          -1.1646  -18.7911   21.4555 O.2     1  UNL1       -0.1572
     19 O          -1.8141  -18.3925   18.5539 O.2     1  UNL1       -0.1572
     20 C          -7.8071  -18.9263   21.1715 C.3     1  UNL1        0.1184
     21 C          -8.9145  -19.2942   22.1140 C.ar    1  UNL1        0.0072
     22 C          -8.6552  -20.2529   23.2382 C.ar    1  UNL1       -0.0019
     23 C          -9.7626  -20.6208   24.1807 C.ar    1  UNL1       -0.0002
     24 C         -11.1293  -20.0300   23.9991 C.ar    1  UNL1        0.0007
     25 C         -11.3887  -19.0713   22.8749 C.ar    1  UNL1        0.0100
     26 C         -10.2813  -18.7034   21.9324 C.ar    1  UNL1        0.0661
     27 C         -10.5407  -17.7448   20.8083 C.1     1  UNL1        0.1001
     28 N         -10.8000  -16.7861   19.6842 N.1     1  UNL1       -0.1908
@<TRIPOS>BOND
     1    16    17    1
     2    17    18    2
     3    17    19    2
     4    17    11    1
     5    11    12    1
     6    12    13    1
     7    13    14    1
     8    14     1    1
     9     1    20    1
    10    20    21    1
    11    21    22   ar
    12    22    23   ar
    13    23    24   ar
    14    24    25   ar
    15    25    26   ar
    16    26    27    1
    17    27    28    3
    18     1     2    1
    19     2     3   ar
    20     3     4   ar
    21     4     5   ar
    22     5     9    1
    23     9    10    3
    24     5     6   ar
    25     6     7    1
    26     6     8   ar
    27    14    15    1
    28    15    11    1
    29    26    21   ar
    30     8     2   ar
@<TRIPOS>MOLECULE
*****
 28 30 0 0 0
SMALL
GASTEIGER

@<TRIPOS>ATOM
      1 N           3.2067   -0.7454   19.8239 N.pl3   1  UNL1       -0.3037
      2 C           2.4895   -0.1941   21.0204 C.ar    1  UNL1        0.0490
      3 C           1.2059    0.5614   20.8432 C.ar    1  UNL1        0.0153
      4 C           0.4887    1.1128   22.0397 C.ar    1  UNL1        0.0124
      5 C           1.0551    0.9085   23.4135 C.ar    1  UNL1        0.0791
      6 C           2.3388    0.1529   23.5909 C.ar    1  UNL1        0.0685
      7 CL          2.9052   -0.0514   24.9647 Cl      1  UNL1       -0.0815
      8 C           3.0560   -0.3984   22.3943 C.ar    1  UNL1        0.0266
      9 C           0.3380    1.4598   24.6101 C.1     1  UNL1        0.1013
     10 N          -0.3792    2.0111   25.8066 N.1     1  UNL1       -0.1908
     11 N           5.9348   -3.4149   20.5287 N.3     1  UNL1       -0.1576
     12 C           4.8942   -4.2409   19.8322 C.3     1  UNL1        0.0972
     13 C           3.7455   -3.3413   19.4834 C.3     1  UNL1        0.0403
     14 C           4.0763   -1.9596   19.9643 C.3     1  UNL1        0.0922
     15 C           5.4293   -2.0050   20.6104 C.3     1  UNL1        0.1151
     16 C           8.5651   -4.4085   21.5747 C.3     1  UNL1        0.1960
     17 S           7.2499   -3.9117   21.0517 S.O2    1  UNL1        0.0457
     18 O           7.9620   -3.1909   19.9456 O.2     1  UNL1       -0.1572
     19 O           6.5379   -4.6325   22.1578 O.2     1  UNL1       -0.1572
     20 C           3.0542   -0.0827   18.4870 C.3     1  UNL1        0.1184
     21 C           3.7647    1.2078   18.2042 C.ar    1  UNL1        0.0072
     22 C           3.0623    2.5146   18.4251 C.ar    1  UNL1       -0.0019
     23 C           3.7727    3.8051   18.1423 C.ar    1  UNL1       -0.0002
     24 C           5.1855    3.7888   17.6387 C.ar    1  UNL1        0.0007
     25 C           5.8880    2.4819   17.4178 C.ar    1  UNL1        0.0100
     26 C           5.1776    1.1914   17.7006 C.ar    1  UNL1        0.0661
     27 C           5.8799   -0.1154   17.4797 C.1     1  UNL1        0.1001
     28 N           6.5823   -1.4223   17.2589 N.1     1  UNL1       -0.1908
@<TRIPOS>BOND
     1    16    17    1
     2    17    18    2
     3    17    19    2
     4    17    11    1
     5    11    12    1
     6    12    13    1
     7    13    14    1
     8    14     1    1
     9     1    20    1
    10    20    21    1
    11    21    22   ar
    12    22    23   ar
    13    23    24   ar
    14    24    25   ar
    15    25    26   ar
    16    26    27    1
    17    27    28    3
    18     1     2    1
    19     2     3   ar
    20     3     4   ar
    21     4     5   ar
    22     5     9    1
    23     9    10    3
    24     5     6   ar
    25     6     7    1
    26     6     8   ar
    27    14    15    1
    28    15    11    1
    29    26    21   ar
    30     8     2   ar
@<TRIPOS>MOLECULE
*****
 28 30 0 0 0
SMALL
GASTEIGER

@<TRIPOS>ATOM
      1 N           4.9181   -2.5967   21.4632 N.pl3   1  UNL1       -0.3037
      2 C           4.6868   -1.4652   22.4203 C.ar    1  UNL1        0.0490
      3 C           3.6346   -1.5847   23.4827 C.ar    1  UNL1        0.0153
      4 C           3.4032   -0.4532   24.4398 C.ar    1  UNL1        0.0124
      5 C           4.2240    0.7979   24.3345 C.ar    1  UNL1        0.0791
      6 C           5.2762    0.9175   23.2721 C.ar    1  UNL1        0.0685
      7 CL          6.0969    2.1686   23.1669 Cl      1  UNL1       -0.0815
      8 C           5.5076   -0.2140   22.3150 C.ar    1  UNL1        0.0266
      9 C           3.9926    1.9294   25.2917 C.1     1  UNL1        0.1013
     10 N           3.7612    3.0610   26.2488 N.1     1  UNL1       -0.1908
     11 N           7.7733   -4.9822   22.5690 N.3     1  UNL1       -0.1576
     12 C           8.1759   -4.6842   21.1550 C.3     1  UNL1        0.0972
     13 C           7.1553   -3.7543   20.5687 C.3     1  UNL1        0.0403
     14 C           6.1221   -3.4776   21.6203 C.3     1  UNL1        0.0922
     15 C           6.5040   -4.2365   22.8565 C.3     1  UNL1        0.1151
     16 C           9.2480   -6.7578   24.4853 C.3     1  UNL1        0.1960
     17 S           8.5106   -5.8700   23.5271 S.O2    1  UNL1        0.0457
     18 O           8.5399   -4.7588   24.5342 O.2     1  UNL1       -0.1572
     19 O           8.4815   -6.9813   22.5200 O.2     1  UNL1       -0.1572
     20 C           3.9457   -2.8473   20.3490 C.3     1  UNL1        0.1184
     21 C           3.2591   -1.6941   19.6791 C.ar    1  UNL1        0.0072
     22 C           1.9483   -1.1919   20.2079 C.ar    1  UNL1       -0.0019
     23 C           1.2617   -0.0386   19.5381 C.ar    1  UNL1       -0.0002
     24 C           1.8859    0.6123   18.3395 C.ar    1  UNL1        0.0007
     25 C           3.1967    0.1101   17.8107 C.ar    1  UNL1        0.0100
     26 C           3.8833   -1.0431   18.4805 C.ar    1  UNL1        0.0661
     27 C           5.1941   -1.5453   17.9518 C.1     1  UNL1        0.1001
     28 N           6.5048   -2.0475   17.4230 N.1     1  UNL1       -0.1908
@<TRIPOS>BOND
     1    16    17    1
     2    17    18    2
     3    17    19    2
     4    17    11    1
     5    11    12    1
     6    12    13    1
     7    13    14    1
     8    14     1    1
     9     1    20    1
    10    20    21    1
    11    21    22   ar
    12    22    23   ar
    13    23    24   ar
    14    24    25   ar
    15    25    26   ar
    16    26    27    1
    17    27    28    3
    18     1     2    1
    19     2     3   ar
    20     3     4   ar
    21     4     5   ar
    22     5     9    1
    23     9    10    3
    24     5     6   ar
    25     6     7    1
    26     6     8   ar
    27    14    15    1
    28    15    11    1
    29    26    21   ar
    30     8     2   ar
@<TRIPOS>MOLECULE
*****
 28 30 0 0 0
SMALL
GASTEIGER

@<TRIPOS>ATOM
      1 N          -0.1852    2.8910   24.4635 N.pl3   1  UNL1       -0.3037
      2 C           0.0181    2.6307   25.9267 C.ar    1  UNL1        0.0490
      3 C           0.8094    3.5969   26.7575 C.ar    1  UNL1        0.0153
      4 C           1.0127    3.3366   28.2207 C.ar    1  UNL1        0.0124
      5 C           0.4248    2.1101   28.8531 C.ar    1  UNL1        0.0791
      6 C          -0.3664    1.1438   28.0223 C.ar    1  UNL1        0.0685
      7 CL         -0.9543   -0.0828   28.6546 Cl      1  UNL1       -0.0815
      8 C          -0.5698    1.4041   26.5591 C.ar    1  UNL1        0.0266
      9 C           0.6282    1.8498   30.3163 C.1     1  UNL1        0.1013
     10 N           0.8316    1.5895   31.7794 N.1     1  UNL1       -0.1908
     11 N           1.2380    1.0858   21.3360 N.3     1  UNL1       -0.1576
     12 C           2.0715    0.4787   22.4254 C.3     1  UNL1        0.0972
     13 C           1.6398    1.0811   23.7297 C.3     1  UNL1        0.0403
     14 C           0.5395    2.0604   23.4462 C.3     1  UNL1        0.0922
     15 C           0.2912    2.0633   21.9669 C.3     1  UNL1        0.1151
     16 C           1.4308    0.4556   18.4094 C.3     1  UNL1        0.1960
     17 S           1.3344    0.7707   19.8727 S.O2    1  UNL1        0.0457
     18 O           0.7847   -0.6007   20.1319 O.2     1  UNL1       -0.1572
     19 O           1.8840    2.1421   19.6135 O.2     1  UNL1       -0.1572
     20 C          -1.1132    3.9818   24.0177 C.3     1  UNL1        0.1184
     21 C          -2.5485    3.9701   24.4533 C.ar    1  UNL1        0.0072
     22 C          -2.9012    4.2614   25.8819 C.ar    1  UNL1       -0.0019
     23 C          -4.3365    4.2497   26.3175 C.ar    1  UNL1       -0.0002
     24 C          -5.4192    3.9467   25.3246 C.ar    1  UNL1        0.0007
     25 C          -5.0666    3.6554   23.8959 C.ar    1  UNL1        0.0100
     26 C          -3.6313    3.6671   23.4603 C.ar    1  UNL1        0.0661
     27 C          -3.2786    3.3759   22.0318 C.1     1  UNL1        0.1001
     28 N          -2.9260    3.0846   20.6032 N.1     1  UNL1       -0.1908
@<TRIPOS>BOND
     1    16    17    1
     2    17    18    2
     3    17    19    2
     4    17    11    1
     5    11    12    1
     6    12    13    1
     7    13    14    1
     8    14     1    1
     9     1    20    1
    10    20    21    1
    11    21    22   ar
    12    22    23   ar
    13    23    24   ar
    14    24    25   ar
    15    25    26   ar
    16    26    27    1
    17    27    28    3
    18     1     2    1
    19     2     3   ar
    20     3     4   ar
    21     4     5   ar
    22     5     9    1
    23     9    10    3
    24     5     6   ar
    25     6     7    1
    26     6     8   ar
    27    14    15    1
    28    15    11    1
    29    26    21   ar
    30     8     2   ar
