@<TRIPOS>MOLECULE
*****
 32 35 0 0 0
SMALL
GASTEIGER

@<TRIPOS>ATOM
      1 C           8.5560   -5.4865   25.5072 C.ar    1  UNL1        0.1803
      2 C           7.9414   -5.5685   26.8731 C.ar    1  UNL1        0.0516
      3 C           7.8548   -6.8894   27.5785 C.ar    1  UNL1        0.0019
      4 C           8.3828   -8.1284   26.9181 C.ar    1  UNL1       -0.0023
      5 C           8.9973   -8.0465   25.5523 C.ar    1  UNL1        0.0019
      6 C           9.0839   -6.7255   24.8467 C.ar    1  UNL1        0.0516
      7 S           8.6426   -4.1656   24.8017 S.O     1  UNL1        0.0474
      8 O           9.4736   -3.0592   25.3807 O.co2   1  UNL1       -0.6776
      9 N           6.4093   -3.5222   20.9484 N.3     1  UNL1       -0.2723
     10 C           5.6570   -3.6369   22.2410 C.3     1  UNL1        0.0773
     11 C           6.4015   -3.8514   23.5255 C.3     1  UNL1        0.0767
     12 C           7.8981   -3.9512   23.5173 C.3     1  UNL1        0.2101
     13 C           8.6503   -3.8365   22.2246 C.3     1  UNL1        0.0767
     14 C           7.9059   -3.6220   20.9401 C.3     1  UNL1        0.0773
     15 C           5.6648   -3.3078   19.6640 C.3     1  UNL1        0.0721
     16 C           3.2756   -2.2875   19.6905 C.3     1  UNL1        0.0014
     17 C           4.1760   -3.4853   19.6213 C.3     1  UNL1        0.0160
     18 C           3.5875   -4.8605   19.5096 C.3     1  UNL1        0.0014
     19 C           8.2962   -9.4493   27.6236 C.3     1  UNL1        0.1167
     20 N           6.9690  -10.1309   27.7791 N.am    1  UNL1       -0.2944
     21 C           6.9086  -11.6134   27.9996 C.2     1  UNL1        0.2808
     22 O           8.1752  -12.4142   28.0647 O.2     1  UNL1       -0.2668
     23 H           6.1377   -9.6053   27.7364 H       1  UNL1        0.1501
     24 C           5.5815  -12.2950   28.1551 C.ar    1  UNL1        0.1984
     25 C           4.4590  -11.8473   29.0437 C.ar    1  UNL1        0.0453
     26 C           3.3276  -12.8196   28.8871 C.ar    1  UNL1        0.0409
     27 C           1.9668  -12.8855   29.5144 C.ar    1  UNL1        0.0238
     28 C           1.0291  -14.0001   29.1563 C.ar    1  UNL1        0.0991
     29 N           1.4522  -15.0488   28.1708 N.ar    1  UNL1       -0.2391
     30 C           2.8131  -14.9828   27.5434 C.ar    1  UNL1        0.1362
     31 C           3.7508  -13.8682   27.9015 C.ar    1  UNL1        0.1646
     32 O           5.1437  -13.5440   27.4492 O.2     1  UNL1       -0.4473
@<TRIPOS>UNITY_ATOM_ATTR
7 1
charge 1
8 1
charge -1
@<TRIPOS>BOND
     1    16    17    1
     2    17    18    1
     3    17    15    1
     4    15     9    1
     5     9    10    1
     6    10    11    1
     7    11    12    1
     8    12     7    1
     9     7     8    2
    10     7     1    1
    11     1     2   ar
    12     2     3   ar
    13     3     4   ar
    14     4    19    1
    15    19    20    1
    16    20    21   am
    17    21    22    2
    18    21    24    1
    19    24    25   ar
    20    25    26   ar
    21    26    27   ar
    22    27    28   ar
    23    28    29   ar
    24    29    30   ar
    25    30    31   ar
    26    31    32   ar
    27     4     5   ar
    28     5     6   ar
    29    12    13    1
    30    13    14    1
    31    14     9    1
    32     6     1   ar
    33    32    24   ar
    34    31    26   ar
    35    20    23    1
@<TRIPOS>MOLECULE
*****
 32 35 0 0 0
SMALL
GASTEIGER

@<TRIPOS>ATOM
      1 C           8.1991   -5.4905   24.7539 C.ar    1  UNL1        0.1803
      2 C           7.7764   -5.3681   26.1879 C.ar    1  UNL1        0.0516
      3 C           7.7447   -6.5831   27.0668 C.ar    1  UNL1        0.0019
      4 C           8.1356   -7.9207   26.5118 C.ar    1  UNL1       -0.0023
      5 C           8.5583   -8.0432   25.0778 C.ar    1  UNL1        0.0019
      6 C           8.5901   -6.8281   24.1988 C.ar    1  UNL1        0.0516
      7 S           8.2309   -4.2755   23.8750 S.O     1  UNL1        0.0474
      8 O           9.5286   -3.8123   23.2822 O.co2   1  UNL1       -0.6776
      9 N           4.4329   -2.0197   23.0165 N.3     1  UNL1       -0.2723
     10 C           5.1022   -1.8809   24.3517 C.3     1  UNL1        0.0773
     11 C           6.3682   -2.6328   24.6379 C.3     1  UNL1        0.0767
     12 C           6.9649   -3.5236   23.5888 C.3     1  UNL1        0.2101
     13 C           6.2956   -3.6624   22.2536 C.3     1  UNL1        0.0767
     14 C           5.0296   -2.9105   21.9674 C.3     1  UNL1        0.0773
     15 C           3.1669   -1.2678   22.7303 C.3     1  UNL1        0.0721
     16 C           3.0467    0.8271   21.1984 C.3     1  UNL1        0.0014
     17 C           2.9458   -0.6588   21.3775 C.3     1  UNL1        0.0160
     18 C           2.6238   -1.5355   20.2038 C.3     1  UNL1        0.0014
     19 C           8.1038   -9.1358   27.3908 C.3     1  UNL1        0.1167
     20 N           6.8215   -9.8904   27.5812 N.am    1  UNL1       -0.2944
     21 C           6.8518  -11.3679   27.8384 C.2     1  UNL1        0.2808
     22 O           8.1644  -12.0907   27.9054 O.2     1  UNL1       -0.2668
     23 H           5.9600   -9.4160   27.5372 H       1  UNL1        0.1501
     24 C           5.5695  -12.1225   28.0288 C.ar    1  UNL1        0.1984
     25 C           4.4934  -11.7960   29.0214 C.ar    1  UNL1        0.0453
     26 C           3.3969  -12.8078   28.8661 C.ar    1  UNL1        0.0409
     27 C           2.0872  -12.9854   29.5752 C.ar    1  UNL1        0.0238
     28 C           1.1760  -14.1148   29.1958 C.ar    1  UNL1        0.0991
     29 N           1.5745  -15.0666   28.1071 N.ar    1  UNL1       -0.2391
     30 C           2.8842  -14.8890   27.3979 C.ar    1  UNL1        0.1362
     31 C           3.7955  -13.7596   27.7774 C.ar    1  UNL1        0.1646
     32 O           5.1382  -13.3361   27.2600 O.2     1  UNL1       -0.4473
@<TRIPOS>UNITY_ATOM_ATTR
7 1
charge 1
8 1
charge -1
@<TRIPOS>BOND
     1    16    17    1
     2    17    18    1
     3    17    15    1
     4    15     9    1
     5     9    10    1
     6    10    11    1
     7    11    12    1
     8    12     7    1
     9     7     8    2
    10     7     1    1
    11     1     2   ar
    12     2     3   ar
    13     3     4   ar
    14     4    19    1
    15    19    20    1
    16    20    21   am
    17    21    22    2
    18    21    24    1
    19    24    25   ar
    20    25    26   ar
    21    26    27   ar
    22    27    28   ar
    23    28    29   ar
    24    29    30   ar
    25    30    31   ar
    26    31    32   ar
    27     4     5   ar
    28     5     6   ar
    29    12    13    1
    30    13    14    1
    31    14     9    1
    32     6     1   ar
    33    32    24   ar
    34    31    26   ar
    35    20    23    1
@<TRIPOS>MOLECULE
*****
 32 35 0 0 0
SMALL
GASTEIGER

@<TRIPOS>ATOM
      1 C           5.4270   -0.2963   32.7534 C.ar    1  UNL1        0.1803
      2 C           4.9151   -1.7045   32.6824 C.ar    1  UNL1        0.0516
      3 C           5.8465   -2.8239   32.3227 C.ar    1  UNL1        0.0019
      4 C           7.2898   -2.5352   32.0340 C.ar    1  UNL1       -0.0023
      5 C           7.8018   -1.1271   32.1049 C.ar    1  UNL1        0.0019
      6 C           6.8704   -0.0076   32.4647 C.ar    1  UNL1        0.0516
      7 S           4.4956    0.8230   33.1131 S.O     1  UNL1        0.0474
      8 O           3.9737    1.7371   32.0445 O.co2   1  UNL1       -0.6776
      9 N           3.2674    1.4389   37.3982 N.3     1  UNL1       -0.2723
     10 C           2.6598    2.2806   36.3155 C.3     1  UNL1        0.0773
     11 C           3.0692    2.0753   34.8871 C.3     1  UNL1        0.0767
     12 C           4.0862    1.0283   34.5415 C.3     1  UNL1        0.2101
     13 C           4.6938    0.1866   35.6242 C.3     1  UNL1        0.0767
     14 C           4.2844    0.3919   37.0526 C.3     1  UNL1        0.0773
     15 C           2.8580    1.6441   38.8265 C.3     1  UNL1        0.0721
     16 C           1.1376   -0.1228   39.6441 C.3     1  UNL1        0.0014
     17 C           1.4682    1.2908   39.2666 C.3     1  UNL1        0.0160
     18 C           0.4090    2.3511   39.3291 C.3     1  UNL1        0.0014
     19 C           8.2213   -3.6547   31.6743 C.3     1  UNL1        0.1167
     20 N           8.4004   -4.0491   30.2382 N.am    1  UNL1       -0.2944
     21 C           7.6303   -5.2075   29.6769 C.2     1  UNL1        0.2808
     22 O           6.6811   -5.9714   30.5517 O.2     1  UNL1       -0.2668
     23 H           9.0234   -3.5477   29.6640 H       1  UNL1        0.1501
     24 C           7.8095   -5.6019   28.2408 C.ar    1  UNL1        0.1984
     25 C           8.4687   -6.8553   27.7463 C.ar    1  UNL1        0.0453
     26 C           8.4275   -6.8402   26.2470 C.ar    1  UNL1        0.0409
     27 C           8.9250   -7.8131   25.2194 C.ar    1  UNL1        0.0238
     28 C           8.7378   -7.5233   23.7597 C.ar    1  UNL1        0.0991
     29 N           8.0531   -6.2606   23.3274 N.ar    1  UNL1       -0.2391
     30 C           7.5556   -5.2877   24.3550 C.ar    1  UNL1        0.1362
     31 C           7.7428   -5.5775   25.8147 C.ar    1  UNL1        0.1646
     32 O           7.3609   -4.8122   27.0470 O.2     1  UNL1       -0.4473
@<TRIPOS>UNITY_ATOM_ATTR
7 1
charge 1
8 1
charge -1
@<TRIPOS>BOND
     1    16    17    1
     2    17    18    1
     3    17    15    1
     4    15     9    1
     5     9    10    1
     6    10    11    1
     7    11    12    1
     8    12     7    1
     9     7     8    2
    10     7     1    1
    11     1     2   ar
    12     2     3   ar
    13     3     4   ar
    14     4    19    1
    15    19    20    1
    16    20    21   am
    17    21    22    2
    18    21    24    1
    19    24    25   ar
    20    25    26   ar
    21    26    27   ar
    22    27    28   ar
    23    28    29   ar
    24    29    30   ar
    25    30    31   ar
    26    31    32   ar
    27     4     5   ar
    28     5     6   ar
    29    12    13    1
    30    13    14    1
    31    14     9    1
    32     6     1   ar
    33    32    24   ar
    34    31    26   ar
    35    20    23    1
@<TRIPOS>MOLECULE
*****
 32 35 0 0 0
SMALL
GASTEIGER

@<TRIPOS>ATOM
      1 C           7.7555   -6.3354   25.1247 C.ar    1  UNL1        0.1803
      2 C           8.5761   -6.8994   24.0028 C.ar    1  UNL1        0.0516
      3 C           8.6919   -6.1507   22.7083 C.ar    1  UNL1        0.0019
      4 C           7.9871   -4.8379   22.5355 C.ar    1  UNL1       -0.0023
      5 C           7.1665   -4.2739   23.6573 C.ar    1  UNL1        0.0019
      6 C           7.0507   -5.0226   24.9519 C.ar    1  UNL1        0.0516
      7 S           7.6397   -7.0841   26.4193 S.O     1  UNL1        0.0474
      8 O           7.4361   -8.5702   26.4105 O.co2   1  UNL1       -0.6776
      9 N           7.9031   -4.8720   30.3291 N.3     1  UNL1       -0.2723
     10 C           6.6579   -4.7801   29.4979 C.3     1  UNL1        0.0773
     11 C           6.5701   -5.5175   28.1945 C.3     1  UNL1        0.0767
     12 C           7.7275   -6.3468   27.7225 C.3     1  UNL1        0.2101
     13 C           8.9727   -6.4387   28.5539 C.3     1  UNL1        0.0767
     14 C           9.0605   -5.7013   29.8571 C.3     1  UNL1        0.0773
     15 C           7.9909   -4.1347   31.6324 C.3     1  UNL1        0.0721
     16 C           7.5416   -1.5897   31.3650 C.3     1  UNL1        0.0014
     17 C           7.1224   -2.9363   31.8761 C.3     1  UNL1        0.0160
     18 C           5.8346   -3.0843   32.6309 C.3     1  UNL1        0.0014
     19 C           8.1029   -4.0891   21.2408 C.3     1  UNL1        0.1167
     20 N           7.0830   -3.0494   20.8819 N.am    1  UNL1       -0.2944
     21 C           5.7772   -3.4601   20.2686 C.2     1  UNL1        0.2808
     22 O           5.4912   -4.9104   20.0142 O.2     1  UNL1       -0.2668
     23 H           7.2707   -2.0975   21.0489 H       1  UNL1        0.1501
     24 C           4.7573   -2.4203   19.9098 C.ar    1  UNL1        0.1984
     25 C           3.3567   -2.3389   20.4406 C.ar    1  UNL1        0.0453
     26 C           2.6927   -1.1478   19.8159 C.ar    1  UNL1        0.0409
     27 C           1.3144   -0.5748   19.9636 C.ar    1  UNL1        0.0238
     28 C           0.9262    0.6530   19.1943 C.ar    1  UNL1        0.0991
     29 N           1.9164    1.3078   18.2774 N.ar    1  UNL1       -0.2391
     30 C           3.2947    0.7348   18.1297 C.ar    1  UNL1        0.1362
     31 C           3.6828   -0.4930   18.8990 C.ar    1  UNL1        0.1646
     32 O           4.9588   -1.2795   18.9570 O.2     1  UNL1       -0.4473
@<TRIPOS>UNITY_ATOM_ATTR
7 1
charge 1
8 1
charge -1
@<TRIPOS>BOND
     1    16    17    1
     2    17    18    1
     3    17    15    1
     4    15     9    1
     5     9    10    1
     6    10    11    1
     7    11    12    1
     8    12     7    1
     9     7     8    2
    10     7     1    1
    11     1     2   ar
    12     2     3   ar
    13     3     4   ar
    14     4    19    1
    15    19    20    1
    16    20    21   am
    17    21    22    2
    18    21    24    1
    19    24    25   ar
    20    25    26   ar
    21    26    27   ar
    22    27    28   ar
    23    28    29   ar
    24    29    30   ar
    25    30    31   ar
    26    31    32   ar
    27     4     5   ar
    28     5     6   ar
    29    12    13    1
    30    13    14    1
    31    14     9    1
    32     6     1   ar
    33    32    24   ar
    34    31    26   ar
    35    20    23    1
@<TRIPOS>MOLECULE
*****
 32 35 0 0 0
SMALL
GASTEIGER

@<TRIPOS>ATOM
      1 C           3.4168   -2.0398   19.2462 C.ar    1  UNL1        0.1803
      2 C           4.0088   -1.2378   18.1253 C.ar    1  UNL1        0.0516
      3 C           3.5330    0.1619   17.8717 C.ar    1  UNL1        0.0019
      4 C           2.4652    0.7598   18.7391 C.ar    1  UNL1       -0.0023
      5 C           1.8731   -0.0421   19.8600 C.ar    1  UNL1        0.0019
      6 C           2.3489   -1.4419   20.1136 C.ar    1  UNL1        0.0516
      7 S           3.8926   -3.4395   19.4998 S.O     1  UNL1        0.0474
      8 O           3.3671   -4.5724   18.6688 O.co2   1  UNL1       -0.6776
      9 N           6.8965   -4.2401   22.7533 N.3     1  UNL1       -0.2723
     10 C           5.4653   -3.9622   23.1058 C.3     1  UNL1        0.0773
     11 C           4.4639   -3.6953   22.0213 C.3     1  UNL1        0.0767
     12 C           4.8939   -3.7063   20.5843 C.3     1  UNL1        0.2101
     13 C           6.3252   -3.9843   20.2318 C.3     1  UNL1        0.0767
     14 C           7.3264   -4.2511   21.3163 C.3     1  UNL1        0.0773
     15 C           7.8978   -4.5069   23.8378 C.3     1  UNL1        0.0721
     16 C           8.3201   -7.0570   24.1000 C.3     1  UNL1        0.0014
     17 C           7.8032   -5.7622   24.6536 C.3     1  UNL1        0.0160
     18 C           7.1920   -5.7226   26.0227 C.3     1  UNL1        0.0014
     19 C           1.9893    2.1596   18.4855 C.3     1  UNL1        0.1167
     20 N           0.5288    2.4854   18.5884 N.am    1  UNL1       -0.2944
     21 C          -0.0414    2.9718   19.8877 C.2     1  UNL1        0.2808
     22 O           0.8489    3.1323   21.0842 O.2     1  UNL1       -0.2668
     23 H          -0.0556    2.3801   17.8031 H       1  UNL1        0.1501
     24 C          -1.5020    3.2977   19.9906 C.ar    1  UNL1        0.1984
     25 C          -2.3168    4.0281   18.9647 C.ar    1  UNL1        0.0453
     26 C          -3.7226    4.1322   19.4776 C.ar    1  UNL1        0.0409
     27 C          -4.9604    4.7475   18.8952 C.ar    1  UNL1        0.0238
     28 C          -6.2522    4.6966   19.6558 C.ar    1  UNL1        0.0991
     29 N          -6.3063    4.0304   20.9987 N.ar    1  UNL1       -0.2391
     30 C          -5.0684    3.4152   21.5810 C.ar    1  UNL1        0.1362
     31 C          -3.7766    3.4660   20.8204 C.ar    1  UNL1        0.1646
     32 O          -2.4042    2.9503   21.1375 O.2     1  UNL1       -0.4473
@<TRIPOS>UNITY_ATOM_ATTR
7 1
charge 1
8 1
charge -1
@<TRIPOS>BOND
     1    16    17    1
     2    17    18    1
     3    17    15    1
     4    15     9    1
     5     9    10    1
     6    10    11    1
     7    11    12    1
     8    12     7    1
     9     7     8    2
    10     7     1    1
    11     1     2   ar
    12     2     3   ar
    13     3     4   ar
    14     4    19    1
    15    19    20    1
    16    20    21   am
    17    21    22    2
    18    21    24    1
    19    24    25   ar
    20    25    26   ar
    21    26    27   ar
    22    27    28   ar
    23    28    29   ar
    24    29    30   ar
    25    30    31   ar
    26    31    32   ar
    27     4     5   ar
    28     5     6   ar
    29    12    13    1
    30    13    14    1
    31    14     9    1
    32     6     1   ar
    33    32    24   ar
    34    31    26   ar
    35    20    23    1
@<TRIPOS>MOLECULE
*****
 32 35 0 0 0
SMALL
GASTEIGER

@<TRIPOS>ATOM
      1 C           6.9580   -4.9181   29.8180 C.ar    1  UNL1        0.1803
      2 C           6.4975   -3.7257   29.0330 C.ar    1  UNL1        0.0516
      3 C           6.5465   -3.7500   27.5340 C.ar    1  UNL1        0.0019
      4 C           7.0561   -4.9668   26.8200 C.ar    1  UNL1       -0.0023
      5 C           7.5166   -6.1592   27.6049 C.ar    1  UNL1        0.0019
      6 C           7.4675   -6.1348   29.1039 C.ar    1  UNL1        0.0516
      7 S           6.9089   -4.8937   31.3170 S.O     1  UNL1        0.0474
      8 O           6.7983   -6.1776   32.0847 O.co2   1  UNL1       -0.6776
      9 N           7.0936   -0.9689   33.5106 N.3     1  UNL1       -0.2723
     10 C           8.3560   -1.6151   33.0220 C.3     1  UNL1        0.0773
     11 C           8.2945   -2.9234   32.2907 C.3     1  UNL1        0.0767
     12 C           6.9705   -3.5855   32.0481 C.3     1  UNL1        0.2101
     13 C           5.7081   -2.9392   32.5368 C.3     1  UNL1        0.0767
     14 C           5.7696   -1.6310   33.2680 C.3     1  UNL1        0.0773
     15 C           7.1552    0.3393   34.2418 C.3     1  UNL1        0.0721
     16 C           5.3492    1.4713   35.7275 C.3     1  UNL1        0.0014
     17 C           6.4723    0.4897   35.5688 C.3     1  UNL1        0.0160
     18 C           6.9125   -0.3416   36.7372 C.3     1  UNL1        0.0014
     19 C           7.1051   -4.9911   25.3209 C.3     1  UNL1        0.1167
     20 N           6.1889   -4.1085   24.5261 N.am    1  UNL1       -0.2944
     21 C           6.2963   -4.0691   23.0306 C.2     1  UNL1        0.2808
     22 O           7.3199   -4.9124   22.3297 O.2     1  UNL1       -0.2668
     23 H           5.5171   -3.5551   24.9862 H       1  UNL1        0.1501
     24 C           5.3801   -3.1866   22.2358 C.ar    1  UNL1        0.1984
     25 C           4.2656   -2.3480   22.7877 C.ar    1  UNL1        0.0453
     26 C           3.6143   -1.6307   21.6426 C.ar    1  UNL1        0.0409
     27 C           2.4648   -0.6688   21.5842 C.ar    1  UNL1        0.0238
     28 C           2.0274   -0.1021   20.2661 C.ar    1  UNL1        0.0991
     29 N           2.7394   -0.4973   19.0064 N.ar    1  UNL1       -0.2391
     30 C           3.8888   -1.4593   19.0648 C.ar    1  UNL1        0.1362
     31 C           4.3262   -2.0260   20.3829 C.ar    1  UNL1        0.1646
     32 O           5.4176   -2.9875   20.7495 O.2     1  UNL1       -0.4473
@<TRIPOS>UNITY_ATOM_ATTR
7 1
charge 1
8 1
charge -1
@<TRIPOS>BOND
     1    16    17    1
     2    17    18    1
     3    17    15    1
     4    15     9    1
     5     9    10    1
     6    10    11    1
     7    11    12    1
     8    12     7    1
     9     7     8    2
    10     7     1    1
    11     1     2   ar
    12     2     3   ar
    13     3     4   ar
    14     4    19    1
    15    19    20    1
    16    20    21   am
    17    21    22    2
    18    21    24    1
    19    24    25   ar
    20    25    26   ar
    21    26    27   ar
    22    27    28   ar
    23    28    29   ar
    24    29    30   ar
    25    30    31   ar
    26    31    32   ar
    27     4     5   ar
    28     5     6   ar
    29    12    13    1
    30    13    14    1
    31    14     9    1
    32     6     1   ar
    33    32    24   ar
    34    31    26   ar
    35    20    23    1
@<TRIPOS>MOLECULE
*****
 32 35 0 0 0
SMALL
GASTEIGER

@<TRIPOS>ATOM
      1 C           4.7695   -0.7420   32.1675 C.ar    1  UNL1        0.1803
      2 C           4.7853   -2.1317   32.7320 C.ar    1  UNL1        0.0516
      3 C           5.9312   -3.0511   32.4296 C.ar    1  UNL1        0.0019
      4 C           7.0614   -2.5809   31.5626 C.ar    1  UNL1       -0.0023
      5 C           7.0456   -1.1913   30.9981 C.ar    1  UNL1        0.0019
      6 C           5.8996   -0.2718   31.3006 C.ar    1  UNL1        0.0516
      7 S           3.6235    0.1773   32.4699 S.O     1  UNL1        0.0474
      8 O           3.5400    0.8580   33.8040 O.co2   1  UNL1       -0.6776
      9 N           0.4363    0.8934   29.3750 N.3     1  UNL1       -0.2723
     10 C           0.5709    1.8255   30.5424 C.3     1  UNL1        0.0773
     11 C           1.6333    1.5868   31.5741 C.3     1  UNL1        0.0767
     12 C           2.5611    0.4160   31.4383 C.3     1  UNL1        0.2101
     13 C           2.4265   -0.5161   30.2707 C.3     1  UNL1        0.0767
     14 C           1.3641   -0.2774   29.2391 C.3     1  UNL1        0.0773
     15 C          -0.6261    1.1321   28.3433 C.3     1  UNL1        0.0721
     16 C          -0.2397    3.4775   27.2944 C.3     1  UNL1        0.0014
     17 C          -0.3311    1.9875   27.1469 C.3     1  UNL1        0.0160
     18 C          -0.1275    1.3530   25.8031 C.3     1  UNL1        0.0014
     19 C           8.2074   -3.5003   31.2602 C.3     1  UNL1        0.1167
     20 N           8.4589   -3.9467   29.8504 N.am    1  UNL1       -0.2944
     21 C           7.6727   -5.0862   29.2730 C.2     1  UNL1        0.2808
     22 O           6.6351   -5.7793   30.1053 O.2     1  UNL1       -0.2668
     23 H           9.1399   -3.4918   29.3042 H       1  UNL1        0.1501
     24 C           7.9242   -5.5326   27.8632 C.ar    1  UNL1        0.1984
     25 C           8.7676   -6.7005   27.4454 C.ar    1  UNL1        0.0453
     26 C           8.7412   -6.7792   25.9477 C.ar    1  UNL1        0.0409
     27 C           9.3889   -7.7254   24.9807 C.ar    1  UNL1        0.0238
     28 C           9.1767   -7.5523   23.5059 C.ar    1  UNL1        0.0991
     29 N           8.3169   -6.4330   22.9981 N.ar    1  UNL1       -0.2391
     30 C           7.6692   -5.4868   23.9651 C.ar    1  UNL1        0.1362
     31 C           7.8813   -5.6599   25.4399 C.ar    1  UNL1        0.1646
     32 O           7.3764   -4.8895   26.6237 O.2     1  UNL1       -0.4473
@<TRIPOS>UNITY_ATOM_ATTR
7 1
charge 1
8 1
charge -1
@<TRIPOS>BOND
     1    16    17    1
     2    17    18    1
     3    17    15    1
     4    15     9    1
     5     9    10    1
     6    10    11    1
     7    11    12    1
     8    12     7    1
     9     7     8    2
    10     7     1    1
    11     1     2   ar
    12     2     3   ar
    13     3     4   ar
    14     4    19    1
    15    19    20    1
    16    20    21   am
    17    21    22    2
    18    21    24    1
    19    24    25   ar
    20    25    26   ar
    21    26    27   ar
    22    27    28   ar
    23    28    29   ar
    24    29    30   ar
    25    30    31   ar
    26    31    32   ar
    27     4     5   ar
    28     5     6   ar
    29    12    13    1
    30    13    14    1
    31    14     9    1
    32     6     1   ar
    33    32    24   ar
    34    31    26   ar
    35    20    23    1
@<TRIPOS>MOLECULE
*****
 32 35 0 0 0
SMALL
GASTEIGER

@<TRIPOS>ATOM
      1 C           6.8738   -4.6128   29.4057 C.ar    1  UNL1        0.1803
      2 C           7.2684   -5.7535   28.5150 C.ar    1  UNL1        0.0516
      3 C           7.2298   -5.5894   27.0246 C.ar    1  UNL1        0.0019
      4 C           6.7967   -4.2846   26.4247 C.ar    1  UNL1       -0.0023
      5 C           6.4021   -3.1439   27.3152 C.ar    1  UNL1        0.0019
      6 C           6.4407   -3.3080   28.8058 C.ar    1  UNL1        0.0516
      7 S           6.9124   -4.7770   30.8961 S.O     1  UNL1        0.0474
      8 O           6.9675   -6.1497   31.4983 O.co2   1  UNL1       -0.6776
      9 N           6.8631   -1.1512   33.5609 N.3     1  UNL1       -0.2723
     10 C           5.5826   -1.8630   33.2393 C.3     1  UNL1        0.0773
     11 C           5.5990   -3.0716   32.3510 C.3     1  UNL1        0.0767
     12 C           6.8960   -3.5684   31.7844 C.3     1  UNL1        0.2101
     13 C           8.1766   -2.8565   32.1061 C.3     1  UNL1        0.0767
     14 C           8.1601   -1.6479   32.9943 C.3     1  UNL1        0.0773
     15 C           6.8466    0.0574   34.4492 C.3     1  UNL1        0.0721
     16 C           7.6328   -0.1682   36.9152 C.3     1  UNL1        0.0014
     17 C           6.5250   -0.0876   35.9071 C.3     1  UNL1        0.0160
     18 C           5.0955   -0.1522   36.3569 C.3     1  UNL1        0.0014
     19 C           6.7581   -4.1205   24.9341 C.3     1  UNL1        0.1167
     20 N           5.5555   -3.5099   24.2777 N.am    1  UNL1       -0.2944
     21 C           5.5907   -2.0785   23.8308 C.2     1  UNL1        0.2808
     22 O           6.8285   -1.2577   24.0403 O.2     1  UNL1       -0.2668
     23 H           4.7430   -4.0486   24.1402 H       1  UNL1        0.1501
     24 C           4.3881   -1.4679   23.1744 C.ar    1  UNL1        0.1984
     25 C           3.8462   -1.8234   21.8217 C.ar    1  UNL1        0.0453
     26 C           2.6394   -0.9698   21.5667 C.ar    1  UNL1        0.0409
     27 C           1.6999   -0.8826   20.4006 C.ar    1  UNL1        0.0238
     28 C           0.5565    0.0878   20.4298 C.ar    1  UNL1        0.0991
     29 N           0.3525    0.9709   21.6250 N.ar    1  UNL1       -0.2391
     30 C           1.2920    0.8837   22.7910 C.ar    1  UNL1        0.1362
     31 C           2.4354   -0.0867   22.7619 C.ar    1  UNL1        0.1646
     32 O           3.5162   -0.3945   23.7555 O.2     1  UNL1       -0.4473
@<TRIPOS>UNITY_ATOM_ATTR
7 1
charge 1
8 1
charge -1
@<TRIPOS>BOND
     1    16    17    1
     2    17    18    1
     3    17    15    1
     4    15     9    1
     5     9    10    1
     6    10    11    1
     7    11    12    1
     8    12     7    1
     9     7     8    2
    10     7     1    1
    11     1     2   ar
    12     2     3   ar
    13     3     4   ar
    14     4    19    1
    15    19    20    1
    16    20    21   am
    17    21    22    2
    18    21    24    1
    19    24    25   ar
    20    25    26   ar
    21    26    27   ar
    22    27    28   ar
    23    28    29   ar
    24    29    30   ar
    25    30    31   ar
    26    31    32   ar
    27     4     5   ar
    28     5     6   ar
    29    12    13    1
    30    13    14    1
    31    14     9    1
    32     6     1   ar
    33    32    24   ar
    34    31    26   ar
    35    20    23    1
@<TRIPOS>MOLECULE
*****
 32 35 0 0 0
SMALL
GASTEIGER

@<TRIPOS>ATOM
      1 C           0.5335    1.2964   27.8123 C.ar    1  UNL1        0.1803
      2 C           1.8953    1.8135   27.4540 C.ar    1  UNL1        0.0516
      3 C           2.1755    2.2836   26.0574 C.ar    1  UNL1        0.0019
      4 C           1.0940    2.2366   25.0191 C.ar    1  UNL1       -0.0023
      5 C          -0.2677    1.7196   25.3773 C.ar    1  UNL1        0.0019
      6 C          -0.5480    1.2495   26.7739 C.ar    1  UNL1        0.0516
      7 S           0.2533    0.8264   29.2089 S.O     1  UNL1        0.0474
      8 O          -1.1554    0.5341   29.6334 O.co2   1  UNL1       -0.6776
      9 N           3.6388    0.2929   32.1250 N.3     1  UNL1       -0.2723
     10 C           2.6921    1.4464   32.2777 C.3     1  UNL1        0.0773
     11 C           1.5636    1.6242   31.3056 C.3     1  UNL1        0.0767
     12 C           1.3818    0.6486   30.1809 C.3     1  UNL1        0.2101
     13 C           2.3285   -0.5049   30.0282 C.3     1  UNL1        0.0767
     14 C           3.4569   -0.6827   31.0003 C.3     1  UNL1        0.0773
     15 C           4.7672    0.1151   33.0971 C.3     1  UNL1        0.0721
     16 C           4.3139   -2.3039   33.9295 C.3     1  UNL1        0.0014
     17 C           4.6403   -0.8692   34.2217 C.3     1  UNL1        0.0160
     18 C           4.8397   -0.4190   35.6386 C.3     1  UNL1        0.0014
     19 C           1.3743    2.7068   23.6224 C.3     1  UNL1        0.1167
     20 N           2.2564    1.8951   22.7207 N.am    1  UNL1       -0.2944
     21 C           1.6468    0.9803   21.7002 C.2     1  UNL1        0.2808
     22 O           0.1551    0.8772   21.5813 O.2     1  UNL1       -0.2668
     23 H           3.2354    1.9628   22.7988 H       1  UNL1        0.1501
     24 C           2.5289    0.1687   20.7985 C.ar    1  UNL1        0.1984
     25 C           2.7964   -1.3025   20.9177 C.ar    1  UNL1        0.0453
     26 C           3.7312   -1.6948   19.8121 C.ar    1  UNL1        0.0409
     27 C           4.3400   -3.0120   19.4325 C.ar    1  UNL1        0.0238
     28 C           5.2591   -3.1006   18.2504 C.ar    1  UNL1        0.0991
     29 N           5.5693   -1.8719   17.4479 N.ar    1  UNL1       -0.2391
     30 C           4.9605   -0.5546   17.8275 C.ar    1  UNL1        0.1362
     31 C           4.0415   -0.4660   19.0096 C.ar    1  UNL1        0.1646
     32 O           3.2984    0.6856   19.6192 O.2     1  UNL1       -0.4473
@<TRIPOS>UNITY_ATOM_ATTR
7 1
charge 1
8 1
charge -1
@<TRIPOS>BOND
     1    16    17    1
     2    17    18    1
     3    17    15    1
     4    15     9    1
     5     9    10    1
     6    10    11    1
     7    11    12    1
     8    12     7    1
     9     7     8    2
    10     7     1    1
    11     1     2   ar
    12     2     3   ar
    13     3     4   ar
    14     4    19    1
    15    19    20    1
    16    20    21   am
    17    21    22    2
    18    21    24    1
    19    24    25   ar
    20    25    26   ar
    21    26    27   ar
    22    27    28   ar
    23    28    29   ar
    24    29    30   ar
    25    30    31   ar
    26    31    32   ar
    27     4     5   ar
    28     5     6   ar
    29    12    13    1
    30    13    14    1
    31    14     9    1
    32     6     1   ar
    33    32    24   ar
    34    31    26   ar
    35    20    23    1
