@<TRIPOS>MOLECULE
*****
 36 39 0 0 0
SMALL
GASTEIGER

@<TRIPOS>ATOM
      1 C           4.9576   -3.2804   21.4259 C.2     1  UNL1        0.2661
      2 O           4.4872   -4.7037   21.3731 O.2     1  UNL1       -0.2710
      3 N           6.4112   -2.9633   21.2346 N.am    1  UNL1       -0.2714
      4 C           7.3943   -4.0696   20.9904 C.3     1  UNL1        0.1153
      5 C           0.1463    1.6269   21.2870 C.ar    1  UNL1       -0.0026
      6 C           0.2506    1.0029   19.9270 C.ar    1  UNL1        0.0005
      7 C           1.2337   -0.1034   19.6828 C.ar    1  UNL1        0.0363
      8 C           2.1125   -0.5856   20.7986 C.ar    1  UNL1        0.1350
      9 C           2.0083    0.0384   22.1586 C.ar    1  UNL1        0.0117
     10 C           1.0252    1.1447   22.4028 C.ar    1  UNL1       -0.0039
     11 C           2.8872   -0.4438   23.2744 C.3     1  UNL1        0.0337
     12 C           3.8703   -1.5501   23.0302 C.3     1  UNL1        0.0579
     13 C           3.9745   -2.1741   21.6701 C.3     1  UNL1        0.2415
     14 O           3.0957   -1.6919   20.5544 O.3     1  UNL1       -0.4703
     15 C          -0.8368    2.7332   21.5312 C.3     1  UNL1        0.1194
     16 C          -2.8894    3.5305   20.1524 C.2     1  UNL1        0.4020
     17 O          -3.8031    2.7952   21.0874 O.2     1  UNL1       -0.2264
     18 N          -1.4062    3.4995   20.3743 N.am    1  UNL1       -0.2665
     19 H          -0.8065    3.9821   19.7605 H       1  UNL1        0.1531
     20 C          -4.6110    3.7339   18.2172 C.3     1  UNL1        0.2573
     21 O          -3.4588    4.2969   18.9954 O.3     1  UNL1       -0.4306
     22 C           6.8817   -1.5400   21.2874 C.3     1  UNL1        0.1139
     23 C           7.0810   -0.8647   22.6119 C.ar    1  UNL1       -0.0029
     24 C           6.8057    0.6029   22.7544 C.ar    1  UNL1       -0.0026
     25 C           7.0051    1.2782   24.0788 C.ar    1  UNL1       -0.0003
     26 C           7.4797    0.4859   25.2608 C.ar    1  UNL1       -0.0000
     27 C           7.7550   -0.9817   25.1183 C.ar    1  UNL1       -0.0003
     28 C           7.5556   -1.6570   23.7938 C.ar    1  UNL1       -0.0026
     29 C           7.1528   -0.7920   20.0158 C.3     1  UNL1        0.0968
     30 N           6.0367   -0.5265   19.0493 N.3     1  UNL1       -0.2689
     31 C           5.2192    0.7286   18.9697 C.3     1  UNL1        0.0748
     32 C           4.2195    0.5613   17.8640 C.3     1  UNL1        0.0480
     33 C           4.4191   -0.7973   17.2602 C.3     1  UNL1        0.1278
     34 O           3.6336   -1.3811   16.1235 O.3     1  UNL1       -0.3830
     35 C           5.5423   -1.4696   17.9929 C.3     1  UNL1        0.1017
     36 H           3.9627   -2.2721   15.9271 H       1  UNL1        0.2104
@<TRIPOS>BOND
     1    20    21    1
     2    21    16    1
     3    16    17    2
     4    16    18   am
     5    18    15    1
     6    15     5    1
     7     5     6   ar
     8     6     7   ar
     9     7     8   ar
    10     8     9   ar
    11     9    10   ar
    12     9    11    1
    13    11    12    1
    14    12    13    1
    15    13     1    1
    16     1     2    2
    17     1     3   am
    18     3     4    1
    19     3    22    1
    20    22    29    1
    21    29    30    1
    22    30    31    1
    23    31    32    1
    24    32    33    1
    25    33    34    1
    26    33    35    1
    27    22    23    1
    28    23    24   ar
    29    24    25   ar
    30    25    26   ar
    31    26    27   ar
    32    27    28   ar
    33    13    14    1
    34    10     5   ar
    35    35    30    1
    36    28    23   ar
    37    14     8    1
    38    18    19    1
    39    34    36    1
@<TRIPOS>MOLECULE
*****
 36 39 0 0 0
SMALL
GASTEIGER

@<TRIPOS>ATOM
      1 C           7.9099   -0.8844   19.9883 C.2     1  UNL1        0.2661
      2 O           9.2386   -0.4189   19.4707 O.2     1  UNL1       -0.2710
      3 N           6.6495   -0.2111   19.5319 N.am    1  UNL1       -0.2714
      4 C           6.7179    0.9276   18.5579 C.3     1  UNL1        0.1153
      5 C           7.2337   -5.1860   25.3071 C.ar    1  UNL1       -0.0026
      6 C           6.8995   -3.7942   25.7556 C.ar    1  UNL1        0.0005
      7 C           6.9679   -2.6556   24.7816 C.ar    1  UNL1        0.0363
      8 C           7.3705   -2.9086   23.3590 C.ar    1  UNL1        0.1350
      9 C           7.7048   -4.3004   22.9104 C.ar    1  UNL1        0.0117
     10 C           7.6364   -5.4391   23.8845 C.ar    1  UNL1       -0.0039
     11 C           8.1074   -4.5535   21.4878 C.3     1  UNL1        0.0337
     12 C           8.1758   -3.4149   20.5137 C.3     1  UNL1        0.0579
     13 C           7.8415   -2.0230   20.9624 C.3     1  UNL1        0.2415
     14 O           7.4389   -1.7700   22.3850 O.3     1  UNL1       -0.4703
     15 C           7.1654   -6.3247   26.2811 C.3     1  UNL1        0.1194
     16 C           7.2477   -5.6978   28.8010 C.2     1  UNL1        0.4020
     17 O           8.7195   -5.4318   28.6868 O.2     1  UNL1       -0.2264
     18 N           6.4707   -6.1443   27.5982 N.am    1  UNL1       -0.2665
     19 H           5.5047   -6.3189   27.6732 H       1  UNL1        0.1531
     20 C           7.2657   -5.8541   31.3944 C.3     1  UNL1        0.2573
     21 O           6.5529   -5.5174   30.1182 O.3     1  UNL1       -0.4306
     22 C           5.3208   -0.6766   20.0495 C.3     1  UNL1        0.1139
     23 C           4.9152   -2.1120   19.8909 C.ar    1  UNL1       -0.0029
     24 C           5.0466   -2.7855   18.5571 C.ar    1  UNL1       -0.0026
     25 C           4.6409   -4.2209   18.3986 C.ar    1  UNL1       -0.0003
     26 C           4.1038   -4.9827   19.5738 C.ar    1  UNL1       -0.0000
     27 C           3.9724   -4.3091   20.9076 C.ar    1  UNL1       -0.0003
     28 C           4.3781   -2.8738   21.0661 C.ar    1  UNL1       -0.0026
     29 C           4.3978    0.2933   20.7257 C.3     1  UNL1        0.0968
     30 N           2.9811    0.4344   20.2532 N.3     1  UNL1       -0.2689
     31 C           1.7701   -0.1628   20.9065 C.3     1  UNL1        0.0748
     32 C           0.5674    0.2312   20.1015 C.3     1  UNL1        0.0480
     33 C           1.0350    1.0720   18.9506 C.3     1  UNL1        0.1278
     34 O           0.1638    1.6804   17.8918 O.3     1  UNL1       -0.3830
     35 C           2.5269    1.1976   19.0443 C.3     1  UNL1        0.1017
     36 H           0.7143    2.1756   17.2653 H       1  UNL1        0.2104
@<TRIPOS>BOND
     1    20    21    1
     2    21    16    1
     3    16    17    2
     4    16    18   am
     5    18    15    1
     6    15     5    1
     7     5     6   ar
     8     6     7   ar
     9     7     8   ar
    10     8     9   ar
    11     9    10   ar
    12     9    11    1
    13    11    12    1
    14    12    13    1
    15    13     1    1
    16     1     2    2
    17     1     3   am
    18     3     4    1
    19     3    22    1
    20    22    29    1
    21    29    30    1
    22    30    31    1
    23    31    32    1
    24    32    33    1
    25    33    34    1
    26    33    35    1
    27    22    23    1
    28    23    24   ar
    29    24    25   ar
    30    25    26   ar
    31    26    27   ar
    32    27    28   ar
    33    13    14    1
    34    10     5   ar
    35    35    30    1
    36    28    23   ar
    37    14     8    1
    38    18    19    1
    39    34    36    1
@<TRIPOS>MOLECULE
*****
 36 39 0 0 0
SMALL
GASTEIGER

@<TRIPOS>ATOM
      1 C           6.6306    0.5884   20.3511 C.2     1  UNL1        0.2661
      2 O           7.7689    1.5561   20.2183 O.2     1  UNL1       -0.2710
      3 N           6.2312   -0.2646   19.1836 N.am    1  UNL1       -0.2714
      4 C           6.9702   -0.1498   17.8833 C.3     1  UNL1        0.1153
      5 C           4.0729   -0.9160   26.5515 C.ar    1  UNL1       -0.0026
      6 C           5.2103   -1.8464   26.2506 C.ar    1  UNL1        0.0005
      7 C           5.9493   -1.7316   24.9504 C.ar    1  UNL1        0.0363
      8 C           5.5509   -0.6864   23.9510 C.ar    1  UNL1        0.1350
      9 C           4.4135    0.2440   24.2519 C.ar    1  UNL1        0.0117
     10 C           3.6745    0.1292   25.5521 C.ar    1  UNL1       -0.0039
     11 C           4.0150    1.2893   23.2525 C.3     1  UNL1        0.0337
     12 C           4.7540    1.4041   21.9522 C.3     1  UNL1        0.0579
     13 C           5.8915    0.4736   21.6514 C.3     1  UNL1        0.2415
     14 O           6.2899   -0.5716   22.6507 O.3     1  UNL1       -0.4703
     15 C           3.3339   -1.0308   27.8518 C.3     1  UNL1        0.1194
     16 C           1.3189   -0.3120   29.3259 C.2     1  UNL1        0.4020
     17 O           2.0925   -0.6728   30.5593 O.2     1  UNL1       -0.2264
     18 N           1.9396   -0.4910   27.9722 N.am    1  UNL1       -0.2665
     19 H           1.4318   -0.2542   27.1626 H       1  UNL1        0.1531
     20 C          -1.2126   -0.4733   28.7640 C.3     1  UNL1        0.2573
     21 O          -0.0755    0.2278   29.4463 O.3     1  UNL1       -0.4306
     22 C           5.0928   -1.2323   19.3164 C.3     1  UNL1        0.1139
     23 C           3.6800   -0.7291   19.3436 C.ar    1  UNL1       -0.0029
     24 C           2.7302   -1.2170   20.3971 C.ar    1  UNL1       -0.0026
     25 C           1.3174   -0.7138   20.4243 C.ar    1  UNL1       -0.0003
     26 C           0.8544    0.2772   19.3980 C.ar    1  UNL1       -0.0000
     27 C           1.8041    0.7651   18.3445 C.ar    1  UNL1       -0.0003
     28 C           3.2169    0.2620   18.3173 C.ar    1  UNL1       -0.0026
     29 C           5.3673   -2.7032   19.4219 C.3     1  UNL1        0.0968
     30 N           6.2950   -3.2189   20.4819 N.3     1  UNL1       -0.2689
     31 C           7.7938   -3.1793   20.4372 C.3     1  UNL1        0.0748
     32 C           8.3118   -3.8006   21.7004 C.3     1  UNL1        0.0480
     33 C           7.1331   -4.2242   22.5258 C.3     1  UNL1        0.1278
     34 O           7.1908   -4.8904   23.8685 O.3     1  UNL1       -0.3830
     35 C           5.8866   -3.8647   21.7727 C.3     1  UNL1        0.1017
     36 H           6.2894   -5.0581   24.1852 H       1  UNL1        0.2104
@<TRIPOS>BOND
     1    20    21    1
     2    21    16    1
     3    16    17    2
     4    16    18   am
     5    18    15    1
     6    15     5    1
     7     5     6   ar
     8     6     7   ar
     9     7     8   ar
    10     8     9   ar
    11     9    10   ar
    12     9    11    1
    13    11    12    1
    14    12    13    1
    15    13     1    1
    16     1     2    2
    17     1     3   am
    18     3     4    1
    19     3    22    1
    20    22    29    1
    21    29    30    1
    22    30    31    1
    23    31    32    1
    24    32    33    1
    25    33    34    1
    26    33    35    1
    27    22    23    1
    28    23    24   ar
    29    24    25   ar
    30    25    26   ar
    31    26    27   ar
    32    27    28   ar
    33    13    14    1
    34    10     5   ar
    35    35    30    1
    36    28    23   ar
    37    14     8    1
    38    18    19    1
    39    34    36    1
@<TRIPOS>MOLECULE
*****
 36 39 0 0 0
SMALL
GASTEIGER

@<TRIPOS>ATOM
      1 C           6.2856    0.9790   20.3523 C.2     1  UNL1        0.2661
      2 O           6.9837    2.2885   20.1338 O.2     1  UNL1       -0.2710
      3 N           6.3406   -0.0856   19.2970 N.am    1  UNL1       -0.2714
      4 C           7.0938    0.1593   18.0232 C.3     1  UNL1        0.1153
      5 C           3.9506   -0.6795   26.6011 C.ar    1  UNL1       -0.0026
      6 C           5.3814   -1.1133   26.4805 C.ar    1  UNL1        0.0005
      7 C           6.1346   -0.8684   25.2066 C.ar    1  UNL1        0.0363
      8 C           5.4569   -0.1896   24.0534 C.ar    1  UNL1        0.1350
      9 C           4.0261    0.2442   24.1740 C.ar    1  UNL1        0.0117
     10 C           3.2730   -0.0008   25.4478 C.ar    1  UNL1       -0.0039
     11 C           3.3484    0.9229   23.0207 C.3     1  UNL1        0.0337
     12 C           4.1016    1.1679   21.7468 C.3     1  UNL1        0.0579
     13 C           5.5324    0.7341   21.6262 C.3     1  UNL1        0.2415
     14 O           6.2101    0.0553   22.7795 O.3     1  UNL1       -0.4703
     15 C           3.1975   -0.9245   27.8750 C.3     1  UNL1        0.1194
     16 C           1.1255   -0.3066   29.3155 C.2     1  UNL1        0.4020
     17 O           1.9525   -0.4349   30.5602 O.2     1  UNL1       -0.2264
     18 N           1.7479   -0.5514   27.9729 N.am    1  UNL1       -0.2665
     19 H           1.2051   -0.4671   27.1559 H       1  UNL1        0.1531
     20 C          -1.0086    0.7266   28.2532 C.3     1  UNL1        0.2573
     21 O          -0.3241    0.0666   29.4133 O.3     1  UNL1       -0.4306
     22 C           5.6425   -1.3951   19.5156 C.3     1  UNL1        0.1139
     23 C           6.1614   -2.3598   20.5404 C.ar    1  UNL1       -0.0029
     24 C           7.6092   -2.7519   20.5361 C.ar    1  UNL1       -0.0026
     25 C           8.1280   -3.7165   21.5609 C.ar    1  UNL1       -0.0003
     26 C           7.1990   -4.2891   22.5900 C.ar    1  UNL1       -0.0000
     27 C           5.7512   -3.8971   22.5943 C.ar    1  UNL1       -0.0003
     28 C           5.2324   -2.9324   21.5696 C.ar    1  UNL1       -0.0026
     29 C           4.4255   -1.7400   18.7094 C.3     1  UNL1        0.0968
     30 N           3.1594   -0.9559   18.8897 N.3     1  UNL1       -0.2689
     31 C           2.7210    0.2138   18.0594 C.3     1  UNL1        0.0748
     32 C           1.4002    0.6888   18.5885 C.3     1  UNL1        0.0480
     33 C           1.0224   -0.1875   19.7460 C.3     1  UNL1        0.1278
     34 O          -0.2239   -0.0682   20.5721 O.3     1  UNL1       -0.3830
     35 C           2.1097   -1.2040   19.9321 C.3     1  UNL1        0.1017
     36 H          -0.2252   -0.7556   21.2565 H       1  UNL1        0.2104
@<TRIPOS>BOND
     1    20    21    1
     2    21    16    1
     3    16    17    2
     4    16    18   am
     5    18    15    1
     6    15     5    1
     7     5     6   ar
     8     6     7   ar
     9     7     8   ar
    10     8     9   ar
    11     9    10   ar
    12     9    11    1
    13    11    12    1
    14    12    13    1
    15    13     1    1
    16     1     2    2
    17     1     3   am
    18     3     4    1
    19     3    22    1
    20    22    29    1
    21    29    30    1
    22    30    31    1
    23    31    32    1
    24    32    33    1
    25    33    34    1
    26    33    35    1
    27    22    23    1
    28    23    24   ar
    29    24    25   ar
    30    25    26   ar
    31    26    27   ar
    32    27    28   ar
    33    13    14    1
    34    10     5   ar
    35    35    30    1
    36    28    23   ar
    37    14     8    1
    38    18    19    1
    39    34    36    1
@<TRIPOS>MOLECULE
*****
 36 39 0 0 0
SMALL
GASTEIGER

@<TRIPOS>ATOM
      1 C           1.3042    0.3679   20.5027 C.2     1  UNL1        0.2661
      2 O          -0.1751    0.1396   20.6010 O.2     1  UNL1       -0.2710
      3 N           1.8593    1.2260   19.4047 N.am    1  UNL1       -0.2714
      4 C           0.9352    1.8558   18.4051 C.3     1  UNL1        0.1153
      5 C           5.8205   -3.3469   24.1156 C.ar    1  UNL1       -0.0026
      6 C           5.7161   -3.9126   22.7303 C.ar    1  UNL1        0.0005
      7 C           4.7919   -3.2828   21.7307 C.ar    1  UNL1        0.0363
      8 C           3.9722   -2.0873   22.1163 C.ar    1  UNL1        0.1350
      9 C           4.0767   -1.5215   23.5016 C.ar    1  UNL1        0.0117
     10 C           5.0008   -2.1513   24.5012 C.ar    1  UNL1       -0.0039
     11 C           3.2569   -0.3259   23.8873 C.3     1  UNL1        0.0337
     12 C           2.3328    0.3039   22.8877 C.3     1  UNL1        0.0579
     13 C           2.2283   -0.2619   21.5023 C.3     1  UNL1        0.2415
     14 O           3.0480   -1.4575   21.1167 O.3     1  UNL1       -0.4703
     15 C           6.7447   -3.9767   25.1152 C.3     1  UNL1        0.1194
     16 C           6.3780   -5.4613   27.2156 C.2     1  UNL1        0.4020
     17 O           6.8672   -6.6580   26.4551 O.2     1  UNL1       -0.2264
     18 N           6.3167   -4.1206   26.5456 N.am    1  UNL1       -0.2665
     19 H           5.9956   -3.3351   27.0448 H       1  UNL1        0.1531
     20 C           6.9323   -5.3549   29.7516 C.3     1  UNL1        0.2573
     21 O           5.9500   -5.6052   28.6460 O.3     1  UNL1       -0.4306
     22 C           3.3386    1.4543   19.3064 C.3     1  UNL1        0.1139
     23 C           4.0578    2.1918   20.3967 C.ar    1  UNL1       -0.0029
     24 C           5.2796    1.5928   21.0278 C.ar    1  UNL1       -0.0026
     25 C           5.9988    2.3303   22.1181 C.ar    1  UNL1       -0.0003
     26 C           5.4961    3.6669   22.5774 C.ar    1  UNL1       -0.0000
     27 C           4.2742    4.2659   21.9463 C.ar    1  UNL1       -0.0003
     28 C           3.5551    3.5283   20.8560 C.ar    1  UNL1       -0.0026
     29 C           4.0987    0.9450   18.1177 C.3     1  UNL1        0.0968
     30 N           4.7350   -0.4127   18.1598 N.3     1  UNL1       -0.2689
     31 C           6.2057   -0.6949   18.2448 C.3     1  UNL1        0.0748
     32 C           6.3919   -2.1832   18.2619 C.3     1  UNL1        0.0480
     33 C           5.0362   -2.8209   18.1875 C.3     1  UNL1        0.1278
     34 O           4.7541   -4.2941   18.1778 O.3     1  UNL1       -0.3830
     35 C           4.0121   -1.7266   18.1244 C.3     1  UNL1        0.1017
     36 H           3.7966   -4.4396   18.1240 H       1  UNL1        0.2104
@<TRIPOS>BOND
     1    20    21    1
     2    21    16    1
     3    16    17    2
     4    16    18   am
     5    18    15    1
     6    15     5    1
     7     5     6   ar
     8     6     7   ar
     9     7     8   ar
    10     8     9   ar
    11     9    10   ar
    12     9    11    1
    13    11    12    1
    14    12    13    1
    15    13     1    1
    16     1     2    2
    17     1     3   am
    18     3     4    1
    19     3    22    1
    20    22    29    1
    21    29    30    1
    22    30    31    1
    23    31    32    1
    24    32    33    1
    25    33    34    1
    26    33    35    1
    27    22    23    1
    28    23    24   ar
    29    24    25   ar
    30    25    26   ar
    31    26    27   ar
    32    27    28   ar
    33    13    14    1
    34    10     5   ar
    35    35    30    1
    36    28    23   ar
    37    14     8    1
    38    18    19    1
    39    34    36    1
@<TRIPOS>MOLECULE
*****
 36 39 0 0 0
SMALL
GASTEIGER

@<TRIPOS>ATOM
      1 C           6.0871    0.8057   20.2406 C.2     1  UNL1        0.2661
      2 O           6.8524    2.0176   19.7984 O.2     1  UNL1       -0.2710
      3 N           5.9995   -0.3942   19.3447 N.am    1  UNL1       -0.2714
      4 C           6.6771   -0.3821   18.0065 C.3     1  UNL1        0.1153
      5 C           1.9042    1.0252   25.6908 C.ar    1  UNL1       -0.0026
      6 C           1.1092    1.3054   24.4501 C.ar    1  UNL1        0.0005
      7 C           1.7868    1.3175   23.1119 C.ar    1  UNL1        0.0363
      8 C           3.2594    1.0495   23.0145 C.ar    1  UNL1        0.1350
      9 C           4.0544    0.7693   24.2552 C.ar    1  UNL1        0.0117
     10 C           3.3768    0.7572   25.5934 C.ar    1  UNL1       -0.0039
     11 C           5.5271    0.5013   24.1578 C.3     1  UNL1        0.0337
     12 C           6.2046    0.5134   22.8196 C.3     1  UNL1        0.0579
     13 C           5.4095    0.7936   21.5788 C.3     1  UNL1        0.2415
     14 O           3.9369    1.0616   21.6763 O.3     1  UNL1       -0.4703
     15 C           1.2266    1.0131   27.0290 C.3     1  UNL1        0.1194
     16 C           1.2485   -0.1669   29.3435 C.2     1  UNL1        0.4020
     17 O          -0.2251   -0.4216   29.2277 O.2     1  UNL1       -0.2264
     18 N           1.9744    0.5504   28.2442 N.am    1  UNL1       -0.2665
     19 H           2.9416    0.7175   28.3202 H       1  UNL1        0.1531
     20 C           2.7518    0.3594   31.3962 C.3     1  UNL1        0.2573
     21 O           1.9964   -0.6296   30.5587 O.3     1  UNL1       -0.4306
     22 C           5.2342   -1.6061   19.7869 C.3     1  UNL1        0.1139
     23 C           5.7667   -2.4665   20.8943 C.ar    1  UNL1       -0.0029
     24 C           7.1755   -2.9782   20.8354 C.ar    1  UNL1       -0.0026
     25 C           7.7078   -3.8385   21.9427 C.ar    1  UNL1       -0.0003
     26 C           6.8314   -4.1872   23.1091 C.ar    1  UNL1       -0.0000
     27 C           5.4227   -3.6756   23.1680 C.ar    1  UNL1       -0.0003
     28 C           4.8903   -2.8152   22.0607 C.ar    1  UNL1       -0.0026
     29 C           3.9365   -1.9577   19.1218 C.3     1  UNL1        0.0968
     30 N           2.7944   -0.9856   19.1450 N.3     1  UNL1       -0.2689
     31 C           2.5974    0.1659   18.2041 C.3     1  UNL1        0.0748
     32 C           1.3300    0.8689   18.5907 C.3     1  UNL1        0.0480
     33 C           0.7436    0.1518   19.7705 C.3     1  UNL1        0.1278
     34 O          -0.5251    0.5168   20.4827 O.3     1  UNL1       -0.3830
     35 C           1.6487   -0.9944   20.1131 C.3     1  UNL1        0.1017
     36 H          -0.6785   -0.1066   21.2099 H       1  UNL1        0.2104
@<TRIPOS>BOND
     1    20    21    1
     2    21    16    1
     3    16    17    2
     4    16    18   am
     5    18    15    1
     6    15     5    1
     7     5     6   ar
     8     6     7   ar
     9     7     8   ar
    10     8     9   ar
    11     9    10   ar
    12     9    11    1
    13    11    12    1
    14    12    13    1
    15    13     1    1
    16     1     2    2
    17     1     3   am
    18     3     4    1
    19     3    22    1
    20    22    29    1
    21    29    30    1
    22    30    31    1
    23    31    32    1
    24    32    33    1
    25    33    34    1
    26    33    35    1
    27    22    23    1
    28    23    24   ar
    29    24    25   ar
    30    25    26   ar
    31    26    27   ar
    32    27    28   ar
    33    13    14    1
    34    10     5   ar
    35    35    30    1
    36    28    23   ar
    37    14     8    1
    38    18    19    1
    39    34    36    1
@<TRIPOS>MOLECULE
*****
 36 39 0 0 0
SMALL
GASTEIGER

@<TRIPOS>ATOM
      1 C           5.5222    1.3635   19.7481 C.2     1  UNL1        0.2661
      2 O           6.7502    2.2238   19.7898 O.2     1  UNL1       -0.2710
      3 N           5.0715    0.7619   18.4500 N.am    1  UNL1       -0.2714
      4 C           5.8490    1.0207   17.1935 C.3     1  UNL1        0.1153
      5 C           1.4028    1.3299   25.2508 C.ar    1  UNL1       -0.0026
      6 C           1.1706    2.5903   24.4713 C.ar    1  UNL1        0.0005
      7 C           1.9481    2.8491   23.2149 C.ar    1  UNL1        0.0363
      8 C           2.9577    1.8475   22.7379 C.ar    1  UNL1        0.1350
      9 C           3.1898    0.5872   23.5174 C.ar    1  UNL1        0.0117
     10 C           2.4124    0.3284   24.7738 C.ar    1  UNL1       -0.0039
     11 C           4.1995   -0.4145   23.0404 C.3     1  UNL1        0.0337
     12 C           4.9769   -0.1557   21.7840 C.3     1  UNL1        0.0579
     13 C           4.7447    1.1047   21.0045 C.3     1  UNL1        0.2415
     14 O           3.7351    2.1063   21.4815 O.3     1  UNL1       -0.4703
     15 C           0.6253    1.0712   26.5072 C.3     1  UNL1        0.1194
     16 C           0.7287    0.3417   28.9986 C.2     1  UNL1        0.4020
     17 O          -0.3307    1.3481   29.3373 O.2     1  UNL1       -0.2264
     18 N           1.2067    0.2032   27.5836 N.am    1  UNL1       -0.2665
     19 H           1.9020   -0.4574   27.3613 H       1  UNL1        0.1531
     20 C           2.7911   -0.5354   30.3128 C.3     1  UNL1        0.2573
     21 O           1.3101   -0.5263   30.0750 O.3     1  UNL1       -0.4306
     22 C           3.8435   -0.0984   18.4083 C.3     1  UNL1        0.1139
     23 C           2.5491    0.4146   18.9665 C.ar    1  UNL1       -0.0029
     24 C           1.7593   -0.4274   19.9242 C.ar    1  UNL1       -0.0026
     25 C           0.4650    0.0856   20.4823 C.ar    1  UNL1       -0.0003
     26 C          -0.0396    1.4405   20.0827 C.ar    1  UNL1       -0.0000
     27 C           0.7502    2.2824   19.1250 C.ar    1  UNL1       -0.0003
     28 C           2.0445    1.7695   18.5668 C.ar    1  UNL1       -0.0026
     29 C           3.9098   -1.4716   17.8085 C.3     1  UNL1        0.0968
     30 N           4.3533   -2.6349   18.6452 N.3     1  UNL1       -0.2689
     31 C           3.5304   -3.8428   18.9826 C.3     1  UNL1        0.0748
     32 C           4.3661   -4.7490   19.8374 C.3     1  UNL1        0.0480
     33 C           5.7055   -4.1011   20.0282 C.3     1  UNL1        0.1278
     34 O           6.8515   -4.6613   20.8173 O.3     1  UNL1       -0.3830
     35 C           5.6975   -2.7944   19.2914 C.3     1  UNL1        0.1017
     36 H           7.6002   -4.0457   20.7817 H       1  UNL1        0.2104
@<TRIPOS>BOND
     1    20    21    1
     2    21    16    1
     3    16    17    2
     4    16    18   am
     5    18    15    1
     6    15     5    1
     7     5     6   ar
     8     6     7   ar
     9     7     8   ar
    10     8     9   ar
    11     9    10   ar
    12     9    11    1
    13    11    12    1
    14    12    13    1
    15    13     1    1
    16     1     2    2
    17     1     3   am
    18     3     4    1
    19     3    22    1
    20    22    29    1
    21    29    30    1
    22    30    31    1
    23    31    32    1
    24    32    33    1
    25    33    34    1
    26    33    35    1
    27    22    23    1
    28    23    24   ar
    29    24    25   ar
    30    25    26   ar
    31    26    27   ar
    32    27    28   ar
    33    13    14    1
    34    10     5   ar
    35    35    30    1
    36    28    23   ar
    37    14     8    1
    38    18    19    1
    39    34    36    1
@<TRIPOS>MOLECULE
*****
 36 39 0 0 0
SMALL
GASTEIGER

@<TRIPOS>ATOM
      1 C           3.8535   -2.4989   19.6864 C.2     1  UNL1        0.2661
      2 O           3.2654   -3.8499   19.4054 O.2     1  UNL1       -0.2710
      3 N           5.3058   -2.3718   20.0393 N.am    1  UNL1       -0.2714
      4 C           6.1701   -3.5957   20.1113 C.3     1  UNL1        0.1153
      5 C          -0.2749    2.9145   20.6359 C.ar    1  UNL1       -0.0026
      6 C          -0.0819    2.2085   21.9452 C.ar    1  UNL1        0.0005
      7 C           0.7823    0.9846   22.0171 C.ar    1  UNL1        0.0363
      8 C           1.4536    0.4667   20.7798 C.ar    1  UNL1        0.1350
      9 C           1.2607    1.1727   19.4705 C.ar    1  UNL1        0.0117
     10 C           0.3965    2.3966   19.3985 C.ar    1  UNL1       -0.0039
     11 C           1.9321    0.6548   18.2331 C.3     1  UNL1        0.0337
     12 C           2.7963   -0.5690   18.3050 C.3     1  UNL1        0.0579
     13 C           2.9892   -1.2750   19.6144 C.3     1  UNL1        0.2415
     14 O           2.3179   -0.7572   20.8517 O.3     1  UNL1       -0.4703
     15 C          -1.1391    4.1384   20.5639 C.3     1  UNL1        0.1194
     16 C          -3.5345    3.5742   19.7311 C.2     1  UNL1        0.4020
     17 O          -3.7919    2.8046   20.9926 O.2     1  UNL1       -0.2264
     18 N          -2.2081    4.2411   19.5168 N.am    1  UNL1       -0.2665
     19 H          -2.0392    4.7463   18.6888 H       1  UNL1        0.1531
     20 C          -6.0058    3.2474   18.9988 C.3     1  UNL1        0.2573
     21 O          -4.6036    3.6770   18.6838 O.3     1  UNL1       -0.4306
     22 C           5.8939   -1.0208   20.3203 C.3     1  UNL1        0.1139
     23 C           6.0011   -0.0060   19.2208 C.ar    1  UNL1       -0.0029
     24 C           5.5962    1.4164   19.4710 C.ar    1  UNL1       -0.0026
     25 C           5.7035    2.4311   18.3715 C.ar    1  UNL1       -0.0003
     26 C           6.2157    2.0233   17.0219 C.ar    1  UNL1       -0.0000
     27 C           6.6206    0.6009   16.7718 C.ar    1  UNL1       -0.0003
     28 C           6.5133   -0.4138   17.8713 C.ar    1  UNL1       -0.0026
     29 C           6.3747   -0.6845   21.7008 C.3     1  UNL1        0.0968
     30 N           5.3946   -0.5794   22.8315 N.3     1  UNL1       -0.2689
     31 C           4.4549    0.5630   23.0804 C.3     1  UNL1        0.0748
     32 C           3.6617    0.2502   24.3145 C.3     1  UNL1        0.0480
     33 C           4.1112   -1.0855   24.8284 C.3     1  UNL1        0.1278
     34 O           3.5825   -1.7855   26.0451 O.3     1  UNL1       -0.3830
     35 C           5.1822   -1.5982   23.9117 C.3     1  UNL1        0.1017
     36 H           4.0414   -2.6329   26.1556 H       1  UNL1        0.2104
@<TRIPOS>BOND
     1    20    21    1
     2    21    16    1
     3    16    17    2
     4    16    18   am
     5    18    15    1
     6    15     5    1
     7     5     6   ar
     8     6     7   ar
     9     7     8   ar
    10     8     9   ar
    11     9    10   ar
    12     9    11    1
    13    11    12    1
    14    12    13    1
    15    13     1    1
    16     1     2    2
    17     1     3   am
    18     3     4    1
    19     3    22    1
    20    22    29    1
    21    29    30    1
    22    30    31    1
    23    31    32    1
    24    32    33    1
    25    33    34    1
    26    33    35    1
    27    22    23    1
    28    23    24   ar
    29    24    25   ar
    30    25    26   ar
    31    26    27   ar
    32    27    28   ar
    33    13    14    1
    34    10     5   ar
    35    35    30    1
    36    28    23   ar
    37    14     8    1
    38    18    19    1
    39    34    36    1
@<TRIPOS>MOLECULE
*****
 36 39 0 0 0
SMALL
GASTEIGER

@<TRIPOS>ATOM
      1 C           4.9148   -3.2460   20.6757 C.2     1  UNL1        0.2661
      2 O           4.4477   -4.6666   20.5580 O.2     1  UNL1       -0.2710
      3 N           6.3818   -2.9343   20.6506 N.am    1  UNL1       -0.2714
      4 C           7.3818   -4.0432   20.5079 C.3     1  UNL1        0.1153
      5 C           0.3287    1.8328   20.0248 C.ar    1  UNL1       -0.0026
      6 C           0.7426    1.3671   18.6604 C.ar    1  UNL1        0.0005
      7 C           1.7426    0.2582   18.5177 C.ar    1  UNL1        0.0363
      8 C           2.3287   -0.3850   19.7394 C.ar    1  UNL1        0.1350
      9 C           1.9148    0.0807   21.1039 C.ar    1  UNL1        0.0117
     10 C           0.9148    1.1896   21.2466 C.ar    1  UNL1       -0.0039
     11 C           2.5009   -0.5626   22.3257 C.3     1  UNL1        0.0337
     12 C           3.5009   -1.6715   22.1830 C.3     1  UNL1        0.0579
     13 C           3.9148   -2.1371   20.8184 C.3     1  UNL1        0.2415
     14 O           3.3287   -1.4939   19.5967 O.3     1  UNL1       -0.4703
     15 C          -0.6713    2.9417   20.1676 C.3     1  UNL1        0.1194
     16 C          -3.2504    3.1415   20.4086 C.2     1  UNL1        0.4020
     17 O          -3.3284    3.7735   19.0506 O.2     1  UNL1       -0.2264
     18 N          -1.9218    2.7256   20.9672 N.am    1  UNL1       -0.2665
     19 H          -1.8706    2.3108   21.8585 H       1  UNL1        0.1531
     20 C          -5.5670    3.9803   21.2332 C.3     1  UNL1        0.2573
     21 O          -4.5010    2.9253   21.2083 O.3     1  UNL1       -0.4306
     22 C           6.8489   -1.5138   20.7682 C.3     1  UNL1        0.1139
     23 C           6.5786   -0.5411   19.6588 C.ar    1  UNL1       -0.0029
     24 C           6.8281   -0.9398   18.2344 C.ar    1  UNL1       -0.0026
     25 C           6.5579    0.0329   17.1250 C.ar    1  UNL1       -0.0003
     26 C           6.0382    1.4043   17.4400 C.ar    1  UNL1       -0.0000
     27 C           5.7887    1.8030   18.8643 C.ar    1  UNL1       -0.0003
     28 C           6.0589    0.8303   19.9737 C.ar    1  UNL1       -0.0026
     29 C           7.5862   -1.0659   21.9954 C.3     1  UNL1        0.0968
     30 N           6.9410   -1.1874   23.3441 N.3     1  UNL1       -0.2689
     31 C           6.3417   -0.0654   24.1391 C.3     1  UNL1        0.0748
     32 C           5.8122   -0.6368   25.4210 C.3     1  UNL1        0.0480
     33 C           6.0843   -2.1120   25.4182 C.3     1  UNL1        0.1278
     34 O           5.7223   -3.0774   26.5077 O.3     1  UNL1       -0.3830
     35 C           6.7819   -2.4522   24.1345 C.3     1  UNL1        0.1017
     36 H           6.0096   -3.9695   26.2578 H       1  UNL1        0.2104
@<TRIPOS>BOND
     1    20    21    1
     2    21    16    1
     3    16    17    2
     4    16    18   am
     5    18    15    1
     6    15     5    1
     7     5     6   ar
     8     6     7   ar
     9     7     8   ar
    10     8     9   ar
    11     9    10   ar
    12     9    11    1
    13    11    12    1
    14    12    13    1
    15    13     1    1
    16     1     2    2
    17     1     3   am
    18     3     4    1
    19     3    22    1
    20    22    29    1
    21    29    30    1
    22    30    31    1
    23    31    32    1
    24    32    33    1
    25    33    34    1
    26    33    35    1
    27    22    23    1
    28    23    24   ar
    29    24    25   ar
    30    25    26   ar
    31    26    27   ar
    32    27    28   ar
    33    13    14    1
    34    10     5   ar
    35    35    30    1
    36    28    23   ar
    37    14     8    1
    38    18    19    1
    39    34    36    1
