@<TRIPOS>MOLECULE
*****
 42 46 0 0 0
SMALL
GASTEIGER

@<TRIPOS>ATOM
      1 C          -0.8043    3.5657   22.4777 C.3     1  UNL1        0.0373
      2 C          -2.0068    4.1185   21.7718 C.3     1  UNL1        0.0075
      3 C          -3.2640    4.4000   22.5402 C.3     1  UNL1        0.0219
      4 C          -3.3185    4.1287   24.0145 C.3     1  UNL1        0.0937
      5 N          -2.1160    3.5759   24.7203 N.am    1  UNL1       -0.2758
      6 C          -2.1705    3.3045   26.1946 C.2     1  UNL1        0.2490
      7 O          -3.4277    3.5861   26.9630 O.2     1  UNL1       -0.2699
      8 C          -0.8589    3.2943   23.9520 C.3     1  UNL1        0.0976
      9 C           0.5847    3.0442   22.6981 C.ar    1  UNL1       -0.0203
     10 C           1.7562    3.7437   22.0751 C.ar    1  UNL1       -0.0033
     11 C           3.1453    3.2222   22.2955 C.ar    1  UNL1        0.0119
     12 C           3.3628    2.0010   23.1391 C.ar    1  UNL1        0.0682
     13 CL          4.7519    1.4794   23.3595 Cl      1  UNL1       -0.0814
     14 C           2.1913    1.3014   23.7622 C.ar    1  UNL1        0.0679
     15 CL          2.4089    0.0803   24.6057 Cl      1  UNL1       -0.0814
     16 C           0.8023    1.8230   23.5417 C.ar    1  UNL1        0.0080
     17 C          -0.9680    2.7517   26.9005 C.ar    1  UNL1        0.0536
     18 C          -0.8226    1.2704   27.0864 C.ar    1  UNL1        0.0045
     19 C           0.3799    0.7175   27.7923 C.ar    1  UNL1        0.0001
     20 C           1.4370    1.6460   28.3123 C.ar    1  UNL1        0.0000
     21 C           1.2917    3.1273   28.1264 C.ar    1  UNL1        0.0001
     22 C           0.0891    3.6802   27.4205 C.ar    1  UNL1        0.0045
     23 C          -0.2673    3.6559   21.0800 C.3     1  UNL1        0.0071
     24 C          -0.9881    2.9750   19.9543 C.3     1  UNL1        0.0177
     25 C          -0.2139    2.4153   18.7978 C.3     1  UNL1        0.0721
     26 C           3.3026   -0.2917   19.5436 C.3     1  UNL1        0.0819
     27 C           1.9478   -0.6594   20.0720 C.3     1  UNL1        0.0398
     28 C           0.7756    0.2430   19.8235 C.3     1  UNL1        0.0741
     29 N           0.9583    1.5130   19.0464 N.3     1  UNL1       -0.2725
     30 C           2.3131    1.8806   18.5180 C.3     1  UNL1        0.0741
     31 C           3.4852    0.9783   18.7666 C.3     1  UNL1        0.0398
     32 C           3.6299   -1.5907   20.2185 C.ar    1  UNL1       -0.0060
     33 C           3.9585   -1.6137   21.6819 C.ar    1  UNL1       -0.0027
     34 C           4.2859   -2.9126   22.3568 C.ar    1  UNL1       -0.0003
     35 C           4.2847   -4.1887   21.5682 C.ar    1  UNL1       -0.0000
     36 C           3.9561   -4.1657   20.1049 C.ar    1  UNL1       -0.0003
     37 C           3.6287   -2.8668   19.4300 C.ar    1  UNL1       -0.0027
     38 C           6.7093   -0.8730   17.5926 C.3     1  UNL1        0.0948
     39 C           5.2407   -0.7895   17.8866 C.2     1  UNL1        0.2263
     40 O           4.2419   -1.1203   16.8176 O.2     1  UNL1       -0.2748
     41 N           4.7711   -0.3752   19.2496 N.am    1  UNL1       -0.2774
     42 C           5.7700   -0.0444   20.3186 C.3     1  UNL1        0.1150
@<TRIPOS>BOND
     1    38    39    1
     2    39    40    2
     3    39    41   am
     4    41    42    1
     5    41    26    1
     6    26    32    1
     7    32    33   ar
     8    33    34   ar
     9    34    35   ar
    10    35    36   ar
    11    36    37   ar
    12    26    27    1
    13    27    28    1
    14    28    29    1
    15    29    25    1
    16    25    24    1
    17    24    23    1
    18     1    23    1
    19     1     9    1
    20     9    10   ar
    21    10    11   ar
    22    11    12   ar
    23    12    13    1
    24    12    14   ar
    25    14    15    1
    26    14    16   ar
    27     1     2    1
    28     2     3    1
    29     3     4    1
    30     4     5    1
    31     5     6   am
    32     6     7    2
    33     6    17    1
    34    17    18   ar
    35    18    19   ar
    36    19    20   ar
    37    20    21   ar
    38    21    22   ar
    39     5     8    1
    40    29    30    1
    41    30    31    1
    42    31    26    1
    43    37    32   ar
    44     8     1    1
    45    16     9   ar
    46    22    17   ar
@<TRIPOS>MOLECULE
*****
 42 46 0 0 0
SMALL
GASTEIGER

@<TRIPOS>ATOM
      1 C           0.1764    1.9378   24.6480 C.3     1  UNL1        0.0373
      2 C           0.6681    1.5523   26.0116 C.3     1  UNL1        0.0075
      3 C          -0.1550    1.8727   27.2240 C.3     1  UNL1        0.0219
      4 C          -1.4700    2.5784   27.0727 C.3     1  UNL1        0.0937
      5 N          -1.9617    2.9639   25.7090 N.am    1  UNL1       -0.2758
      6 C          -3.2766    3.6696   25.5576 C.2     1  UNL1        0.2490
      7 O          -4.0998    3.9900   26.7700 O.2     1  UNL1       -0.2699
      8 C          -1.1385    2.6435   24.4966 C.3     1  UNL1        0.0976
      9 C           0.1365    2.0973   23.1570 C.ar    1  UNL1       -0.0203
     10 C          -0.2541    3.4138   22.5537 C.ar    1  UNL1       -0.0033
     11 C          -0.2940    3.5734   21.0628 C.ar    1  UNL1        0.0119
     12 C           0.0569    2.4162   20.1750 C.ar    1  UNL1        0.0682
     13 CL          0.0171    2.5757   18.6840 Cl      1  UNL1       -0.0814
     14 C           0.4476    1.0996   20.7783 C.ar    1  UNL1        0.0679
     15 CL          0.7984   -0.0575   19.8907 Cl      1  UNL1       -0.0814
     16 C           0.4874    0.9401   22.2693 C.ar    1  UNL1        0.0080
     17 C          -3.7684    4.0551   24.1940 C.ar    1  UNL1        0.0536
     18 C          -3.4155    5.3955   23.6206 C.ar    1  UNL1        0.0045
     19 C          -3.9072    5.7810   22.2569 C.ar    1  UNL1        0.0001
     20 C          -4.7519    4.8260   21.4666 C.ar    1  UNL1        0.0000
     21 C          -5.1048    3.4856   22.0400 C.ar    1  UNL1        0.0001
     22 C          -4.6130    3.1001   23.4037 C.ar    1  UNL1        0.0045
     23 C           1.4775    1.2874   24.2815 C.3     1  UNL1        0.0071
     24 C           2.7240    1.6205   25.0466 C.3     1  UNL1        0.0177
     25 C           4.0621    1.5350   24.3740 C.3     1  UNL1        0.0721
     26 C           4.4950   -0.7205   20.5042 C.3     1  UNL1        0.0819
     27 C           4.2971   -1.4677   21.7897 C.3     1  UNL1        0.0398
     28 C           4.1528   -0.7159   23.0796 C.3     1  UNL1        0.0741
     29 N           4.2064    0.7832   23.0840 N.3     1  UNL1       -0.2725
     30 C           4.4044    1.5304   21.7986 C.3     1  UNL1        0.0741
     31 C           4.5487    0.7786   20.5086 C.3     1  UNL1        0.0398
     32 C           4.5122   -2.1301   19.9914 C.ar    1  UNL1       -0.0060
     33 C           5.8094   -2.8767   19.8933 C.ar    1  UNL1       -0.0027
     34 C           5.8265   -4.2862   19.3806 C.ar    1  UNL1       -0.0003
     35 C           4.5464   -4.9491   18.9659 C.ar    1  UNL1       -0.0000
     36 C           3.2492   -4.2024   19.0641 C.ar    1  UNL1       -0.0003
     37 C           3.2321   -2.7929   19.5768 C.ar    1  UNL1       -0.0027
     38 C           6.2687    0.1348   17.0585 C.3     1  UNL1        0.0948
     39 C           6.0648   -0.1229   18.5221 C.2     1  UNL1        0.2263
     40 O           7.2268   -0.0407   19.4671 O.2     1  UNL1       -0.2748
     41 N           4.6990   -0.4628   19.0406 N.am    1  UNL1       -0.2774
     42 C           3.5370   -0.5450   18.0956 C.3     1  UNL1        0.1150
@<TRIPOS>BOND
     1    38    39    1
     2    39    40    2
     3    39    41   am
     4    41    42    1
     5    41    26    1
     6    26    32    1
     7    32    33   ar
     8    33    34   ar
     9    34    35   ar
    10    35    36   ar
    11    36    37   ar
    12    26    27    1
    13    27    28    1
    14    28    29    1
    15    29    25    1
    16    25    24    1
    17    24    23    1
    18     1    23    1
    19     1     9    1
    20     9    10   ar
    21    10    11   ar
    22    11    12   ar
    23    12    13    1
    24    12    14   ar
    25    14    15    1
    26    14    16   ar
    27     1     2    1
    28     2     3    1
    29     3     4    1
    30     4     5    1
    31     5     6   am
    32     6     7    2
    33     6    17    1
    34    17    18   ar
    35    18    19   ar
    36    19    20   ar
    37    20    21   ar
    38    21    22   ar
    39     5     8    1
    40    29    30    1
    41    30    31    1
    42    31    26    1
    43    37    32   ar
    44     8     1    1
    45    16     9   ar
    46    22    17   ar
@<TRIPOS>MOLECULE
*****
 42 46 0 0 0
SMALL
GASTEIGER

@<TRIPOS>ATOM
      1 C          -2.4608    3.9128   22.2728 C.3     1  UNL1        0.0373
      2 C          -1.1592    3.3689   22.7826 C.3     1  UNL1        0.0075
      3 C          -0.9870    3.0835   24.2452 C.3     1  UNL1        0.0219
      4 C          -2.1165    3.3420   25.1978 C.3     1  UNL1        0.0937
      5 N          -3.4181    3.8859   24.6878 N.am    1  UNL1       -0.2758
      6 C          -4.5476    4.1443   25.6404 C.2     1  UNL1        0.2490
      7 O          -4.3754    3.8589   27.1030 O.2     1  UNL1       -0.2699
      8 C          -3.5902    4.1713   23.2254 C.3     1  UNL1        0.0976
      9 C          -3.4948    4.4292   21.3167 C.ar    1  UNL1       -0.0203
     10 C          -3.6178    5.9035   21.0692 C.ar    1  UNL1       -0.0033
     11 C          -4.6518    6.4199   20.1131 C.ar    1  UNL1        0.0119
     12 C          -5.5629    5.4618   19.4044 C.ar    1  UNL1        0.0682
     13 CL         -6.5970    5.9781   18.4483 Cl      1  UNL1       -0.0814
     14 C          -5.4400    3.9875   19.6518 C.ar    1  UNL1        0.0679
     15 CL         -6.3510    3.0295   18.9432 Cl      1  UNL1       -0.0814
     16 C          -4.4059    3.4712   20.6079 C.ar    1  UNL1        0.0080
     17 C          -5.8492    4.6882   25.1306 C.ar    1  UNL1        0.0536
     18 C          -6.5190    5.8241   25.8456 C.ar    1  UNL1        0.0045
     19 C          -7.8206    6.3680   25.3357 C.ar    1  UNL1        0.0001
     20 C          -8.4525    5.7760   24.1108 C.ar    1  UNL1        0.0000
     21 C          -7.7828    4.6401   23.3959 C.ar    1  UNL1        0.0001
     22 C          -6.4811    4.0962   23.9057 C.ar    1  UNL1        0.0045
     23 C          -1.6903    3.8337   20.9881 C.3     1  UNL1        0.0071
     24 C          -1.0328    2.5467   20.5860 C.3     1  UNL1        0.0177
     25 C          -0.0312    2.5332   19.4695 C.3     1  UNL1        0.0721
     26 C           3.3931   -0.3852   19.5542 C.3     1  UNL1        0.0819
     27 C           2.0286   -0.8168   20.0031 C.3     1  UNL1        0.0398
     28 C           0.8871    0.1559   19.9749 C.3     1  UNL1        0.0741
     29 N           1.1103    1.5604   19.4977 N.3     1  UNL1       -0.2725
     30 C           2.4748    1.9921   19.0488 C.3     1  UNL1        0.0741
     31 C           3.6163    1.0193   19.0770 C.3     1  UNL1        0.0398
     32 C           3.6783   -1.8118   19.9195 C.ar    1  UNL1       -0.0060
     33 C           3.5619   -2.8892   18.8824 C.ar    1  UNL1       -0.0027
     34 C           3.8471   -4.3158   19.2477 C.ar    1  UNL1       -0.0003
     35 C           4.2487   -4.6650   20.6501 C.ar    1  UNL1       -0.0000
     36 C           4.3651   -3.5876   21.6872 C.ar    1  UNL1       -0.0003
     37 C           4.0799   -2.1610   21.3219 C.ar    1  UNL1       -0.0027
     38 C           6.7687   -0.6961   17.4904 C.3     1  UNL1        0.0948
     39 C           5.3050   -0.6323   17.8125 C.2     1  UNL1        0.2263
     40 O           4.2897   -0.7518   16.7149 O.2     1  UNL1       -0.2748
     41 N           4.8568   -0.4489   19.2321 N.am    1  UNL1       -0.2774
     42 C           5.8721   -0.3294   20.3297 C.3     1  UNL1        0.1150
@<TRIPOS>BOND
     1    38    39    1
     2    39    40    2
     3    39    41   am
     4    41    42    1
     5    41    26    1
     6    26    32    1
     7    32    33   ar
     8    33    34   ar
     9    34    35   ar
    10    35    36   ar
    11    36    37   ar
    12    26    27    1
    13    27    28    1
    14    28    29    1
    15    29    25    1
    16    25    24    1
    17    24    23    1
    18     1    23    1
    19     1     9    1
    20     9    10   ar
    21    10    11   ar
    22    11    12   ar
    23    12    13    1
    24    12    14   ar
    25    14    15    1
    26    14    16   ar
    27     1     2    1
    28     2     3    1
    29     3     4    1
    30     4     5    1
    31     5     6   am
    32     6     7    2
    33     6    17    1
    34    17    18   ar
    35    18    19   ar
    36    19    20   ar
    37    20    21   ar
    38    21    22   ar
    39     5     8    1
    40    29    30    1
    41    30    31    1
    42    31    26    1
    43    37    32   ar
    44     8     1    1
    45    16     9   ar
    46    22    17   ar
@<TRIPOS>MOLECULE
*****
 42 46 0 0 0
SMALL
GASTEIGER

@<TRIPOS>ATOM
      1 C           4.9796   -1.0991   27.1109 C.3     1  UNL1        0.0373
      2 C           6.1180   -1.6792   27.8968 C.3     1  UNL1        0.0075
      3 C           6.0594   -1.7030   29.3955 C.3     1  UNL1        0.0219
      4 C           4.8624   -1.1468   30.1082 C.3     1  UNL1        0.0937
      5 N           3.7241   -0.5668   29.3222 N.am    1  UNL1       -0.2758
      6 C           2.5271   -0.0106   30.0349 C.2     1  UNL1        0.2490
      7 O           2.4685   -0.0344   31.5337 O.2     1  UNL1       -0.2699
      8 C           3.7827   -0.5429   27.8236 C.3     1  UNL1        0.0976
      9 C           4.1580   -0.6591   25.9356 C.ar    1  UNL1       -0.0203
     10 C           3.9801   -1.5739   24.7602 C.ar    1  UNL1       -0.0033
     11 C           3.1584   -1.1339   23.5850 C.ar    1  UNL1        0.0119
     12 C           2.5145    0.2209   23.5851 C.ar    1  UNL1        0.0682
     13 CL          1.6928    0.6610   22.4099 Cl      1  UNL1       -0.0814
     14 C           2.6923    1.1357   24.7605 C.ar    1  UNL1        0.0679
     15 CL          2.0485    2.4905   24.7607 Cl      1  UNL1       -0.0814
     16 C           3.5140    0.6957   25.9358 C.ar    1  UNL1        0.0080
     17 C           1.3888    0.5695   29.2490 C.ar    1  UNL1        0.0536
     18 C           0.1956   -0.2780   28.9202 C.ar    1  UNL1        0.0045
     19 C          -0.9427    0.3020   28.1343 C.ar    1  UNL1        0.0001
     20 C          -0.8879    1.7296   27.6771 C.ar    1  UNL1        0.0000
     21 C           0.3052    2.5771   28.0059 C.ar    1  UNL1        0.0001
     22 C           1.4436    1.9971   28.7918 C.ar    1  UNL1        0.0045
     23 C           5.8913   -1.5025   25.9900 C.3     1  UNL1        0.0071
     24 C           7.3054   -1.0032   25.9569 C.3     1  UNL1        0.0177
     25 C           8.0795   -1.0280   24.6722 C.3     1  UNL1        0.0721
     26 C           5.9261   -1.5673   20.7579 C.3     1  UNL1        0.0819
     27 C           5.8237   -0.2662   21.4971 C.3     1  UNL1        0.0398
     28 C           6.5415   -0.0864   22.8019 C.3     1  UNL1        0.0741
     29 N           7.3617   -1.2078   23.3674 N.3     1  UNL1       -0.2725
     30 C           7.4641   -2.5089   22.6282 C.3     1  UNL1        0.0741
     31 C           6.7463   -2.6887   21.3234 C.3     1  UNL1        0.0398
     32 C           5.0339   -0.8060   19.8228 C.ar    1  UNL1       -0.0060
     33 C           3.5581   -1.0742   19.8095 C.ar    1  UNL1       -0.0027
     34 C           2.6659   -0.3129   18.8744 C.ar    1  UNL1       -0.0003
     35 C           3.2495    0.7166   17.9527 C.ar    1  UNL1       -0.0000
     36 C           4.7252    0.9848   17.9660 C.ar    1  UNL1       -0.0003
     37 C           5.6174    0.2235   18.9011 C.ar    1  UNL1       -0.0027
     38 C           4.6394   -4.8308   18.9020 C.3     1  UNL1        0.0948
     39 C           4.8469   -3.7940   19.9660 C.2     1  UNL1        0.2263
     40 O           4.1827   -3.9472   21.3021 O.2     1  UNL1       -0.2748
     41 N           5.7186   -2.6041   19.6939 N.am    1  UNL1       -0.2774
     42 C           6.3829   -2.4508   18.3578 C.3     1  UNL1        0.1150
@<TRIPOS>BOND
     1    38    39    1
     2    39    40    2
     3    39    41   am
     4    41    42    1
     5    41    26    1
     6    26    32    1
     7    32    33   ar
     8    33    34   ar
     9    34    35   ar
    10    35    36   ar
    11    36    37   ar
    12    26    27    1
    13    27    28    1
    14    28    29    1
    15    29    25    1
    16    25    24    1
    17    24    23    1
    18     1    23    1
    19     1     9    1
    20     9    10   ar
    21    10    11   ar
    22    11    12   ar
    23    12    13    1
    24    12    14   ar
    25    14    15    1
    26    14    16   ar
    27     1     2    1
    28     2     3    1
    29     3     4    1
    30     4     5    1
    31     5     6   am
    32     6     7    2
    33     6    17    1
    34    17    18   ar
    35    18    19   ar
    36    19    20   ar
    37    20    21   ar
    38    21    22   ar
    39     5     8    1
    40    29    30    1
    41    30    31    1
    42    31    26    1
    43    37    32   ar
    44     8     1    1
    45    16     9   ar
    46    22    17   ar
@<TRIPOS>MOLECULE
*****
 42 46 0 0 0
SMALL
GASTEIGER

@<TRIPOS>ATOM
      1 C           7.7126   -5.4172   25.0055 C.3     1  UNL1        0.0373
      2 C           8.1013   -6.6457   24.2377 C.3     1  UNL1        0.0075
      3 C           8.6954   -7.8217   24.9547 C.3     1  UNL1        0.0219
      4 C           8.9009   -7.7691   26.4397 C.3     1  UNL1        0.0937
      5 N           8.5122   -6.5405   27.2075 N.am    1  UNL1       -0.2758
      6 C           8.7176   -6.4879   28.6925 C.2     1  UNL1        0.2490
      7 O           9.3118   -7.6639   29.4095 O.2     1  UNL1       -0.2699
      8 C           7.9181   -5.3646   26.4905 C.3     1  UNL1        0.0976
      9 C           7.1895   -4.0410   25.2922 C.ar    1  UNL1       -0.0203
     10 C           7.8873   -3.1662   26.2910 C.ar    1  UNL1       -0.0033
     11 C           7.3642   -1.7900   26.5777 C.ar    1  UNL1        0.0119
     12 C           6.1430   -1.2884   25.8654 C.ar    1  UNL1        0.0682
     13 CL          5.6198    0.0879   26.1520 Cl      1  UNL1       -0.0814
     14 C           5.4451   -2.1631   24.8665 C.ar    1  UNL1        0.0679
     15 CL          4.2240   -1.6616   24.1543 Cl      1  UNL1       -0.0814
     16 C           5.9683   -3.5394   24.5799 C.ar    1  UNL1        0.0080
     17 C           8.3290   -5.2594   29.4603 C.ar    1  UNL1        0.0536
     18 C           9.2977   -4.1222   29.5964 C.ar    1  UNL1        0.0045
     19 C           8.9090   -2.8937   30.3643 C.ar    1  UNL1        0.0001
     20 C           7.5517   -2.8023   30.9961 C.ar    1  UNL1        0.0000
     21 C           6.5830   -3.9394   30.8600 C.ar    1  UNL1        0.0001
     22 C           6.9716   -5.1680   30.0921 C.ar    1  UNL1        0.0045
     23 C           7.3255   -4.9919   23.6201 C.3     1  UNL1        0.0071
     24 C           8.3438   -5.0076   22.5188 C.3     1  UNL1        0.0177
     25 C           7.9696   -4.5365   21.1446 C.3     1  UNL1        0.0721
     26 C           5.2949   -0.9523   20.6457 C.3     1  UNL1        0.0819
     27 C           4.8225   -2.3072   20.2088 C.3     1  UNL1        0.0398
     28 C           5.7140   -3.5020   20.3751 C.3     1  UNL1        0.0741
     29 N           7.0780   -3.3418   20.9783 N.3     1  UNL1       -0.2725
     30 C           7.5505   -1.9868   21.4152 C.3     1  UNL1        0.0741
     31 C           6.6589   -0.7921   21.2489 C.3     1  UNL1        0.0398
     32 C           3.9304   -0.5993   20.1323 C.ar    1  UNL1       -0.0060
     33 C           2.7145   -0.9261   20.9477 C.ar    1  UNL1       -0.0027
     34 C           1.3501   -0.5731   20.4342 C.ar    1  UNL1       -0.0003
     35 C           1.2015    0.1066   19.1054 C.ar    1  UNL1       -0.0000
     36 C           2.4173    0.4334   18.2900 C.ar    1  UNL1       -0.0003
     37 C           3.7817    0.0805   18.8034 C.ar    1  UNL1       -0.0027
     38 C           6.0765    2.9208   20.2731 C.3     1  UNL1        0.0948
     39 C           6.0780    1.4432   20.0145 C.2     1  UNL1        0.2263
     40 O           6.8641    0.8836   18.8660 O.2     1  UNL1       -0.2748
     41 N           5.2934    0.5253   20.9043 N.am    1  UNL1       -0.2774
     42 C           4.5074    1.0849   22.0527 C.3     1  UNL1        0.1150
@<TRIPOS>BOND
     1    38    39    1
     2    39    40    2
     3    39    41   am
     4    41    42    1
     5    41    26    1
     6    26    32    1
     7    32    33   ar
     8    33    34   ar
     9    34    35   ar
    10    35    36   ar
    11    36    37   ar
    12    26    27    1
    13    27    28    1
    14    28    29    1
    15    29    25    1
    16    25    24    1
    17    24    23    1
    18     1    23    1
    19     1     9    1
    20     9    10   ar
    21    10    11   ar
    22    11    12   ar
    23    12    13    1
    24    12    14   ar
    25    14    15    1
    26    14    16   ar
    27     1     2    1
    28     2     3    1
    29     3     4    1
    30     4     5    1
    31     5     6   am
    32     6     7    2
    33     6    17    1
    34    17    18   ar
    35    18    19   ar
    36    19    20   ar
    37    20    21   ar
    38    21    22   ar
    39     5     8    1
    40    29    30    1
    41    30    31    1
    42    31    26    1
    43    37    32   ar
    44     8     1    1
    45    16     9   ar
    46    22    17   ar
@<TRIPOS>MOLECULE
*****
 42 46 0 0 0
SMALL
GASTEIGER

@<TRIPOS>ATOM
      1 C           5.8370   -1.7383   22.9594 C.3     1  UNL1        0.0373
      2 C           6.8071   -2.8821   22.9842 C.3     1  UNL1        0.0075
      3 C           6.8878   -3.8225   21.8184 C.3     1  UNL1        0.0219
      4 C           5.9985   -3.6191   20.6277 C.3     1  UNL1        0.0937
      5 N           5.0284   -2.4752   20.6029 N.am    1  UNL1       -0.2758
      6 C           4.1391   -2.2717   19.4122 C.2     1  UNL1        0.2490
      7 O           4.2198   -3.2121   18.2464 O.2     1  UNL1       -0.2699
      8 C           4.9477   -1.5348   21.7687 C.3     1  UNL1        0.0976
      9 C           5.0852   -0.5180   23.4014 C.ar    1  UNL1       -0.0203
     10 C           5.8329    0.6937   23.8735 C.ar    1  UNL1       -0.0033
     11 C           5.0811    1.9140   24.3155 C.ar    1  UNL1        0.0119
     12 C           3.5813    1.9228   24.2856 C.ar    1  UNL1        0.0682
     13 CL          2.8294    3.1431   24.7276 Cl      1  UNL1       -0.0814
     14 C           2.8335    0.7111   23.8135 C.ar    1  UNL1        0.0679
     15 CL          1.3339    0.7199   23.7835 Cl      1  UNL1       -0.0814
     16 C           3.5855   -0.5092   23.3715 C.ar    1  UNL1        0.0080
     17 C           3.1690   -1.1279   19.3874 C.ar    1  UNL1        0.0536
     18 C           1.8984   -1.2047   20.1810 C.ar    1  UNL1        0.0045
     19 C           0.9284   -0.0609   20.1561 C.ar    1  UNL1        0.0001
     20 C           1.2289    1.1598   19.3377 C.ar    1  UNL1        0.0000
     21 C           2.4994    1.2366   18.5442 C.ar    1  UNL1        0.0001
     22 C           3.4695    0.0927   18.5690 C.ar    1  UNL1        0.0045
     23 C           6.4653   -1.5180   24.3036 C.3     1  UNL1        0.0071
     24 C           6.3363   -2.5630   25.3720 C.3     1  UNL1        0.0177
     25 C           6.4097   -2.1702   26.8179 C.3     1  UNL1        0.0721
     26 C           3.0871    0.2361   28.6671 C.3     1  UNL1        0.0819
     27 C           2.8423   -0.5326   27.4026 C.3     1  UNL1        0.0398
     28 C           3.9498   -1.3347   26.7861 C.3     1  UNL1        0.0741
     29 N           5.3022   -1.3681   27.4343 N.3     1  UNL1       -0.2725
     30 C           5.5470   -0.5994   28.6989 C.3     1  UNL1        0.0741
     31 C           4.4394    0.2027   29.3153 C.3     1  UNL1        0.0398
     32 C           1.6459    0.5777   28.4295 C.ar    1  UNL1       -0.0060
     33 C           0.5650   -0.2660   29.0376 C.ar    1  UNL1       -0.0027
     34 C          -0.8761    0.0756   28.7999 C.ar    1  UNL1       -0.0003
     35 C          -1.2363    1.2609   27.9542 C.ar    1  UNL1       -0.0000
     36 C          -0.1554    2.1047   27.3461 C.ar    1  UNL1       -0.0003
     37 C           1.2857    1.7630   27.5838 C.ar    1  UNL1       -0.0027
     38 C           2.3325    1.4079   32.3830 C.3     1  UNL1        0.0948
     39 C           2.5883    0.5205   31.2010 C.2     1  UNL1        0.2263
     40 O           2.6009   -0.9698   31.3707 O.2     1  UNL1       -0.2748
     41 N           2.8314    1.1235   29.8492 N.am    1  UNL1       -0.2774
     42 C           2.8187    2.6138   29.6794 C.3     1  UNL1        0.1150
@<TRIPOS>BOND
     1    38    39    1
     2    39    40    2
     3    39    41   am
     4    41    42    1
     5    41    26    1
     6    26    32    1
     7    32    33   ar
     8    33    34   ar
     9    34    35   ar
    10    35    36   ar
    11    36    37   ar
    12    26    27    1
    13    27    28    1
    14    28    29    1
    15    29    25    1
    16    25    24    1
    17    24    23    1
    18     1    23    1
    19     1     9    1
    20     9    10   ar
    21    10    11   ar
    22    11    12   ar
    23    12    13    1
    24    12    14   ar
    25    14    15    1
    26    14    16   ar
    27     1     2    1
    28     2     3    1
    29     3     4    1
    30     4     5    1
    31     5     6   am
    32     6     7    2
    33     6    17    1
    34    17    18   ar
    35    18    19   ar
    36    19    20   ar
    37    20    21   ar
    38    21    22   ar
    39     5     8    1
    40    29    30    1
    41    30    31    1
    42    31    26    1
    43    37    32   ar
    44     8     1    1
    45    16     9   ar
    46    22    17   ar
@<TRIPOS>MOLECULE
*****
 42 46 0 0 0
SMALL
GASTEIGER

@<TRIPOS>ATOM
      1 C           4.1475   -2.3648   21.3005 C.3     1  UNL1        0.0373
      2 C           4.8569   -3.6317   20.9240 C.3     1  UNL1        0.0075
      3 C           5.1527   -3.9259   19.4832 C.3     1  UNL1        0.0219
      4 C           4.7390   -2.9533   18.4188 C.3     1  UNL1        0.0937
      5 N           4.0295   -1.6864   18.7954 N.am    1  UNL1       -0.2758
      6 C           3.6158   -0.7138   17.7310 C.2     1  UNL1        0.2490
      7 O           3.9116   -1.0080   16.2902 O.2     1  UNL1       -0.2699
      8 C           3.7338   -1.3922   20.2362 C.3     1  UNL1        0.0976
      9 C           3.5041   -1.3084   22.1490 C.ar    1  UNL1       -0.0203
     10 C           2.4907   -0.3791   21.5496 C.ar    1  UNL1       -0.0033
     11 C           1.8473    0.6773   22.3981 C.ar    1  UNL1        0.0119
     12 C           2.2175    0.8046   23.8462 C.ar    1  UNL1        0.0682
     13 CL          1.5742    1.8610   24.6948 Cl      1  UNL1       -0.0814
     14 C           3.2310   -0.1247   24.4457 C.ar    1  UNL1        0.0679
     15 CL          3.6012    0.0025   25.8937 Cl      1  UNL1       -0.0814
     16 C           3.8743   -1.1811   23.5971 C.ar    1  UNL1        0.0080
     17 C           2.9064    0.5531   18.1075 C.ar    1  UNL1        0.0536
     18 C           3.6948    1.7935   18.4073 C.ar    1  UNL1        0.0045
     19 C           2.9854    3.0604   18.7838 C.ar    1  UNL1        0.0001
     20 C           1.4875    3.0869   18.8604 C.ar    1  UNL1        0.0000
     21 C           0.6992    1.8465   18.5606 C.ar    1  UNL1        0.0001
     22 C           1.4086    0.5796   18.1841 C.ar    1  UNL1        0.0045
     23 C           4.3378   -2.9706   22.6595 C.3     1  UNL1        0.0071
     24 C           5.4600   -3.9367   22.8995 C.3     1  UNL1        0.0177
     25 C           6.7805   -3.4404   23.4094 C.3     1  UNL1        0.0721
     26 C           7.6082   -3.3867   27.8323 C.3     1  UNL1        0.0819
     27 C           7.5112   -4.6940   27.1033 C.3     1  UNL1        0.0398
     28 C           7.2353   -4.7119   25.6290 C.3     1  UNL1        0.0741
     29 N           7.0564   -3.4225   24.8837 N.3     1  UNL1       -0.2725
     30 C           7.1534   -2.1152   25.6128 C.3     1  UNL1        0.0741
     31 C           7.4293   -2.0972   27.0870 C.3     1  UNL1        0.0398
     32 C           7.8499   -4.3367   28.9678 C.ar    1  UNL1       -0.0060
     33 C           9.1404   -5.0971   29.0476 C.ar    1  UNL1       -0.0027
     34 C           9.3821   -6.0470   30.1830 C.ar    1  UNL1       -0.0003
     35 C           8.3333   -6.2365   31.2386 C.ar    1  UNL1       -0.0000
     36 C           7.0429   -5.4760   31.1588 C.ar    1  UNL1       -0.0003
     37 C           6.8012   -4.5261   30.0233 C.ar    1  UNL1       -0.0027
     38 C           6.7900   -0.6742   30.6114 C.3     1  UNL1        0.0948
     39 C           6.6091   -1.6517   29.4881 C.2     1  UNL1        0.2263
     40 O           5.2480   -1.8714   28.8971 O.2     1  UNL1       -0.2748
     41 N           7.7891   -2.4093   28.9557 N.am    1  UNL1       -0.2774
     42 C           9.1502   -2.1895   29.5467 C.3     1  UNL1        0.1150
@<TRIPOS>BOND
     1    38    39    1
     2    39    40    2
     3    39    41   am
     4    41    42    1
     5    41    26    1
     6    26    32    1
     7    32    33   ar
     8    33    34   ar
     9    34    35   ar
    10    35    36   ar
    11    36    37   ar
    12    26    27    1
    13    27    28    1
    14    28    29    1
    15    29    25    1
    16    25    24    1
    17    24    23    1
    18     1    23    1
    19     1     9    1
    20     9    10   ar
    21    10    11   ar
    22    11    12   ar
    23    12    13    1
    24    12    14   ar
    25    14    15    1
    26    14    16   ar
    27     1     2    1
    28     2     3    1
    29     3     4    1
    30     4     5    1
    31     5     6   am
    32     6     7    2
    33     6    17    1
    34    17    18   ar
    35    18    19   ar
    36    19    20   ar
    37    20    21   ar
    38    21    22   ar
    39     5     8    1
    40    29    30    1
    41    30    31    1
    42    31    26    1
    43    37    32   ar
    44     8     1    1
    45    16     9   ar
    46    22    17   ar
@<TRIPOS>MOLECULE
*****
 42 46 0 0 0
SMALL
GASTEIGER

@<TRIPOS>ATOM
      1 C          -0.7116    3.5272   18.9326 C.3     1  UNL1        0.0373
      2 C          -0.6799    3.9715   17.5003 C.3     1  UNL1        0.0075
      3 C          -1.8247    4.7577   16.9333 C.3     1  UNL1        0.0219
      4 C          -3.0013    5.0994   17.7987 C.3     1  UNL1        0.0937
      5 N          -3.0330    4.6550   19.2311 N.am    1  UNL1       -0.2758
      6 C          -4.2096    4.9968   20.0964 C.2     1  UNL1        0.2490
      7 O          -5.3544    5.7829   19.5294 O.2     1  UNL1       -0.2699
      8 C          -1.8882    3.8690   19.7980 C.3     1  UNL1        0.0976
      9 C          -0.2830    2.8870   20.2196 C.ar    1  UNL1       -0.0203
     10 C           0.2244    1.4754   20.2226 C.ar    1  UNL1       -0.0033
     11 C           0.6530    0.8352   21.5095 C.ar    1  UNL1        0.0119
     12 C           0.5742    1.6065   22.7937 C.ar    1  UNL1        0.0682
     13 CL          1.0028    0.9663   24.0807 Cl      1  UNL1       -0.0814
     14 C           0.0668    3.0181   22.7907 C.ar    1  UNL1        0.0679
     15 CL         -0.0119    3.7895   24.0747 Cl      1  UNL1       -0.0814
     16 C          -0.3618    3.6583   21.5037 C.ar    1  UNL1        0.0080
     17 C          -4.2413    4.5525   21.5287 C.ar    1  UNL1        0.0536
     18 C          -4.8967    3.2544   21.8970 C.ar    1  UNL1        0.0045
     19 C          -4.9285    2.8101   23.3293 C.ar    1  UNL1        0.0001
     20 C          -4.3049    3.6638   24.3934 C.ar    1  UNL1        0.0000
     21 C          -3.6495    4.9618   24.0252 C.ar    1  UNL1        0.0001
     22 C          -3.6178    5.4062   22.5928 C.ar    1  UNL1        0.0045
     23 C           0.6138    2.9631   18.5141 C.3     1  UNL1        0.0071
     24 C           1.6916    3.8760   18.0089 C.3     1  UNL1        0.0177
     25 C           3.1336    3.4988   18.1768 C.3     1  UNL1        0.0721
     26 C           4.2246   -0.4275   20.0857 C.3     1  UNL1        0.0819
     27 C           3.8544   -0.3771   18.6330 C.3     1  UNL1        0.0398
     28 C           3.4908    0.9317   17.9967 C.3     1  UNL1        0.0741
     29 N           3.4973    2.1900   18.8131 N.3     1  UNL1       -0.2725
     30 C           3.8674    2.1396   20.2658 C.3     1  UNL1        0.0741
     31 C           4.2310    0.8309   20.9022 C.3     1  UNL1        0.0398
     32 C           4.3634   -1.8784   19.7311 C.ar    1  UNL1       -0.0060
     33 C           3.1417   -2.7391   19.6020 C.ar    1  UNL1       -0.0027
     34 C           3.2806   -4.1899   19.2473 C.ar    1  UNL1       -0.0003
     35 C           4.6411   -4.7800   19.0218 C.ar    1  UNL1       -0.0000
     36 C           5.8627   -3.9193   19.1509 C.ar    1  UNL1       -0.0003
     37 C           5.7239   -2.4685   19.5055 C.ar    1  UNL1       -0.0027
     38 C           6.4760   -1.3704   23.2150 C.3     1  UNL1        0.0948
     39 C           6.0576   -0.8161   21.8854 C.2     1  UNL1        0.2263
     40 O           7.0541   -0.0961   21.0260 O.2     1  UNL1       -0.2748
     41 N           4.6429   -0.9818   21.4153 N.am    1  UNL1       -0.2774
     42 C           3.6465   -1.7018   22.2748 C.3     1  UNL1        0.1150
@<TRIPOS>BOND
     1    38    39    1
     2    39    40    2
     3    39    41   am
     4    41    42    1
     5    41    26    1
     6    26    32    1
     7    32    33   ar
     8    33    34   ar
     9    34    35   ar
    10    35    36   ar
    11    36    37   ar
    12    26    27    1
    13    27    28    1
    14    28    29    1
    15    29    25    1
    16    25    24    1
    17    24    23    1
    18     1    23    1
    19     1     9    1
    20     9    10   ar
    21    10    11   ar
    22    11    12   ar
    23    12    13    1
    24    12    14   ar
    25    14    15    1
    26    14    16   ar
    27     1     2    1
    28     2     3    1
    29     3     4    1
    30     4     5    1
    31     5     6   am
    32     6     7    2
    33     6    17    1
    34    17    18   ar
    35    18    19   ar
    36    19    20   ar
    37    20    21   ar
    38    21    22   ar
    39     5     8    1
    40    29    30    1
    41    30    31    1
    42    31    26    1
    43    37    32   ar
    44     8     1    1
    45    16     9   ar
    46    22    17   ar
@<TRIPOS>MOLECULE
*****
 42 46 0 0 0
SMALL
GASTEIGER

@<TRIPOS>ATOM
      1 C          -2.9450    4.1429   21.2182 C.3     1  UNL1        0.0373
      2 C          -3.4205    3.7477   19.8516 C.3     1  UNL1        0.0075
      3 C          -4.8893    3.6140   19.5781 C.3     1  UNL1        0.0219
      4 C          -5.8826    3.8756   20.6713 C.3     1  UNL1        0.0937
      5 N          -5.4070    4.2709   22.0379 N.am    1  UNL1       -0.2758
      6 C          -6.4003    4.5325   23.1311 C.2     1  UNL1        0.2490
      7 O          -7.8691    4.3988   22.8576 O.2     1  UNL1       -0.2699
      8 C          -3.9383    4.4045   22.3113 C.3     1  UNL1        0.0976
      9 C          -2.0119    4.4891   22.3405 C.ar    1  UNL1       -0.0203
     10 C          -1.0696    5.6479   22.2021 C.ar    1  UNL1       -0.0033
     11 C          -0.1366    5.9940   23.3244 C.ar    1  UNL1        0.0119
     12 C          -0.1458    5.1813   24.5852 C.ar    1  UNL1        0.0682
     13 CL          0.7872    5.5273   25.7076 Cl      1  UNL1       -0.0814
     14 C          -1.0881    4.0224   24.7236 C.ar    1  UNL1        0.0679
     15 CL         -1.0974    3.2097   25.9843 Cl      1  UNL1       -0.0814
     16 C          -2.0212    3.6763   23.6013 C.ar    1  UNL1        0.0080
     17 C          -5.9248    4.9278   24.4977 C.ar    1  UNL1        0.0536
     18 C          -5.1809    3.9406   25.3476 C.ar    1  UNL1        0.0045
     19 C          -4.7054    4.3359   26.7142 C.ar    1  UNL1        0.0001
     20 C          -4.9737    5.7183   27.2309 C.ar    1  UNL1        0.0000
     21 C          -5.7176    6.7054   26.3811 C.ar    1  UNL1        0.0001
     22 C          -6.1931    6.3101   25.0144 C.ar    1  UNL1        0.0045
     23 C          -1.6277    4.0015   20.5148 C.3     1  UNL1        0.0071
     24 C          -1.1842    2.6580   20.0161 C.3     1  UNL1        0.0177
     25 C          -0.1265    2.5631   18.9567 C.3     1  UNL1        0.0721
     26 C           3.3468   -0.2477   19.4907 C.3     1  UNL1        0.0819
     27 C           1.9888   -0.6280   20.0018 C.3     1  UNL1        0.0398
     28 C           0.8310    0.3089   19.8238 C.3     1  UNL1        0.0741
     29 N           1.0313    1.6262   19.1347 N.3     1  UNL1       -0.2725
     30 C           2.3892    2.0065   18.6236 C.3     1  UNL1        0.0741
     31 C           3.5470    1.0695   18.8016 C.3     1  UNL1        0.0398
     32 C           3.6554   -1.5955   20.0725 C.ar    1  UNL1       -0.0060
     33 C           3.6120   -2.8160   19.2017 C.ar    1  UNL1       -0.0027
     34 C           3.9206   -4.1637   19.7835 C.ar    1  UNL1       -0.0003
     35 C           4.2728   -4.2908   21.2360 C.ar    1  UNL1       -0.0000
     36 C           4.3162   -3.0702   22.1068 C.ar    1  UNL1       -0.0003
     37 C           4.0076   -1.7225   21.5250 C.ar    1  UNL1       -0.0027
     38 C           6.7319   -0.7567   17.4827 C.3     1  UNL1        0.0948
     39 C           5.2667   -0.6689   17.7918 C.2     1  UNL1        0.2263
     40 O           4.2562   -0.9146   16.7108 O.2     1  UNL1       -0.2748
     41 N           4.8120   -0.3355   19.1817 N.am    1  UNL1       -0.2774
     42 C           5.8225   -0.0898   20.2627 C.3     1  UNL1        0.1150
@<TRIPOS>BOND
     1    38    39    1
     2    39    40    2
     3    39    41   am
     4    41    42    1
     5    41    26    1
     6    26    32    1
     7    32    33   ar
     8    33    34   ar
     9    34    35   ar
    10    35    36   ar
    11    36    37   ar
    12    26    27    1
    13    27    28    1
    14    28    29    1
    15    29    25    1
    16    25    24    1
    17    24    23    1
    18     1    23    1
    19     1     9    1
    20     9    10   ar
    21    10    11   ar
    22    11    12   ar
    23    12    13    1
    24    12    14   ar
    25    14    15    1
    26    14    16   ar
    27     1     2    1
    28     2     3    1
    29     3     4    1
    30     4     5    1
    31     5     6   am
    32     6     7    2
    33     6    17    1
    34    17    18   ar
    35    18    19   ar
    36    19    20   ar
    37    20    21   ar
    38    21    22   ar
    39     5     8    1
    40    29    30    1
    41    30    31    1
    42    31    26    1
    43    37    32   ar
    44     8     1    1
    45    16     9   ar
    46    22    17   ar
