@<TRIPOS>MOLECULE
*****
 24 27 0 0 0
SMALL
GASTEIGER

@<TRIPOS>ATOM
      1 C          -9.8517   -4.8652   19.0351 C.3     1  UNL1        0.0540
      2 C         -11.2907   -5.1866   18.7597 C.ar    1  UNL1        0.0804
      3 N         -11.9469   -6.5226   18.9456 N.ar    1  UNL1       -0.1698
      4 N         -13.3879   -6.3901   18.5509 N.ar    1  UNL1       -0.2340
      5 C         -13.6224   -4.9723   18.1211 C.ar    1  UNL1        0.0620
      6 C         -14.9244   -4.3989   17.6457 C.3     1  UNL1        0.0522
      7 C         -12.3262   -4.2284   18.2502 C.ar    1  UNL1        0.0289
      8 C         -14.4144   -7.4836   18.5807 C.ar    1  UNL1        0.0821
      9 C         -14.1754   -8.7573   17.8255 C.ar    1  UNL1        0.0188
     10 C         -15.2018   -9.8508   17.8554 C.ar    1  UNL1       -0.0016
     11 C         -16.4672   -9.6704   18.6405 C.ar    1  UNL1       -0.0089
     12 C         -16.7061   -8.3967   19.3957 C.ar    1  UNL1       -0.0075
     13 C         -15.6798   -7.3032   19.3659 C.ar    1  UNL1        0.0159
     14 C         -18.0384   -8.5044   20.0766 C.3     1  UNL1        0.0957
     15 N         -18.6227   -9.8448   19.7421 N.3     1  UNL1       -0.2900
     16 C         -17.6517  -10.5654   18.8545 C.3     1  UNL1        0.0956
     17 H         -19.5114   -9.7235   19.2563 H       1  UNL1        0.1239
     18 C         -12.1046   -2.7806   17.9265 C.ar    1  UNL1        0.0025
     19 C         -12.7237   -1.7171   18.7840 C.ar    1  UNL1        0.0024
     20 C         -12.5021   -0.2692   18.4602 C.ar    1  UNL1        0.0296
     21 C         -11.6613    0.1149   17.2789 C.ar    1  UNL1        0.1401
     22 F         -11.4396    1.5626   16.9551 F       1  UNL1       -0.2042
     23 C         -11.0420   -0.9487   16.4214 C.ar    1  UNL1        0.0296
     24 C         -11.2637   -2.3965   16.7452 C.ar    1  UNL1        0.0024
@<TRIPOS>BOND
     1     1     2    1
     2     2     3   ar
     3     3     4   ar
     4     4     8    1
     5     8     9   ar
     6     9    10   ar
     7    10    11   ar
     8    11    12   ar
     9    12    13   ar
    10    12    14    1
    11    14    15    1
    12    15    16    1
    13     4     5   ar
    14     5     6    1
    15     5     7   ar
    16     7    18    1
    17    18    19   ar
    18    19    20   ar
    19    20    21   ar
    20    21    22    1
    21    21    23   ar
    22    23    24   ar
    23     7     2   ar
    24    24    18   ar
    25    13     8   ar
    26    16    11    1
    27    15    17    1
@<TRIPOS>MOLECULE
*****
 24 27 0 0 0
SMALL
GASTEIGER

@<TRIPOS>ATOM
      1 C           3.1889   -4.4968   19.0290 C.3     1  UNL1        0.0540
      2 C           3.9837   -3.8335   20.1145 C.ar    1  UNL1        0.0804
      3 N           4.9818   -4.5036   21.0115 N.ar    1  UNL1       -0.1698
      4 N           5.5348   -3.4678   21.9449 N.ar    1  UNL1       -0.2340
      5 C           4.8785   -2.1575   21.6247 C.ar    1  UNL1        0.0620
      6 C           5.1357   -0.8507   22.3148 C.3     1  UNL1        0.0522
      7 C           3.9198   -2.3836   20.4934 C.ar    1  UNL1        0.0289
      8 C           6.5636   -3.7013   23.0114 C.ar    1  UNL1        0.0821
      9 C           8.0082   -3.8564   22.6387 C.ar    1  UNL1        0.0188
     10 C           9.0369   -4.0899   23.7051 C.ar    1  UNL1       -0.0016
     11 C           8.6210   -4.1682   25.1441 C.ar    1  UNL1       -0.0089
     12 C           7.1764   -4.0131   25.5168 C.ar    1  UNL1       -0.0075
     13 C           6.1476   -3.7796   24.4505 C.ar    1  UNL1        0.0159
     14 C           7.0664   -4.1364   27.0077 C.3     1  UNL1        0.0957
     15 N           8.4431   -4.3677   27.5564 N.3     1  UNL1       -0.2900
     16 C           9.4039   -4.3874   26.4047 C.3     1  UNL1        0.0956
     17 H           8.4741   -5.2607   28.0483 H       1  UNL1        0.1239
     18 C           3.0500   -1.3424   19.8536 C.ar    1  UNL1        0.0025
     19 C           1.7340   -0.9792   20.4749 C.ar    1  UNL1        0.0024
     20 C           0.8643    0.0620   19.8350 C.ar    1  UNL1        0.0296
     21 C           1.3107    0.7401   18.5737 C.ar    1  UNL1        0.1401
     22 F           0.4411    1.7813   17.9337 F       1  UNL1       -0.2042
     23 C           2.6268    0.3770   17.9522 C.ar    1  UNL1        0.0296
     24 C           3.4965   -0.6642   18.5922 C.ar    1  UNL1        0.0024
@<TRIPOS>BOND
     1     1     2    1
     2     2     3   ar
     3     3     4   ar
     4     4     8    1
     5     8     9   ar
     6     9    10   ar
     7    10    11   ar
     8    11    12   ar
     9    12    13   ar
    10    12    14    1
    11    14    15    1
    12    15    16    1
    13     4     5   ar
    14     5     6    1
    15     5     7   ar
    16     7    18    1
    17    18    19   ar
    18    19    20   ar
    19    20    21   ar
    20    21    22    1
    21    21    23   ar
    22    23    24   ar
    23     7     2   ar
    24    24    18   ar
    25    13     8   ar
    26    16    11    1
    27    15    17    1
@<TRIPOS>MOLECULE
*****
 24 27 0 0 0
SMALL
GASTEIGER

@<TRIPOS>ATOM
      1 C           8.9771   -2.6157   19.3063 C.3     1  UNL1        0.0540
      2 C           8.2165   -3.2267   20.4457 C.ar    1  UNL1        0.0804
      3 N           8.7802   -4.1413   21.4923 N.ar    1  UNL1       -0.1698
      4 N           7.6707   -4.5102   22.4319 N.ar    1  UNL1       -0.2340
      5 C           6.4212   -3.8234   21.9659 C.ar    1  UNL1        0.0620
      6 C           5.0713   -3.9140   22.6138 C.3     1  UNL1        0.0522
      7 C           6.7585   -3.0301   20.7384 C.ar    1  UNL1        0.0289
      8 C           7.7897   -5.4082   23.6276 C.ar    1  UNL1        0.0821
      9 C           8.4110   -6.7661   23.4868 C.ar    1  UNL1        0.0188
     10 C           8.5301   -7.6640   24.6824 C.ar    1  UNL1       -0.0016
     11 C           8.0278   -7.2040   26.0188 C.ar    1  UNL1       -0.0089
     12 C           7.4064   -5.8460   26.1597 C.ar    1  UNL1       -0.0075
     13 C           7.2874   -4.9480   24.9640 C.ar    1  UNL1        0.0159
     14 C           7.0040   -5.6668   27.5935 C.3     1  UNL1        0.0957
     15 N           7.3766   -6.9140   28.3388 N.3     1  UNL1       -0.2900
     16 C           8.0094   -7.8640   27.3657 C.3     1  UNL1        0.0956
     17 H           6.5418   -7.3379   28.7434 H       1  UNL1        0.1239
     18 C           5.8051   -2.1882   19.9432 C.ar    1  UNL1        0.0025
     19 C           5.2442   -2.7063   18.6522 C.ar    1  UNL1        0.0024
     20 C           4.2908   -1.8643   17.8571 C.ar    1  UNL1        0.0296
     21 C           3.8984   -0.5042   18.3531 C.ar    1  UNL1        0.1401
     22 F           2.9451    0.3378   17.5581 F       1  UNL1       -0.2042
     23 C           4.4593    0.0140   19.6442 C.ar    1  UNL1        0.0296
     24 C           5.4127   -0.8280   20.4393 C.ar    1  UNL1        0.0024
@<TRIPOS>BOND
     1     1     2    1
     2     2     3   ar
     3     3     4   ar
     4     4     8    1
     5     8     9   ar
     6     9    10   ar
     7    10    11   ar
     8    11    12   ar
     9    12    13   ar
    10    12    14    1
    11    14    15    1
    12    15    16    1
    13     4     5   ar
    14     5     6    1
    15     5     7   ar
    16     7    18    1
    17    18    19   ar
    18    19    20   ar
    19    20    21   ar
    20    21    22    1
    21    21    23   ar
    22    23    24   ar
    23     7     2   ar
    24    24    18   ar
    25    13     8   ar
    26    16    11    1
    27    15    17    1
@<TRIPOS>MOLECULE
*****
 24 27 0 0 0
SMALL
GASTEIGER

@<TRIPOS>ATOM
      1 C         -11.9797   -6.7397   19.3211 C.3     1  UNL1        0.0540
      2 C         -13.0809   -5.7269   19.2130 C.ar    1  UNL1        0.0804
      3 N         -12.9180   -4.2372   19.2777 N.ar    1  UNL1       -0.1698
      4 N         -14.2747   -3.6157   19.1260 N.ar    1  UNL1       -0.2340
      5 C         -15.2760   -4.7212   18.9674 C.ar    1  UNL1        0.0620
      6 C         -16.7555   -4.5518   18.7868 C.3     1  UNL1        0.0522
      7 C         -14.5381   -6.0261   19.0212 C.ar    1  UNL1        0.0289
      8 C         -14.5771   -2.1464   19.1317 C.ar    1  UNL1        0.0821
      9 C         -15.7044   -1.6159   19.9669 C.ar    1  UNL1        0.0188
     10 C         -16.0067   -0.1467   19.9726 C.ar    1  UNL1       -0.0016
     11 C         -15.1816    0.7920   19.1432 C.ar    1  UNL1       -0.0089
     12 C         -14.0542    0.2615   18.3079 C.ar    1  UNL1       -0.0075
     13 C         -13.7519   -1.2077   18.3022 C.ar    1  UNL1        0.0159
     14 C         -13.4188    1.4198   17.5975 C.3     1  UNL1        0.0957
     15 N         -14.1535    2.6661   17.9937 N.3     1  UNL1       -0.2900
     16 C         -15.2430    2.2781   18.9489 C.3     1  UNL1        0.0956
     17 H         -14.5582    3.1067   17.1676 H       1  UNL1        0.1239
     18 C         -15.1502   -7.3905   18.9039 C.ar    1  UNL1        0.0025
     19 C         -14.6304   -8.3607   17.8849 C.ar    1  UNL1        0.0024
     20 C         -15.2426   -9.7251   17.7676 C.ar    1  UNL1        0.0296
     21 C         -16.3746  -10.1192   18.6693 C.ar    1  UNL1        0.1401
     22 F         -16.9868  -11.4835   18.5521 F       1  UNL1       -0.2042
     23 C         -16.8945   -9.1490   19.6884 C.ar    1  UNL1        0.0296
     24 C         -16.2823   -7.7846   19.8057 C.ar    1  UNL1        0.0024
@<TRIPOS>BOND
     1     1     2    1
     2     2     3   ar
     3     3     4   ar
     4     4     8    1
     5     8     9   ar
     6     9    10   ar
     7    10    11   ar
     8    11    12   ar
     9    12    13   ar
    10    12    14    1
    11    14    15    1
    12    15    16    1
    13     4     5   ar
    14     5     6    1
    15     5     7   ar
    16     7    18    1
    17    18    19   ar
    18    19    20   ar
    19    20    21   ar
    20    21    22    1
    21    21    23   ar
    22    23    24   ar
    23     7     2   ar
    24    24    18   ar
    25    13     8   ar
    26    16    11    1
    27    15    17    1
@<TRIPOS>MOLECULE
*****
 24 27 0 0 0
SMALL
GASTEIGER

@<TRIPOS>ATOM
      1 C         -14.0928   -3.9297   21.2864 C.3     1  UNL1        0.0540
      2 C         -13.8285   -3.0263   20.1184 C.ar    1  UNL1        0.0804
      3 N         -14.5212   -1.7264   19.8348 N.ar    1  UNL1       -0.1698
      4 N         -13.9459   -1.1610   18.5702 N.ar    1  UNL1       -0.2340
      5 C         -12.8978   -2.1115   18.0722 C.ar    1  UNL1        0.0620
      6 C         -12.0679   -1.9394   16.8345 C.3     1  UNL1        0.0522
      7 C         -12.8253   -3.2644   19.0291 C.ar    1  UNL1        0.0289
      8 C         -14.3483    0.1285   17.9179 C.ar    1  UNL1        0.0821
      9 C         -15.7530    0.3139   17.4260 C.ar    1  UNL1        0.0188
     10 C         -16.1553    1.6034   16.7738 C.ar    1  UNL1       -0.0016
     11 C         -15.1528    2.7075   16.6136 C.ar    1  UNL1       -0.0089
     12 C         -13.7479    2.5222   17.1056 C.ar    1  UNL1       -0.0075
     13 C         -13.3456    1.2327   17.7577 C.ar    1  UNL1        0.0159
     14 C         -12.9841    3.7793   16.8115 C.3     1  UNL1        0.0957
     15 N         -13.9170    4.7415   16.1378 N.3     1  UNL1       -0.2900
     16 C         -15.2573    4.0792   16.0155 C.3     1  UNL1        0.0956
     17 H         -13.5615    4.9771   15.2113 H       1  UNL1        0.1239
     18 C         -11.9100   -4.4474   18.9163 C.ar    1  UNL1        0.0025
     19 C         -12.4786   -5.8165   18.6879 C.ar    1  UNL1        0.0024
     20 C         -11.5632   -6.9996   18.5751 C.ar    1  UNL1        0.0296
     21 C         -10.0794   -6.8134   18.6907 C.ar    1  UNL1        0.1401
     22 F          -9.1640   -7.9963   18.5780 F       1  UNL1       -0.2042
     23 C          -9.5107   -5.4442   18.9192 C.ar    1  UNL1        0.0296
     24 C         -10.4260   -4.2612   19.0319 C.ar    1  UNL1        0.0024
@<TRIPOS>BOND
     1     1     2    1
     2     2     3   ar
     3     3     4   ar
     4     4     8    1
     5     8     9   ar
     6     9    10   ar
     7    10    11   ar
     8    11    12   ar
     9    12    13   ar
    10    12    14    1
    11    14    15    1
    12    15    16    1
    13     4     5   ar
    14     5     6    1
    15     5     7   ar
    16     7    18    1
    17    18    19   ar
    18    19    20   ar
    19    20    21   ar
    20    21    22    1
    21    21    23   ar
    22    23    24   ar
    23     7     2   ar
    24    24    18   ar
    25    13     8   ar
    26    16    11    1
    27    15    17    1
@<TRIPOS>MOLECULE
*****
 24 27 0 0 0
SMALL
GASTEIGER

@<TRIPOS>ATOM
      1 C         -12.0666   -6.5606   19.2954 C.3     1  UNL1        0.0540
      2 C         -13.1733   -5.5532   19.1936 C.ar    1  UNL1        0.0804
      3 N         -13.0190   -4.0632   19.2711 N.ar    1  UNL1       -0.1698
      4 N         -14.3789   -3.4480   19.1219 N.ar    1  UNL1       -0.2340
      5 C         -15.3736   -4.5578   18.9521 C.ar    1  UNL1        0.0620
      6 C         -16.8536   -4.3951   18.7699 C.3     1  UNL1        0.0522
      7 C         -14.6285   -5.8589   18.9964 C.ar    1  UNL1        0.0289
      8 C         -14.6895   -1.9805   19.1393 C.ar    1  UNL1        0.0821
      9 C         -13.9238   -1.0413   18.2555 C.ar    1  UNL1        0.0188
     10 C         -14.2344    0.4261   18.2729 C.ar    1  UNL1       -0.0016
     11 C         -15.3108    0.9542   19.1743 C.ar    1  UNL1       -0.0089
     12 C         -16.0766    0.0149   20.0582 C.ar    1  UNL1       -0.0075
     13 C         -15.7660   -1.4525   20.0407 C.ar    1  UNL1        0.0159
     14 C         -17.0748    0.8203   20.8359 C.3     1  UNL1        0.0957
     15 N         -16.9260    2.2574   20.4326 N.3     1  UNL1       -0.2900
     16 C         -15.8358    2.3401   19.4056 C.3     1  UNL1        0.0956
     17 H         -16.6790    2.8213   21.2458 H       1  UNL1        0.1239
     18 C         -15.2326   -7.2257   18.8663 C.ar    1  UNL1        0.0025
     19 C         -16.2503   -7.6939   19.8638 C.ar    1  UNL1        0.0024
     20 C         -16.8545   -9.0608   19.7337 C.ar    1  UNL1        0.0296
     21 C         -16.4408   -9.9593   18.6060 C.ar    1  UNL1        0.1401
     22 F         -17.0449  -11.3261   18.4759 F       1  UNL1       -0.2042
     23 C         -15.4230   -9.4911   17.6085 C.ar    1  UNL1        0.0296
     24 C         -14.8190   -8.1243   17.7387 C.ar    1  UNL1        0.0024
@<TRIPOS>BOND
     1     1     2    1
     2     2     3   ar
     3     3     4   ar
     4     4     8    1
     5     8     9   ar
     6     9    10   ar
     7    10    11   ar
     8    11    12   ar
     9    12    13   ar
    10    12    14    1
    11    14    15    1
    12    15    16    1
    13     4     5   ar
    14     5     6    1
    15     5     7   ar
    16     7    18    1
    17    18    19   ar
    18    19    20   ar
    19    20    21   ar
    20    21    22    1
    21    21    23   ar
    22    23    24   ar
    23     7     2   ar
    24    24    18   ar
    25    13     8   ar
    26    16    11    1
    27    15    17    1
@<TRIPOS>MOLECULE
*****
 24 27 0 0 0
SMALL
GASTEIGER

@<TRIPOS>ATOM
      1 C         -11.0694   -7.1227   18.9652 C.3     1  UNL1        0.0540
      2 C         -11.8937   -5.9341   18.5680 C.ar    1  UNL1        0.0804
      3 N         -11.3793   -4.5465   18.3234 N.ar    1  UNL1       -0.1698
      4 N         -12.5449   -3.6793   17.9499 N.ar    1  UNL1       -0.2340
      5 C         -13.7795   -4.5310   17.9637 C.ar    1  UNL1        0.0620
      6 C         -15.1722   -4.0700   17.6505 C.3     1  UNL1        0.0522
      7 C         -13.3771   -5.9246   18.3457 C.ar    1  UNL1        0.0289
      8 C         -12.4860   -2.2170   17.6204 C.ar    1  UNL1        0.0821
      9 C         -11.4743   -1.7102   16.6359 C.ar    1  UNL1        0.0188
     10 C         -11.4155   -0.2480   16.3064 C.ar    1  UNL1       -0.0016
     11 C         -12.3684    0.7073   16.9616 C.ar    1  UNL1       -0.0089
     12 C         -13.3801    0.2005   17.9462 C.ar    1  UNL1       -0.0075
     13 C         -13.4390   -1.2617   18.2757 C.ar    1  UNL1        0.0159
     14 C         -14.1837    1.3713   18.4294 C.3     1  UNL1        0.0957
     15 N         -13.6686    2.6017   17.7433 N.3     1  UNL1       -0.2900
     16 C         -12.5467    2.1914   16.8362 C.3     1  UNL1        0.0956
     17 H         -13.3273    3.2674   18.4367 H       1  UNL1        0.1239
     18 C         -14.2967   -7.1018   18.4815 C.ar    1  UNL1        0.0025
     19 C         -15.4189   -7.0662   19.4761 C.ar    1  UNL1        0.0024
     20 C         -16.3385   -8.2435   19.6119 C.ar    1  UNL1        0.0296
     21 C         -16.1358   -9.4564   18.7530 C.ar    1  UNL1        0.1401
     22 F         -17.0553  -10.6337   18.8888 F       1  UNL1       -0.2042
     23 C         -15.0135   -9.4921   17.7583 C.ar    1  UNL1        0.0296
     24 C         -14.0940   -8.3148   17.6226 C.ar    1  UNL1        0.0024
@<TRIPOS>BOND
     1     1     2    1
     2     2     3   ar
     3     3     4   ar
     4     4     8    1
     5     8     9   ar
     6     9    10   ar
     7    10    11   ar
     8    11    12   ar
     9    12    13   ar
    10    12    14    1
    11    14    15    1
    12    15    16    1
    13     4     5   ar
    14     5     6    1
    15     5     7   ar
    16     7    18    1
    17    18    19   ar
    18    19    20   ar
    19    20    21   ar
    20    21    22    1
    21    21    23   ar
    22    23    24   ar
    23     7     2   ar
    24    24    18   ar
    25    13     8   ar
    26    16    11    1
    27    15    17    1
@<TRIPOS>MOLECULE
*****
 24 27 0 0 0
SMALL
GASTEIGER

@<TRIPOS>ATOM
      1 C           6.7008    0.7424   21.6965 C.3     1  UNL1        0.0540
      2 C           6.3903   -0.6902   22.0149 C.ar    1  UNL1        0.0804
      3 N           7.2133   -1.5999   22.8781 N.ar    1  UNL1       -0.1698
      4 N           6.5339   -2.9364   22.9227 N.ar    1  UNL1       -0.2340
      5 C           5.2910   -2.8527   22.0871 C.ar    1  UNL1        0.0620
      6 C           4.3092   -3.9625   21.8535 C.3     1  UNL1        0.0522
      7 C           5.2023   -1.4644   21.5261 C.ar    1  UNL1        0.0289
      8 C           7.0133   -4.1446   23.6715 C.ar    1  UNL1        0.0821
      9 C           7.9059   -5.1416   22.9939 C.ar    1  UNL1        0.0188
     10 C           8.3852   -6.3497   23.7427 C.ar    1  UNL1       -0.0016
     11 C           7.9719   -6.5608   25.1691 C.ar    1  UNL1       -0.0089
     12 C           7.0793   -5.5638   25.8467 C.ar    1  UNL1       -0.0075
     13 C           6.5999   -4.3557   25.0980 C.ar    1  UNL1        0.0159
     14 C           6.8397   -6.0350   27.2505 C.3     1  UNL1        0.0957
     15 N           7.5842   -7.3232   27.4404 N.3     1  UNL1       -0.2900
     16 C           8.2840   -7.6482   26.1540 C.3     1  UNL1        0.0956
     17 H           6.9302   -8.0694   27.6768 H       1  UNL1        0.1239
     18 C           4.1161   -0.9423   20.6329 C.ar    1  UNL1        0.0025
     19 C           2.7366   -0.7230   21.1792 C.ar    1  UNL1        0.0024
     20 C           1.6504   -0.2008   20.2860 C.ar    1  UNL1        0.0296
     21 C           1.9440    0.1020   18.8465 C.ar    1  UNL1        0.1401
     22 F           0.8580    0.6242   17.9533 F       1  UNL1       -0.2042
     23 C           3.3237   -0.1173   18.3002 C.ar    1  UNL1        0.0296
     24 C           4.4098   -0.6394   19.1934 C.ar    1  UNL1        0.0024
@<TRIPOS>BOND
     1     1     2    1
     2     2     3   ar
     3     3     4   ar
     4     4     8    1
     5     8     9   ar
     6     9    10   ar
     7    10    11   ar
     8    11    12   ar
     9    12    13   ar
    10    12    14    1
    11    14    15    1
    12    15    16    1
    13     4     5   ar
    14     5     6    1
    15     5     7   ar
    16     7    18    1
    17    18    19   ar
    18    19    20   ar
    19    20    21   ar
    20    21    22    1
    21    21    23   ar
    22    23    24   ar
    23     7     2   ar
    24    24    18   ar
    25    13     8   ar
    26    16    11    1
    27    15    17    1
@<TRIPOS>MOLECULE
*****
 24 27 0 0 0
SMALL
GASTEIGER

@<TRIPOS>ATOM
      1 C          -0.4281    3.1287   23.0616 C.3     1  UNL1        0.0540
      2 C           0.6419    2.0829   22.9548 C.ar    1  UNL1        0.0804
      3 N           1.2294    1.5494   21.6820 N.ar    1  UNL1       -0.1698
      4 N           2.2628    0.5238   22.0427 N.ar    1  UNL1       -0.2340
      5 C           2.3140    0.4235   23.5384 C.ar    1  UNL1        0.0620
      6 C           3.2097   -0.4816   24.3313 C.3     1  UNL1        0.0522
      7 C           1.3121    1.3871   24.1022 C.ar    1  UNL1        0.0289
      8 C           3.0984   -0.2633   21.0771 C.ar    1  UNL1        0.0821
      9 C           4.3145    0.3586   20.4574 C.ar    1  UNL1        0.0188
     10 C           5.1501   -0.4285   19.4919 C.ar    1  UNL1       -0.0016
     11 C           4.7695   -1.8375   19.1460 C.ar    1  UNL1       -0.0089
     12 C           3.5533   -2.4595   19.7657 C.ar    1  UNL1       -0.0075
     13 C           2.7177   -1.6725   20.7312 C.ar    1  UNL1        0.0159
     14 C           3.4272   -3.8576   19.2371 C.3     1  UNL1        0.0957
     15 N           4.5655   -4.0997   18.2907 N.3     1  UNL1       -0.2900
     16 C           5.3951   -2.8512   18.2344 C.3     1  UNL1        0.0956
     17 H           4.2035   -4.3169   17.3622 H       1  UNL1        0.1239
     18 C           1.0302    1.6147   25.5578 C.ar    1  UNL1        0.0025
     19 C           2.0287    2.3394   26.4108 C.ar    1  UNL1        0.0024
     20 C           1.7467    2.5671   27.8664 C.ar    1  UNL1        0.0296
     21 C           0.4662    2.0699   28.4689 C.ar    1  UNL1        0.1401
     22 F           0.1841    2.2975   29.9244 F       1  UNL1       -0.2042
     23 C          -0.5324    1.3452   27.6159 C.ar    1  UNL1        0.0296
     24 C          -0.2504    1.1176   26.1603 C.ar    1  UNL1        0.0024
@<TRIPOS>BOND
     1     1     2    1
     2     2     3   ar
     3     3     4   ar
     4     4     8    1
     5     8     9   ar
     6     9    10   ar
     7    10    11   ar
     8    11    12   ar
     9    12    13   ar
    10    12    14    1
    11    14    15    1
    12    15    16    1
    13     4     5   ar
    14     5     6    1
    15     5     7   ar
    16     7    18    1
    17    18    19   ar
    18    19    20   ar
    19    20    21   ar
    20    21    22    1
    21    21    23   ar
    22    23    24   ar
    23     7     2   ar
    24    24    18   ar
    25    13     8   ar
    26    16    11    1
    27    15    17    1
