@<TRIPOS>MOLECULE
*****
 38 42 0 0 0
SMALL
GASTEIGER

@<TRIPOS>ATOM
      1 C           7.5736   -4.2010   22.8325 C.ar    1  UNL1        0.0503
      2 C           6.8169   -3.9761   24.1080 C.ar    1  UNL1        0.0143
      3 C           6.8904   -4.9888   25.2121 C.ar    1  UNL1       -0.0029
      4 C           7.7205   -6.2264   25.0407 C.ar    1  UNL1       -0.0208
      5 C           8.4771   -6.4513   23.7652 C.ar    1  UNL1       -0.0029
      6 C           8.4037   -5.4386   22.6611 C.ar    1  UNL1        0.0143
      7 O           5.7717   -4.6737   20.4809 O.2     1  UNL1       -0.2727
      8 C           6.5992   -3.4246   20.5526 C.2     1  UNL1        0.2493
      9 N           7.5001   -3.1883   21.7284 N.am    1  UNL1       -0.2823
     10 H           8.0433   -2.3685   21.7754 H       1  UNL1        0.1549
     11 C           6.5258   -2.4119   19.4485 C.3     1  UNL1        0.1957
     12 N           5.2478   -1.6680   19.1969 N.ar    1  UNL1       -0.2690
     13 C           4.8855   -1.2498   17.8027 C.ar    1  UNL1        0.1812
     14 N           3.6076   -0.5059   17.5510 N.ar    1  UNL1       -0.2252
     15 C           2.6918   -0.1802   18.6935 C.ar    1  UNL1        0.0876
     16 C           1.4139    0.5637   18.4418 C.ar    1  UNL1        0.0193
     17 C           0.4982    0.8894   19.5844 C.ar    1  UNL1        0.0015
     18 C           0.8605    0.4712   20.9786 C.ar    1  UNL1        0.0003
     19 C           2.1384   -0.2727   21.2303 C.ar    1  UNL1        0.0063
     20 C           3.0541   -0.5984   20.0877 C.ar    1  UNL1        0.0739
     21 C           4.3321   -1.3423   20.3394 C.ar    1  UNL1        0.2638
     22 O           4.6944   -1.7605   21.7336 O.2     1  UNL1       -0.2669
     23 C           7.7939   -7.2391   26.1448 C.3     1  UNL1        0.0420
     24 C           8.0182   -6.7920   27.5589 C.3     1  UNL1        0.0585
     25 C           9.3331   -6.7760   28.2805 C.3     1  UNL1        0.0175
     26 C           9.0946   -6.2565   29.6673 C.3     1  UNL1        0.0199
     27 C           7.6322   -5.9513   29.8028 C.3     1  UNL1        0.0855
     28 N           6.9670   -6.2822   28.4997 N.3     1  UNL1       -0.2971
     29 H           6.5311   -5.4458   28.1114 H       1  UNL1        0.1233
     30 C           6.9541   -5.4101   31.0264 C.3     1  UNL1        0.1470
     31 O           6.6198   -6.3267   32.1658 O.3     1  UNL1       -0.3787
     32 H           6.1880   -5.8206   32.8718 H       1  UNL1        0.2108
     33 C           6.6104   -3.9525   31.1108 C.ar    1  UNL1        0.0055
     34 C           6.6638   -3.0970   29.8798 C.ar    1  UNL1       -0.0019
     35 C           6.3201   -1.6393   29.9641 C.ar    1  UNL1       -0.0002
     36 C           5.9230   -1.0372   31.2793 C.ar    1  UNL1       -0.0000
     37 C           5.8696   -1.8928   32.5102 C.ar    1  UNL1       -0.0002
     38 C           6.2133   -3.3505   32.4260 C.ar    1  UNL1       -0.0019
@<TRIPOS>BOND
     1     7     8    2
     2     8    11    1
     3    11    12    1
     4    12    13   ar
     5    13    14   ar
     6    14    15   ar
     7    15    16   ar
     8    16    17   ar
     9    17    18   ar
    10    18    19   ar
    11    19    20   ar
    12    20    21   ar
    13    21    22    2
    14     8     9   am
    15     9     1    1
    16     1     2   ar
    17     2     3   ar
    18     3     4   ar
    19     4    23    1
    20    24    23    1
    21    24    25    1
    22    25    26    1
    23    27    26    1
    24    27    30    1
    25    30    31    1
    26    30    33    1
    27    33    34   ar
    28    34    35   ar
    29    35    36   ar
    30    36    37   ar
    31    37    38   ar
    32    27    28    1
    33     4     5   ar
    34     5     6   ar
    35    21    12   ar
    36     6     1   ar
    37    20    15   ar
    38    28    24    1
    39    38    33   ar
    40     9    10    1
    41    31    32    1
    42    28    29    1
@<TRIPOS>MOLECULE
*****
 38 42 0 0 0
SMALL
GASTEIGER

@<TRIPOS>ATOM
      1 C           9.1038   -5.6535   26.0650 C.ar    1  UNL1        0.0503
      2 C           8.9420   -5.8508   27.5432 C.ar    1  UNL1        0.0143
      3 C           9.0035   -7.2312   28.1267 C.ar    1  UNL1       -0.0029
      4 C           9.2268   -8.4144   27.2321 C.ar    1  UNL1       -0.0208
      5 C           9.3887   -8.2171   25.7540 C.ar    1  UNL1       -0.0029
      6 C           9.3272   -6.8367   25.1705 C.ar    1  UNL1        0.0143
      7 O           6.5175   -4.6036   24.9656 O.2     1  UNL1       -0.2727
      8 C           7.7492   -3.7481   24.9317 C.2     1  UNL1        0.2493
      9 N           9.0423   -4.2730   25.4814 N.am    1  UNL1       -0.2823
     10 H           9.8507   -3.7115   25.4592 H       1  UNL1        0.1549
     11 C           7.6877   -2.3676   24.3482 C.3     1  UNL1        0.1957
     12 N           6.3992   -1.8498   23.7810 N.ar    1  UNL1       -0.2690
     13 C           5.5786   -0.8655   24.5606 C.ar    1  UNL1        0.1812
     14 N           4.2901   -0.3476   23.9935 N.ar    1  UNL1       -0.2252
     15 C           3.8222   -0.8141   22.6467 C.ar    1  UNL1        0.0876
     16 C           2.5337   -0.2962   22.0797 C.ar    1  UNL1        0.0193
     17 C           2.0659   -0.7627   20.7330 C.ar    1  UNL1        0.0015
     18 C           2.8865   -1.7470   19.9535 C.ar    1  UNL1        0.0003
     19 C           4.1750   -2.2649   20.5206 C.ar    1  UNL1        0.0063
     20 C           4.6428   -1.7984   21.8672 C.ar    1  UNL1        0.0739
     21 C           5.9313   -2.3163   22.4344 C.ar    1  UNL1        0.2638
     22 O           6.7520   -3.3006   21.6548 O.2     1  UNL1       -0.2669
     23 C           9.2883   -9.7949   27.8157 C.3     1  UNL1        0.0420
     24 C           8.0498  -10.6387   27.8779 C.3     1  UNL1        0.0585
     25 C           7.9857  -12.0821   28.2810 C.3     1  UNL1        0.0175
     26 C           6.5542  -12.5228   28.2002 C.3     1  UNL1        0.0199
     27 C           5.7335  -11.3517   27.7471 C.3     1  UNL1        0.0855
     28 N           6.6579  -10.1873   27.5480 N.3     1  UNL1       -0.2971
     29 H           6.3872   -9.4211   28.1644 H       1  UNL1        0.1233
     30 C           4.2492  -11.3461   27.5312 C.3     1  UNL1        0.1470
     31 O           3.6007  -10.2027   26.8086 O.3     1  UNL1       -0.3787
     32 H           2.6442  -10.3548   26.7551 H       1  UNL1        0.2108
     33 C           3.4133  -12.4839   28.0377 C.ar    1  UNL1        0.0055
     34 C           3.3370  -13.7634   27.2587 C.ar    1  UNL1       -0.0019
     35 C           2.5011  -14.9012   27.7652 C.ar    1  UNL1       -0.0002
     36 C           1.7414  -14.7595   29.0508 C.ar    1  UNL1       -0.0000
     37 C           1.8177  -13.4799   29.8299 C.ar    1  UNL1       -0.0002
     38 C           2.6536  -12.3421   29.3233 C.ar    1  UNL1       -0.0019
@<TRIPOS>BOND
     1     7     8    2
     2     8    11    1
     3    11    12    1
     4    12    13   ar
     5    13    14   ar
     6    14    15   ar
     7    15    16   ar
     8    16    17   ar
     9    17    18   ar
    10    18    19   ar
    11    19    20   ar
    12    20    21   ar
    13    21    22    2
    14     8     9   am
    15     9     1    1
    16     1     2   ar
    17     2     3   ar
    18     3     4   ar
    19     4    23    1
    20    24    23    1
    21    24    25    1
    22    25    26    1
    23    27    26    1
    24    27    30    1
    25    30    31    1
    26    30    33    1
    27    33    34   ar
    28    34    35   ar
    29    35    36   ar
    30    36    37   ar
    31    37    38   ar
    32    27    28    1
    33     4     5   ar
    34     5     6   ar
    35    21    12   ar
    36     6     1   ar
    37    20    15   ar
    38    28    24    1
    39    38    33   ar
    40     9    10    1
    41    31    32    1
    42    28    29    1
@<TRIPOS>MOLECULE
*****
 38 42 0 0 0
SMALL
GASTEIGER

@<TRIPOS>ATOM
      1 C           8.5873   -5.8806   25.4588 C.ar    1  UNL1        0.0503
      2 C           7.9076   -5.8941   26.7959 C.ar    1  UNL1        0.0143
      3 C           7.9607   -7.1248   27.6518 C.ar    1  UNL1       -0.0029
      4 C           8.6934   -8.3419   27.1706 C.ar    1  UNL1       -0.0208
      5 C           9.3731   -8.3284   25.8335 C.ar    1  UNL1       -0.0029
      6 C           9.3201   -7.0977   24.9776 C.ar    1  UNL1        0.0143
      7 O           8.0857   -6.1239   22.5111 O.2     1  UNL1       -0.2727
      8 C           8.2834   -4.7715   23.1291 C.2     1  UNL1        0.2493
      9 N           8.5343   -4.6498   24.6029 N.am    1  UNL1       -0.2823
     10 H           8.6641   -3.7622   25.0085 H       1  UNL1        0.1549
     11 C           8.2304   -3.5409   22.2732 C.3     1  UNL1        0.1957
     12 N           6.9382   -3.1273   21.6334 N.ar    1  UNL1       -0.2690
     13 C           6.6169   -3.5714   20.2371 C.ar    1  UNL1        0.1812
     14 N           5.3248   -3.1579   19.5973 N.ar    1  UNL1       -0.2252
     15 C           4.3539   -2.3004   20.3537 C.ar    1  UNL1        0.0876
     16 C           3.0618   -1.8869   19.7139 C.ar    1  UNL1        0.0193
     17 C           2.0910   -1.0294   20.4704 C.ar    1  UNL1        0.0015
     18 C           2.4123   -0.5854   21.8666 C.ar    1  UNL1        0.0003
     19 C           3.7045   -0.9989   22.5065 C.ar    1  UNL1        0.0063
     20 C           4.6752   -1.8563   21.7500 C.ar    1  UNL1        0.0739
     21 C           5.9674   -2.2699   22.3898 C.ar    1  UNL1        0.2638
     22 O           6.2888   -1.8258   23.7861 O.2     1  UNL1       -0.2669
     23 C           8.7465   -9.5727   28.0265 C.3     1  UNL1        0.0420
     24 C           7.6706  -10.6117   27.9135 C.3     1  UNL1        0.0585
     25 C           7.7925  -12.0536   28.3085 C.3     1  UNL1        0.0175
     26 C           6.4812  -12.7244   28.0248 C.3     1  UNL1        0.0199
     27 C           5.5488  -11.6970   27.4546 C.3     1  UNL1        0.0855
     28 N           6.2839  -10.3913   27.3858 N.3     1  UNL1       -0.2971
     29 H           5.8040   -9.6935   27.9543 H       1  UNL1        0.1233
     30 C           4.1303  -11.9338   27.0280 C.3     1  UNL1        0.1470
     31 O           3.5972  -11.2681   25.7940 O.3     1  UNL1       -0.3787
     32 H           2.6714  -11.5256   25.6621 H       1  UNL1        0.2108
     33 C           3.2450  -12.8361   27.8353 C.ar    1  UNL1        0.0055
     34 C           2.5931  -12.3245   29.0856 C.ar    1  UNL1       -0.0019
     35 C           1.7078  -13.2268   29.8931 C.ar    1  UNL1       -0.0002
     36 C           1.4743  -14.6408   29.4502 C.ar    1  UNL1       -0.0000
     37 C           2.1262  -15.1524   28.1998 C.ar    1  UNL1       -0.0002
     38 C           3.0116  -14.2501   27.3924 C.ar    1  UNL1       -0.0019
@<TRIPOS>BOND
     1     7     8    2
     2     8    11    1
     3    11    12    1
     4    12    13   ar
     5    13    14   ar
     6    14    15   ar
     7    15    16   ar
     8    16    17   ar
     9    17    18   ar
    10    18    19   ar
    11    19    20   ar
    12    20    21   ar
    13    21    22    2
    14     8     9   am
    15     9     1    1
    16     1     2   ar
    17     2     3   ar
    18     3     4   ar
    19     4    23    1
    20    24    23    1
    21    24    25    1
    22    25    26    1
    23    27    26    1
    24    27    30    1
    25    30    31    1
    26    30    33    1
    27    33    34   ar
    28    34    35   ar
    29    35    36   ar
    30    36    37   ar
    31    37    38   ar
    32    27    28    1
    33     4     5   ar
    34     5     6   ar
    35    21    12   ar
    36     6     1   ar
    37    20    15   ar
    38    28    24    1
    39    38    33   ar
    40     9    10    1
    41    31    32    1
    42    28    29    1
@<TRIPOS>MOLECULE
*****
 38 42 0 0 0
SMALL
GASTEIGER

@<TRIPOS>ATOM
      1 C           7.8516   -5.5333   26.2840 C.ar    1  UNL1        0.0503
      2 C           9.1984   -5.4512   26.9392 C.ar    1  UNL1        0.0143
      3 C           9.3019   -5.3717   28.4335 C.ar    1  UNL1       -0.0029
      4 C           8.0585   -5.3744   29.2725 C.ar    1  UNL1       -0.0208
      5 C           6.7117   -5.4565   28.6173 C.ar    1  UNL1       -0.0029
      6 C           6.6083   -5.5360   27.1231 C.ar    1  UNL1        0.0143
      7 O           7.8476   -3.0206   24.6449 O.2     1  UNL1       -0.2727
      8 C           7.7461   -4.3564   23.9701 C.2     1  UNL1        0.2493
      9 N           7.7482   -5.6127   24.7896 N.am    1  UNL1       -0.2823
     10 H           7.6816   -6.4894   24.3467 H       1  UNL1        0.1549
     11 C           7.6426   -4.4359   22.4758 C.3     1  UNL1        0.1957
     12 N           6.5493   -3.7000   21.7595 N.ar    1  UNL1       -0.2690
     13 C           5.1913   -3.5797   22.3853 C.ar    1  UNL1        0.1812
     14 N           4.0980   -2.8438   21.6690 N.ar    1  UNL1       -0.2252
     15 C           4.3625   -2.2282   20.3270 C.ar    1  UNL1        0.0876
     16 C           3.2692   -1.4923   19.6107 C.ar    1  UNL1        0.0193
     17 C           3.5338   -0.8767   18.2687 C.ar    1  UNL1        0.0015
     18 C           4.8917   -0.9970   17.6430 C.ar    1  UNL1        0.0003
     19 C           5.9850   -1.7329   18.3592 C.ar    1  UNL1        0.0063
     20 C           5.7205   -2.3485   19.7012 C.ar    1  UNL1        0.0739
     21 C           6.8138   -3.0844   20.4175 C.ar    1  UNL1        0.2638
     22 O           8.1718   -3.2047   19.7918 O.2     1  UNL1       -0.2669
     23 C           8.1620   -5.2950   30.7669 C.3     1  UNL1        0.0420
     24 C           7.4628   -4.1953   31.5097 C.3     1  UNL1        0.0585
     25 C           8.0119   -2.8257   31.7792 C.3     1  UNL1        0.0175
     26 C           6.9802   -2.0561   32.5495 C.3     1  UNL1        0.0199
     27 C           5.7935   -2.9501   32.7561 C.3     1  UNL1        0.0855
     28 N           6.0918   -4.2722   32.1135 N.3     1  UNL1       -0.2971
     29 H           5.4037   -4.4666   31.3861 H       1  UNL1        0.1233
     30 C           4.5304   -2.5859   33.4785 C.3     1  UNL1        0.1470
     31 O           3.5000   -3.6378   33.7646 O.3     1  UNL1       -0.3787
     32 H           2.7514   -3.2379   34.2341 H       1  UNL1        0.2108
     33 C           4.2975   -1.1698   33.9147 C.ar    1  UNL1        0.0055
     34 C           4.7436   -0.7211   35.2748 C.ar    1  UNL1       -0.0019
     35 C           4.5107    0.6950   35.7111 C.ar    1  UNL1       -0.0002
     36 C           3.8319    1.6624   34.7874 C.ar    1  UNL1       -0.0000
     37 C           3.3859    1.2137   33.4274 C.ar    1  UNL1       -0.0002
     38 C           3.6187   -0.2024   32.9910 C.ar    1  UNL1       -0.0019
@<TRIPOS>BOND
     1     7     8    2
     2     8    11    1
     3    11    12    1
     4    12    13   ar
     5    13    14   ar
     6    14    15   ar
     7    15    16   ar
     8    16    17   ar
     9    17    18   ar
    10    18    19   ar
    11    19    20   ar
    12    20    21   ar
    13    21    22    2
    14     8     9   am
    15     9     1    1
    16     1     2   ar
    17     2     3   ar
    18     3     4   ar
    19     4    23    1
    20    24    23    1
    21    24    25    1
    22    25    26    1
    23    27    26    1
    24    27    30    1
    25    30    31    1
    26    30    33    1
    27    33    34   ar
    28    34    35   ar
    29    35    36   ar
    30    36    37   ar
    31    37    38   ar
    32    27    28    1
    33     4     5   ar
    34     5     6   ar
    35    21    12   ar
    36     6     1   ar
    37    20    15   ar
    38    28    24    1
    39    38    33   ar
    40     9    10    1
    41    31    32    1
    42    28    29    1
@<TRIPOS>MOLECULE
*****
 38 42 0 0 0
SMALL
GASTEIGER

@<TRIPOS>ATOM
      1 C           2.2332    0.7175   19.3445 C.ar    1  UNL1        0.0503
      2 C           2.8060    0.3245   18.0151 C.ar    1  UNL1        0.0143
      3 C           3.5325   -0.9794   17.8674 C.ar    1  UNL1       -0.0029
      4 C           3.6861   -1.8904   19.0491 C.ar    1  UNL1       -0.0208
      5 C           3.1133   -1.4974   20.3785 C.ar    1  UNL1       -0.0029
      6 C           2.3869   -0.1935   20.5262 C.ar    1  UNL1        0.0143
      7 O          -0.5569    0.7638   20.4460 O.2     1  UNL1       -0.2727
      8 C           0.1117    2.0447   20.0430 C.2     1  UNL1        0.2493
      9 N           1.5067    2.0216   19.4922 N.am    1  UNL1       -0.2823
     10 H           1.9455    2.8622   19.2277 H       1  UNL1        0.1549
     11 C          -0.6147    3.3487   20.1907 C.3     1  UNL1        0.1957
     12 N          -1.8435    3.4299   21.0473 N.ar    1  UNL1       -0.2690
     13 C          -3.2030    3.3676   20.4164 C.ar    1  UNL1        0.1812
     14 N          -4.4316    3.4488   21.2730 N.ar    1  UNL1       -0.2252
     15 C          -4.3009    3.5923   22.7604 C.ar    1  UNL1        0.0876
     16 C          -5.5296    3.6735   23.6169 C.ar    1  UNL1        0.0193
     17 C          -5.3988    3.8170   25.1043 C.ar    1  UNL1        0.0015
     18 C          -4.0394    3.8792   25.7351 C.ar    1  UNL1        0.0003
     19 C          -2.8107    3.7980   24.8786 C.ar    1  UNL1        0.0063
     20 C          -2.9414    3.6546   23.3912 C.ar    1  UNL1        0.0739
     21 C          -1.7127    3.5734   22.5346 C.ar    1  UNL1        0.2638
     22 O          -0.3532    3.6356   23.1655 O.2     1  UNL1       -0.2669
     23 C           4.4127   -3.1945   18.9014 C.3     1  UNL1        0.0420
     24 C           5.7516   -3.3847   19.5502 C.3     1  UNL1        0.0585
     25 C           6.9745   -2.5501   19.3097 C.3     1  UNL1        0.0175
     26 C           8.0814   -3.0926   20.1644 C.3     1  UNL1        0.0199
     27 C           7.5426   -4.2626   20.9331 C.3     1  UNL1        0.0855
     28 N           6.1027   -4.4431   20.5535 N.3     1  UNL1       -0.2971
     29 H           5.5122   -4.3465   21.3796 H       1  UNL1        0.1233
     30 C           8.3091   -5.1042   21.9099 C.3     1  UNL1        0.1470
     31 O           9.5360   -5.8424   21.4628 O.3     1  UNL1       -0.3787
     32 H           9.9082   -6.3342   22.2114 H       1  UNL1        0.2108
     33 C           7.8489   -5.2076   23.3337 C.ar    1  UNL1        0.0055
     34 C           8.0837   -6.4708   24.1079 C.ar    1  UNL1       -0.0019
     35 C           7.6234   -6.5743   25.5317 C.ar    1  UNL1       -0.0002
     36 C           6.9284   -5.4147   26.1815 C.ar    1  UNL1       -0.0000
     37 C           6.6937   -4.1515   25.4073 C.ar    1  UNL1       -0.0002
     38 C           7.1539   -4.0480   23.9834 C.ar    1  UNL1       -0.0019
@<TRIPOS>BOND
     1     7     8    2
     2     8    11    1
     3    11    12    1
     4    12    13   ar
     5    13    14   ar
     6    14    15   ar
     7    15    16   ar
     8    16    17   ar
     9    17    18   ar
    10    18    19   ar
    11    19    20   ar
    12    20    21   ar
    13    21    22    2
    14     8     9   am
    15     9     1    1
    16     1     2   ar
    17     2     3   ar
    18     3     4   ar
    19     4    23    1
    20    24    23    1
    21    24    25    1
    22    25    26    1
    23    27    26    1
    24    27    30    1
    25    30    31    1
    26    30    33    1
    27    33    34   ar
    28    34    35   ar
    29    35    36   ar
    30    36    37   ar
    31    37    38   ar
    32    27    28    1
    33     4     5   ar
    34     5     6   ar
    35    21    12   ar
    36     6     1   ar
    37    20    15   ar
    38    28    24    1
    39    38    33   ar
    40     9    10    1
    41    31    32    1
    42    28    29    1
@<TRIPOS>MOLECULE
*****
 38 42 0 0 0
SMALL
GASTEIGER

@<TRIPOS>ATOM
      1 C           2.2733   -0.2613   28.7906 C.ar    1  UNL1        0.0503
      2 C           2.9306   -0.0756   30.1261 C.ar    1  UNL1        0.0143
      3 C           2.3331    0.8631   31.1319 C.ar    1  UNL1       -0.0029
      4 C           1.0784    1.6162   30.8023 C.ar    1  UNL1       -0.0208
      5 C           0.4212    1.4305   29.4668 C.ar    1  UNL1       -0.0029
      6 C           1.0186    0.4918   28.4610 C.ar    1  UNL1        0.0143
      7 O           4.6557    0.5871   27.1768 O.2     1  UNL1       -0.2727
      8 C           4.0619   -0.7759   26.9778 C.2     1  UNL1        0.2493
      9 N           2.8708   -1.2001   27.7847 N.am    1  UNL1       -0.2823
     10 H           2.4810   -2.0947   27.6541 H       1  UNL1        0.1549
     11 C           4.6593   -1.7147   25.9720 C.3     1  UNL1        0.1957
     12 N           4.2142   -1.6625   24.5404 N.ar    1  UNL1       -0.2690
     13 C           3.2605   -0.5960   24.0900 C.ar    1  UNL1        0.1812
     14 N           2.8153   -0.5438   22.6585 N.ar    1  UNL1       -0.2252
     15 C           3.3239   -1.5581   21.6774 C.ar    1  UNL1        0.0876
     16 C           2.8788   -1.5059   20.2460 C.ar    1  UNL1        0.0193
     17 C           3.3873   -2.5203   19.2650 C.ar    1  UNL1        0.0015
     18 C           4.3411   -3.5868   19.7155 C.ar    1  UNL1        0.0003
     19 C           4.7862   -3.6390   21.1469 C.ar    1  UNL1        0.0063
     20 C           4.2776   -2.6247   22.1279 C.ar    1  UNL1        0.0739
     21 C           4.7228   -2.6769   23.5594 C.ar    1  UNL1        0.2638
     22 O           5.6765   -3.7434   24.0099 O.2     1  UNL1       -0.2669
     23 C           0.4810    2.5550   31.8082 C.3     1  UNL1        0.0420
     24 C           1.2884    2.9991   32.9917 C.3     1  UNL1        0.0585
     25 C           1.7547    4.3981   33.2660 C.3     1  UNL1        0.0175
     26 C           2.5258    4.3858   34.5526 C.3     1  UNL1        0.0199
     27 C           2.5362    2.9791   35.0734 C.3     1  UNL1        0.0855
     28 N           1.7714    2.1221   34.1087 N.3     1  UNL1       -0.2971
     29 H           0.9755    1.6941   34.5817 H       1  UNL1        0.1233
     30 C           3.1955    2.5116   36.3370 C.3     1  UNL1        0.1470
     31 O           4.6909    2.4213   36.4137 O.3     1  UNL1       -0.3787
     32 H           4.9510    2.1045   37.2928 H       1  UNL1        0.2108
     33 C           2.3596    2.1344   37.5239 C.ar    1  UNL1        0.0055
     34 C           1.2986    3.0705   38.0219 C.ar    1  UNL1       -0.0019
     35 C           0.4626    2.6934   39.2089 C.ar    1  UNL1       -0.0002
     36 C           0.6877    1.3801   39.8978 C.ar    1  UNL1       -0.0000
     37 C           1.7487    0.4440   39.3998 C.ar    1  UNL1       -0.0002
     38 C           2.5846    0.8211   38.2128 C.ar    1  UNL1       -0.0019
@<TRIPOS>BOND
     1     7     8    2
     2     8    11    1
     3    11    12    1
     4    12    13   ar
     5    13    14   ar
     6    14    15   ar
     7    15    16   ar
     8    16    17   ar
     9    17    18   ar
    10    18    19   ar
    11    19    20   ar
    12    20    21   ar
    13    21    22    2
    14     8     9   am
    15     9     1    1
    16     1     2   ar
    17     2     3   ar
    18     3     4   ar
    19     4    23    1
    20    24    23    1
    21    24    25    1
    22    25    26    1
    23    27    26    1
    24    27    30    1
    25    30    31    1
    26    30    33    1
    27    33    34   ar
    28    34    35   ar
    29    35    36   ar
    30    36    37   ar
    31    37    38   ar
    32    27    28    1
    33     4     5   ar
    34     5     6   ar
    35    21    12   ar
    36     6     1   ar
    37    20    15   ar
    38    28    24    1
    39    38    33   ar
    40     9    10    1
    41    31    32    1
    42    28    29    1
@<TRIPOS>MOLECULE
*****
 38 42 0 0 0
SMALL
GASTEIGER

@<TRIPOS>ATOM
      1 C         -16.7235    3.0222   21.3381 C.ar    1  UNL1        0.0503
      2 C         -15.8013    3.1408   20.1610 C.ar    1  UNL1        0.0143
      3 C         -15.5065    1.9377   19.3152 C.ar    1  UNL1       -0.0029
      4 C         -16.1338    0.6160   19.6463 C.ar    1  UNL1       -0.0208
      5 C         -17.0560    0.4974   20.8234 C.ar    1  UNL1       -0.0029
      6 C         -17.3508    1.7005   21.6693 C.ar    1  UNL1        0.0143
      7 O         -19.3143    4.4961   20.9988 O.2     1  UNL1       -0.2727
      8 C         -18.3137    4.9623   22.0144 C.2     1  UNL1        0.2493
      9 N         -17.0183    4.2253   22.1841 N.am    1  UNL1       -0.2823
     10 H         -16.3616    4.5313   22.8507 H       1  UNL1        0.1549
     11 C         -18.6085    6.1653   22.8604 C.3     1  UNL1        0.1957
     12 N         -18.8212    6.0099   24.3371 N.ar    1  UNL1       -0.2690
     13 C         -20.2101    5.8577   24.8828 C.ar    1  UNL1        0.1812
     14 N         -20.4229    5.7023   26.3595 N.ar    1  UNL1       -0.2252
     15 C         -19.2467    5.6992   27.2905 C.ar    1  UNL1        0.0876
     16 C         -19.4595    5.5438   28.7672 C.ar    1  UNL1        0.0193
     17 C         -18.2834    5.5407   29.6981 C.ar    1  UNL1        0.0015
     18 C         -16.8945    5.6930   29.1524 C.ar    1  UNL1        0.0003
     19 C         -16.6817    5.8483   27.6757 C.ar    1  UNL1        0.0063
     20 C         -17.8578    5.8514   26.7448 C.ar    1  UNL1        0.0739
     21 C         -17.6451    6.0068   25.2680 C.ar    1  UNL1        0.2638
     22 O         -16.2562    6.1591   24.7223 O.2     1  UNL1       -0.2669
     23 C         -15.8390   -0.5871   18.8004 C.3     1  UNL1        0.0420
     24 C         -14.7833   -1.5636   19.2271 C.3     1  UNL1        0.0585
     25 C         -14.8740   -2.5082   20.3887 C.3     1  UNL1        0.0175
     26 C         -13.5984   -3.2953   20.4467 C.3     1  UNL1        0.0199
     27 C         -12.7193   -2.8370   19.3209 C.3     1  UNL1        0.0855
     28 N         -13.4517   -1.7668   18.5672 N.3     1  UNL1       -0.2971
     29 H         -13.5861   -2.0560   17.5983 H       1  UNL1        0.1233
     30 C         -11.3486   -3.3577   19.0044 C.3     1  UNL1        0.1470
     31 O         -10.1618   -2.4441   19.0873 O.3     1  UNL1       -0.3787
     32 H          -9.3587   -2.9353   18.8532 H       1  UNL1        0.2108
     33 C         -11.1648   -4.7917   18.6052 C.ar    1  UNL1        0.0055
     34 C         -12.2164   -5.4840   17.7898 C.ar    1  UNL1       -0.0019
     35 C         -12.0326   -6.9181   17.3904 C.ar    1  UNL1       -0.0002
     36 C         -10.7971   -7.6600   17.8065 C.ar    1  UNL1       -0.0000
     37 C          -9.7454   -6.9677   18.6219 C.ar    1  UNL1       -0.0002
     38 C          -9.9293   -5.5336   19.0212 C.ar    1  UNL1       -0.0019
@<TRIPOS>BOND
     1     7     8    2
     2     8    11    1
     3    11    12    1
     4    12    13   ar
     5    13    14   ar
     6    14    15   ar
     7    15    16   ar
     8    16    17   ar
     9    17    18   ar
    10    18    19   ar
    11    19    20   ar
    12    20    21   ar
    13    21    22    2
    14     8     9   am
    15     9     1    1
    16     1     2   ar
    17     2     3   ar
    18     3     4   ar
    19     4    23    1
    20    24    23    1
    21    24    25    1
    22    25    26    1
    23    27    26    1
    24    27    30    1
    25    30    31    1
    26    30    33    1
    27    33    34   ar
    28    34    35   ar
    29    35    36   ar
    30    36    37   ar
    31    37    38   ar
    32    27    28    1
    33     4     5   ar
    34     5     6   ar
    35    21    12   ar
    36     6     1   ar
    37    20    15   ar
    38    28    24    1
    39    38    33   ar
    40     9    10    1
    41    31    32    1
    42    28    29    1
@<TRIPOS>MOLECULE
*****
 38 42 0 0 0
SMALL
GASTEIGER

@<TRIPOS>ATOM
      1 C           0.2051    1.4556   25.4105 C.ar    1  UNL1        0.0503
      2 C          -0.4826    2.4213   24.4916 C.ar    1  UNL1        0.0143
      3 C          -1.6664    3.2044   24.9765 C.ar    1  UNL1       -0.0029
      4 C          -2.1626    3.0218   26.3802 C.ar    1  UNL1       -0.0208
      5 C          -1.4749    2.0560   27.2991 C.ar    1  UNL1       -0.0029
      6 C          -0.2910    1.2729   26.8142 C.ar    1  UNL1        0.0143
      7 O           2.8848    2.7827   25.1690 O.2     1  UNL1       -0.2727
      8 C           2.7288    1.3360   24.8049 C.2     1  UNL1        0.2493
      9 N           1.3891    0.6724   24.9256 N.am    1  UNL1       -0.2823
     10 H           1.2867   -0.2771   24.6866 H       1  UNL1        0.1549
     11 C           3.9127    0.5528   24.3200 C.3     1  UNL1        0.1957
     12 N           3.8409   -0.1847   23.0158 N.ar    1  UNL1       -0.2690
     13 C           3.4981    0.5525   21.7552 C.ar    1  UNL1        0.1812
     14 N           3.4264   -0.1849   20.4510 N.ar    1  UNL1       -0.2252
     15 C           3.6975   -1.6596   20.4073 C.ar    1  UNL1        0.0876
     16 C           3.6257   -2.3970   19.1031 C.ar    1  UNL1        0.0193
     17 C           3.8968   -3.8716   19.0594 C.ar    1  UNL1        0.0015
     18 C           4.2395   -4.6088   20.3200 C.ar    1  UNL1        0.0003
     19 C           4.3113   -3.8714   21.6242 C.ar    1  UNL1        0.0063
     20 C           4.0402   -2.3968   21.6678 C.ar    1  UNL1        0.0739
     21 C           4.1120   -1.6593   22.9721 C.ar    1  UNL1        0.2638
     22 O           4.4548   -2.3965   24.2327 O.2     1  UNL1       -0.2669
     23 C          -3.3465    3.8050   26.8651 C.3     1  UNL1        0.0420
     24 C          -4.3293    4.3655   25.8803 C.3     1  UNL1        0.0585
     25 C          -4.7596    5.7991   25.7829 C.3     1  UNL1        0.0175
     26 C          -5.7506    5.9105   24.6624 C.3     1  UNL1        0.0199
     27 C          -5.9327    4.5457   24.0673 C.3     1  UNL1        0.0855
     28 N          -5.0543    3.5908   24.8200 N.3     1  UNL1       -0.2971
     29 H          -4.3821    3.1633   24.1830 H       1  UNL1        0.1233
     30 C          -6.8349    4.1970   22.9207 C.3     1  UNL1        0.1470
     31 O          -8.2807    3.8860   23.1717 O.3     1  UNL1       -0.3787
     32 H          -8.7185    3.6829   22.3303 H       1  UNL1        0.2108
     33 C          -6.2913    4.1593   21.5233 C.ar    1  UNL1        0.0055
     34 C          -7.0329    4.8406   20.4115 C.ar    1  UNL1       -0.0019
     35 C          -6.4894    4.8030   19.0140 C.ar    1  UNL1       -0.0002
     36 C          -5.2043    4.0840   18.7282 C.ar    1  UNL1       -0.0000
     37 C          -4.4628    3.4027   19.8399 C.ar    1  UNL1       -0.0002
     38 C          -5.0063    3.4404   21.2375 C.ar    1  UNL1       -0.0019
@<TRIPOS>BOND
     1     7     8    2
     2     8    11    1
     3    11    12    1
     4    12    13   ar
     5    13    14   ar
     6    14    15   ar
     7    15    16   ar
     8    16    17   ar
     9    17    18   ar
    10    18    19   ar
    11    19    20   ar
    12    20    21   ar
    13    21    22    2
    14     8     9   am
    15     9     1    1
    16     1     2   ar
    17     2     3   ar
    18     3     4   ar
    19     4    23    1
    20    24    23    1
    21    24    25    1
    22    25    26    1
    23    27    26    1
    24    27    30    1
    25    30    31    1
    26    30    33    1
    27    33    34   ar
    28    34    35   ar
    29    35    36   ar
    30    36    37   ar
    31    37    38   ar
    32    27    28    1
    33     4     5   ar
    34     5     6   ar
    35    21    12   ar
    36     6     1   ar
    37    20    15   ar
    38    28    24    1
    39    38    33   ar
    40     9    10    1
    41    31    32    1
    42    28    29    1
@<TRIPOS>MOLECULE
*****
 38 42 0 0 0
SMALL
GASTEIGER

@<TRIPOS>ATOM
      1 C           7.7315   -5.3838   26.1069 C.ar    1  UNL1        0.0503
      2 C           9.0904   -5.3636   26.7415 C.ar    1  UNL1        0.0143
      3 C           9.2200   -5.3407   28.2357 C.ar    1  UNL1       -0.0029
      4 C           7.9907   -5.3381   29.0952 C.ar    1  UNL1       -0.0208
      5 C           6.6318   -5.3584   28.4606 C.ar    1  UNL1       -0.0029
      6 C           6.5022   -5.3813   26.9664 C.ar    1  UNL1        0.0143
      7 O           8.1136   -2.8609   24.5292 O.2     1  UNL1       -0.2727
      8 C           7.7928   -4.1453   23.8238 C.2     1  UNL1        0.2493
      9 N           7.6018   -5.4067   24.6126 N.am    1  UNL1       -0.2823
     10 H           7.3913   -6.2497   24.1496 H       1  UNL1        0.1549
     11 C           7.6632   -4.1682   22.3296 C.3     1  UNL1        0.1957
     12 N           6.9653   -3.0459   21.6200 N.ar    1  UNL1       -0.2690
     13 C           7.7382   -1.8339   21.1913 C.ar    1  UNL1        0.1812
     14 N           7.0404   -0.7116   20.4818 N.ar    1  UNL1       -0.2252
     15 C           5.5696   -0.8013   20.2009 C.ar    1  UNL1        0.0876
     16 C           4.8718    0.3210   19.4914 C.ar    1  UNL1        0.0193
     17 C           3.4011    0.2313   19.2105 C.ar    1  UNL1        0.0015
     18 C           2.6282   -0.9806   19.6392 C.ar    1  UNL1        0.0003
     19 C           3.3260   -2.1029   20.3488 C.ar    1  UNL1        0.0063
     20 C           4.7967   -2.0132   20.6296 C.ar    1  UNL1        0.0739
     21 C           5.4946   -3.1355   21.3392 C.ar    1  UNL1        0.2638
     22 O           4.7217   -4.3475   21.7679 O.2     1  UNL1       -0.2669
     23 C           8.1204   -5.3152   30.5895 C.3     1  UNL1        0.0420
     24 C           7.4525   -4.2323   31.3838 C.3     1  UNL1        0.0585
     25 C           8.0480   -2.9009   31.7343 C.3     1  UNL1        0.0175
     26 C           7.0353   -2.1363   32.5342 C.3     1  UNL1        0.0199
     27 C           5.8139   -2.9951   32.6780 C.3     1  UNL1        0.0855
     28 N           6.0717   -4.2905   31.9670 N.3     1  UNL1       -0.2971
     29 H           5.3866   -4.4190   31.2224 H       1  UNL1        0.1233
     30 C           4.5556   -2.6238   33.4052 C.3     1  UNL1        0.1470
     31 O           3.5578   -3.6837   33.7671 O.3     1  UNL1       -0.3787
     32 H           2.8081   -3.2776   34.2296 H       1  UNL1        0.2108
     33 C           4.2950   -1.1925   33.7705 C.ar    1  UNL1        0.0055
     34 C           3.6525   -0.2700   32.7773 C.ar    1  UNL1       -0.0019
     35 C           3.3919    1.1613   33.1426 C.ar    1  UNL1       -0.0002
     36 C           3.7738    1.6701   34.5009 C.ar    1  UNL1       -0.0000
     37 C           4.4163    0.7477   35.4941 C.ar    1  UNL1       -0.0002
     38 C           4.6769   -0.6837   35.1289 C.ar    1  UNL1       -0.0019
@<TRIPOS>BOND
     1     7     8    2
     2     8    11    1
     3    11    12    1
     4    12    13   ar
     5    13    14   ar
     6    14    15   ar
     7    15    16   ar
     8    16    17   ar
     9    17    18   ar
    10    18    19   ar
    11    19    20   ar
    12    20    21   ar
    13    21    22    2
    14     8     9   am
    15     9     1    1
    16     1     2   ar
    17     2     3   ar
    18     3     4   ar
    19     4    23    1
    20    24    23    1
    21    24    25    1
    22    25    26    1
    23    27    26    1
    24    27    30    1
    25    30    31    1
    26    30    33    1
    27    33    34   ar
    28    34    35   ar
    29    35    36   ar
    30    36    37   ar
    31    37    38   ar
    32    27    28    1
    33     4     5   ar
    34     5     6   ar
    35    21    12   ar
    36     6     1   ar
    37    20    15   ar
    38    28    24    1
    39    38    33   ar
    40     9    10    1
    41    31    32    1
    42    28    29    1
