@<TRIPOS>MOLECULE
*****
 30 32 0 0 0
SMALL
GASTEIGER

@<TRIPOS>ATOM
      1 C          -9.9211  -18.3165   22.7362 C.3     1  UNL1        0.0378
      2 C         -10.6474  -19.0239   21.6307 C.3     1  UNL1        0.0075
      3 C          -9.8881  -19.5397   20.4444 C.3     1  UNL1        0.0219
      4 C          -8.4026  -19.3481   20.3635 C.3     1  UNL1        0.0950
      5 N          -7.6763  -18.6408   21.4690 N.am    1  UNL1       -0.2637
      6 C          -6.1908  -18.4492   21.3882 C.2     1  UNL1        0.3077
      7 O          -5.4646  -17.7418   22.4937 O.2     1  UNL1       -0.2522
      8 N          -5.4315  -18.9650   20.2018 N.am    1  UNL1       -0.2681
      9 C          -8.4356  -18.1249   22.6554 C.3     1  UNL1        0.0989
     10 H          -5.9082  -19.4293   19.4762 H       1  UNL1        0.1564
     11 C          -3.9460  -18.7734   20.1210 C.ar    1  UNL1        0.0516
     12 C          -3.3576  -17.9222   19.0350 C.ar    1  UNL1        0.0156
     13 C          -1.8722  -17.7306   18.9542 C.ar    1  UNL1        0.0127
     14 C          -0.9750  -18.3901   19.9593 C.ar    1  UNL1        0.0578
     15 CL          0.5105  -18.1984   19.8785 Cl      1  UNL1       -0.0822
     16 C          -1.5634  -19.2413   21.0453 C.ar    1  UNL1        0.0127
     17 C          -3.0490  -19.4329   21.1261 C.ar    1  UNL1        0.0156
     18 C         -11.3236  -18.2549   23.2648 C.ar    1  UNL1       -0.0212
     19 C         -11.6467  -18.8462   24.6049 C.ar    1  UNL1       -0.0042
     20 C         -13.0491  -18.7847   25.1334 C.ar    1  UNL1       -0.0003
     21 C         -14.1285  -18.1318   24.3218 C.ar    1  UNL1       -0.0000
     22 C         -13.8054  -17.5405   22.9817 C.ar    1  UNL1       -0.0003
     23 C         -12.4030  -17.6021   22.4532 C.ar    1  UNL1       -0.0042
     24 C          -9.6819  -17.5877   24.0253 C.3     1  UNL1        0.0153
     25 C          -9.1418  -16.1885   24.0068 C.3     1  UNL1        0.0854
     26 C          -5.6529  -15.3115   25.6826 C.3     1  UNL1        0.1107
     27 N          -6.6694  -15.7366   24.6647 N.am    1  UNL1       -0.3027
     28 C          -8.1253  -15.7633   25.0247 C.2     1  UNL1        0.2225
     29 O          -8.5648  -15.3650   26.4024 O.2     1  UNL1       -0.2751
     30 H          -6.3810  -15.9981   23.7605 H       1  UNL1        0.1495
@<TRIPOS>BOND
     1    26    27    1
     2    27    28   am
     3    28    29    2
     4    28    25    1
     5    25    24    1
     6    24     1    1
     7     1    18    1
     8    18    19   ar
     9    19    20   ar
    10    20    21   ar
    11    21    22   ar
    12    22    23   ar
    13     1     2    1
    14     2     3    1
    15     3     4    1
    16     4     5    1
    17     5     6   am
    18     6     7    2
    19     6     8   am
    20     8    11    1
    21    11    12   ar
    22    12    13   ar
    23    13    14   ar
    24    14    15    1
    25    14    16   ar
    26    16    17   ar
    27     5     9    1
    28     9     1    1
    29    23    18   ar
    30    17    11   ar
    31    27    30    1
    32     8    10    1
@<TRIPOS>MOLECULE
*****
 30 32 0 0 0
SMALL
GASTEIGER

@<TRIPOS>ATOM
      1 C          -4.2055  -18.2159   21.3119 C.3     1  UNL1        0.0378
      2 C          -4.1705  -19.1936   20.1749 C.3     1  UNL1        0.0075
      3 C          -5.4202  -19.9172   19.7691 C.3     1  UNL1        0.0219
      4 C          -6.7050  -19.6629   20.5003 C.3     1  UNL1        0.0950
      5 N          -6.7401  -18.6852   21.6373 N.am    1  UNL1       -0.2637
      6 C          -8.0249  -18.4310   22.3685 C.2     1  UNL1        0.3077
      7 O          -8.0599  -17.4533   23.5055 O.2     1  UNL1       -0.2522
      8 N          -9.2746  -19.1545   21.9627 N.am    1  UNL1       -0.2681
      9 C          -5.4904  -17.9617   22.0431 C.3     1  UNL1        0.0989
     10 H          -9.2516  -19.7963   21.2164 H       1  UNL1        0.1564
     11 C         -10.5594  -18.9003   22.6939 C.ar    1  UNL1        0.0516
     12 C         -11.6776  -18.1681   22.0130 C.ar    1  UNL1        0.0156
     13 C         -12.9623  -17.9138   22.7441 C.ar    1  UNL1        0.0127
     14 C         -13.1290  -18.3916   24.1562 C.ar    1  UNL1        0.0578
     15 CL        -14.4138  -18.1373   24.8874 Cl      1  UNL1       -0.0822
     16 C         -12.0108  -19.1238   24.8371 C.ar    1  UNL1        0.0127
     17 C         -10.7260  -19.3781   24.1059 C.ar    1  UNL1        0.0156
     18 C          -2.7583  -18.1188   20.9294 C.ar    1  UNL1       -0.0212
     19 C          -1.9789  -19.3628   20.6212 C.ar    1  UNL1       -0.0042
     20 C          -0.5318  -19.2657   20.2388 C.ar    1  UNL1       -0.0003
     21 C           0.1360  -17.9246   20.1646 C.ar    1  UNL1       -0.0000
     22 C          -0.6434  -16.6806   20.4728 C.ar    1  UNL1       -0.0003
     23 C          -2.0905  -16.7777   20.8553 C.ar    1  UNL1       -0.0042
     24 C          -3.7380  -17.2045   22.3161 C.3     1  UNL1        0.0153
     25 C          -4.2338  -17.2671   23.7303 C.3     1  UNL1        0.0854
     26 C          -5.9272  -14.8852   26.4153 C.3     1  UNL1        0.1107
     27 N          -5.2584  -16.0793   25.8014 N.am    1  UNL1       -0.3027
     28 C          -4.9027  -16.0730   24.3442 C.2     1  UNL1        0.2225
     29 O          -5.2158  -14.8727   23.5009 O.2     1  UNL1       -0.2751
     30 H          -5.0529  -16.8671   26.3549 H       1  UNL1        0.1495
@<TRIPOS>BOND
     1    26    27    1
     2    27    28   am
     3    28    29    2
     4    28    25    1
     5    25    24    1
     6    24     1    1
     7     1    18    1
     8    18    19   ar
     9    19    20   ar
    10    20    21   ar
    11    21    22   ar
    12    22    23   ar
    13     1     2    1
    14     2     3    1
    15     3     4    1
    16     4     5    1
    17     5     6   am
    18     6     7    2
    19     6     8   am
    20     8    11    1
    21    11    12   ar
    22    12    13   ar
    23    13    14   ar
    24    14    15    1
    25    14    16   ar
    26    16    17   ar
    27     5     9    1
    28     9     1    1
    29    23    18   ar
    30    17    11   ar
    31    27    30    1
    32     8    10    1
