@<TRIPOS>MOLECULE
*****
 28 30 0 0 0
SMALL
GASTEIGER

@<TRIPOS>ATOM
      1 C          -7.8501  -16.6660   23.1270 C.3     1  UNL1        0.1139
      2 C          -7.5726  -16.1759   24.5173 C.ar    1  UNL1       -0.0029
      3 C          -6.2223  -15.6208   24.8613 C.ar    1  UNL1       -0.0026
      4 C          -5.9448  -15.1308   26.2516 C.ar    1  UNL1       -0.0003
      5 C          -7.0177  -15.1959   27.2979 C.ar    1  UNL1       -0.0000
      6 C          -8.3680  -15.7511   26.9539 C.ar    1  UNL1       -0.0003
      7 C          -8.6455  -16.2411   25.5636 C.ar    1  UNL1       -0.0026
      8 C          -6.1754  -18.5373   22.4611 C.2     1  UNL1        0.2461
      9 O          -5.0489  -17.5483   22.5148 O.2     1  UNL1       -0.2730
     10 N          -7.5760  -18.0961   22.7672 N.am    1  UNL1       -0.2729
     11 C          -8.7025  -19.0851   22.7135 C.3     1  UNL1        0.1152
     12 C          -5.9013  -19.9675   22.1013 C.3     1  UNL1        0.1773
     13 C          -5.7570  -21.3293   19.8935 C.3     1  UNL1        0.1126
     14 N          -5.1908  -20.2960   20.8218 N.pl3   1  UNL1       -0.2980
     15 C          -3.9141  -19.5913   20.4705 C.ar    1  UNL1        0.0482
     16 C          -2.6906  -19.7903   21.3154 C.ar    1  UNL1        0.0145
     17 C          -1.4140  -19.0855   20.9641 C.ar    1  UNL1        0.0013
     18 C          -1.3607  -18.1818   19.7681 C.ar    1  UNL1        0.0001
     19 C          -2.5840  -17.9828   18.9233 C.ar    1  UNL1        0.0013
     20 C          -3.8608  -18.6876   19.2745 C.ar    1  UNL1        0.0145
     21 C          -8.4017  -15.7258   22.0966 C.3     1  UNL1        0.0968
     22 N          -9.8106  -15.8906   21.6086 N.3     1  UNL1       -0.2689
     23 C         -10.9611  -16.4333   22.4035 C.3     1  UNL1        0.0748
     24 C         -12.1778  -16.4198   21.5263 C.3     1  UNL1        0.0480
     25 C         -11.7792  -15.8686   20.1893 C.3     1  UNL1        0.1278
     26 O         -12.6846  -15.6780   19.0088 O.3     1  UNL1       -0.3830
     27 C         -10.3162  -15.5416   20.2402 C.3     1  UNL1        0.1017
     28 H         -13.5813  -15.9678   19.2388 H       1  UNL1        0.2104
@<TRIPOS>BOND
     1    13    14    1
     2    14    12    1
     3    12     8    1
     4     8     9    2
     5     8    10   am
     6    10    11    1
     7    10     1    1
     8     1    21    1
     9    21    22    1
    10    22    23    1
    11    23    24    1
    12    24    25    1
    13    25    26    1
    14    25    27    1
    15     1     2    1
    16     2     3   ar
    17     3     4   ar
    18     4     5   ar
    19     5     6   ar
    20     6     7   ar
    21    14    15    1
    22    15    16   ar
    23    16    17   ar
    24    17    18   ar
    25    18    19   ar
    26    19    20   ar
    27    27    22    1
    28     7     2   ar
    29    20    15   ar
    30    26    28    1
@<TRIPOS>MOLECULE
*****
 28 30 0 0 0
SMALL
GASTEIGER

@<TRIPOS>ATOM
      1 C          -8.6646  -17.0414   23.2931 C.3     1  UNL1        0.1139
      2 C          -7.8332  -16.4239   24.3783 C.ar    1  UNL1       -0.0029
      3 C          -6.4060  -16.0496   24.1086 C.ar    1  UNL1       -0.0026
      4 C          -5.5747  -15.4322   25.1938 C.ar    1  UNL1       -0.0003
      5 C          -6.1706  -15.1891   26.5487 C.ar    1  UNL1       -0.0000
      6 C          -7.5979  -15.5634   26.8184 C.ar    1  UNL1       -0.0003
      7 C          -8.4292  -16.1808   25.7332 C.ar    1  UNL1       -0.0026
      8 C          -7.5635  -18.6881   21.6121 C.2     1  UNL1        0.2461
      9 O          -7.0180  -17.5281   20.8331 O.2     1  UNL1       -0.2730
     10 N          -8.3868  -18.4447   22.8421 N.am    1  UNL1       -0.2729
     11 C          -8.9324  -19.6047   23.6211 C.3     1  UNL1        0.1152
     12 C          -7.2857  -20.0914   21.1611 C.3     1  UNL1        0.1773
     13 C          -5.6573  -21.7978   20.0718 C.3     1  UNL1        0.1126
     14 N          -5.8937  -20.4925   20.7719 N.pl3   1  UNL1       -0.2980
     15 C          -4.7381  -19.5882   21.0829 C.ar    1  UNL1        0.0482
     16 C          -3.8916  -19.0433   19.9708 C.ar    1  UNL1        0.0145
     17 C          -2.7360  -18.1390   20.2818 C.ar    1  UNL1        0.0013
     18 C          -2.4268  -17.7795   21.7049 C.ar    1  UNL1        0.0001
     19 C          -3.2732  -18.3243   22.8169 C.ar    1  UNL1        0.0013
     20 C          -4.4289  -19.2287   22.5060 C.ar    1  UNL1        0.0145
     21 C          -9.7738  -16.2555   22.6590 C.3     1  UNL1        0.0968
     22 N         -11.1535  -16.8382   22.5759 N.3     1  UNL1       -0.2689
     23 C         -11.9440  -17.0568   21.3200 C.3     1  UNL1        0.0748
     24 C         -13.2641  -17.6583   21.7020 C.3     1  UNL1        0.0480
     25 C         -13.2892  -17.8114   23.1941 C.3     1  UNL1        0.1278
     26 O         -14.4202  -18.3728   24.0038 O.3     1  UNL1       -0.3830
     27 C         -11.9849  -17.3045   23.7341 C.3     1  UNL1        0.1017
     28 H         -15.1460  -18.6271   23.4126 H       1  UNL1        0.2104
@<TRIPOS>BOND
     1    13    14    1
     2    14    12    1
     3    12     8    1
     4     8     9    2
     5     8    10   am
     6    10    11    1
     7    10     1    1
     8     1    21    1
     9    21    22    1
    10    22    23    1
    11    23    24    1
    12    24    25    1
    13    25    26    1
    14    25    27    1
    15     1     2    1
    16     2     3   ar
    17     3     4   ar
    18     4     5   ar
    19     5     6   ar
    20     6     7   ar
    21    14    15    1
    22    15    16   ar
    23    16    17   ar
    24    17    18   ar
    25    18    19   ar
    26    19    20   ar
    27    27    22    1
    28     7     2   ar
    29    20    15   ar
    30    26    28    1
@<TRIPOS>MOLECULE
*****
 28 30 0 0 0
SMALL
GASTEIGER

@<TRIPOS>ATOM
      1 C          -9.0792  -17.2872   23.6952 C.3     1  UNL1        0.1139
      2 C          -8.1731  -16.6668   24.7171 C.ar    1  UNL1       -0.0029
      3 C          -8.5390  -16.7137   26.1710 C.ar    1  UNL1       -0.0026
      4 C          -7.6330  -16.0933   27.1927 C.ar    1  UNL1       -0.0003
      5 C          -6.3610  -15.4260   26.7606 C.ar    1  UNL1       -0.0000
      6 C          -5.9951  -15.3790   25.3067 C.ar    1  UNL1       -0.0003
      7 C          -6.9012  -15.9994   24.2850 C.ar    1  UNL1       -0.0026
      8 C          -7.8150  -18.3953   21.7143 C.2     1  UNL1        0.2461
      9 O          -7.4187  -17.0397   21.2089 O.2     1  UNL1       -0.2730
     10 N          -8.6453  -18.5190   22.9574 N.am    1  UNL1       -0.2729
     11 C          -9.0416  -19.8746   23.4627 C.3     1  UNL1        0.1152
     12 C          -7.3811  -19.6271   20.9765 C.3     1  UNL1        0.1773
     13 C          -5.7129  -21.6188   20.9914 C.3     1  UNL1        0.1126
     14 N          -5.9867  -20.1524   21.1488 N.pl3   1  UNL1       -0.2980
     15 C          -4.8662  -19.2114   21.4786 C.ar    1  UNL1        0.0482
     16 C          -3.8609  -18.8446   20.4274 C.ar    1  UNL1        0.0145
     17 C          -2.7403  -17.9035   20.7571 C.ar    1  UNL1        0.0013
     18 C          -2.6250  -17.3292   22.1380 C.ar    1  UNL1        0.0001
     19 C          -3.6303  -17.6960   23.1892 C.ar    1  UNL1        0.0013
     20 C          -4.7509  -18.6371   22.8595 C.ar    1  UNL1        0.0145
     21 C         -10.4191  -16.6758   23.4111 C.3     1  UNL1        0.0968
     22 N         -10.7474  -16.1978   22.0277 N.3     1  UNL1       -0.2689
     23 C          -9.8463  -15.3975   21.1345 C.3     1  UNL1        0.0748
     24 C         -10.5763  -15.1412   19.8493 C.3     1  UNL1        0.0480
     25 C         -11.9284  -15.7832   19.9483 C.3     1  UNL1        0.1278
     26 O         -12.9887  -15.7738   18.8874 O.3     1  UNL1       -0.3830
     27 C         -12.0341  -16.4361   21.2946 C.3     1  UNL1        0.1017
     28 H         -12.6679  -15.2838   18.1141 H       1  UNL1        0.2104
@<TRIPOS>BOND
     1    13    14    1
     2    14    12    1
     3    12     8    1
     4     8     9    2
     5     8    10   am
     6    10    11    1
     7    10     1    1
     8     1    21    1
     9    21    22    1
    10    22    23    1
    11    23    24    1
    12    24    25    1
    13    25    26    1
    14    25    27    1
    15     1     2    1
    16     2     3   ar
    17     3     4   ar
    18     4     5   ar
    19     5     6   ar
    20     6     7   ar
    21    14    15    1
    22    15    16   ar
    23    16    17   ar
    24    17    18   ar
    25    18    19   ar
    26    19    20   ar
    27    27    22    1
    28     7     2   ar
    29    20    15   ar
    30    26    28    1
@<TRIPOS>MOLECULE
*****
 28 30 0 0 0
SMALL
GASTEIGER

@<TRIPOS>ATOM
      1 C           7.3748   -3.5648   23.9441 C.3     1  UNL1        0.1139
      2 C           7.5041   -4.9495   24.5063 C.ar    1  UNL1       -0.0029
      3 C           8.1838   -6.0225   23.7085 C.ar    1  UNL1       -0.0026
      4 C           8.3130   -7.4071   24.2707 C.ar    1  UNL1       -0.0003
      5 C           7.7624   -7.7187   25.6308 C.ar    1  UNL1       -0.0000
      6 C           7.0827   -6.6457   26.4287 C.ar    1  UNL1       -0.0003
      7 C           6.9535   -5.2611   25.8664 C.ar    1  UNL1       -0.0026
      8 C           6.1960   -3.6553   21.6306 C.2     1  UNL1        0.2461
      9 O           4.9494   -4.1714   22.2859 O.2     1  UNL1       -0.2730
     10 N           7.4088   -3.3520   22.4596 N.am    1  UNL1       -0.2729
     11 C           8.6553   -2.8358   21.8043 C.3     1  UNL1        0.1152
     12 C           6.2299   -3.4424   20.1461 C.3     1  UNL1        0.1773
     13 C           4.5241   -4.9071   18.8443 C.3     1  UNL1        0.1126
     14 N           4.9695   -3.5640   19.3420 N.pl3   1  UNL1       -0.2980
     15 C           4.1546   -2.3426   19.0357 C.ar    1  UNL1        0.0482
     16 C           3.0878   -1.8939   19.9900 C.ar    1  UNL1        0.0145
     17 C           2.2729   -0.6724   19.6837 C.ar    1  UNL1        0.0013
     18 C           2.5247    0.1004   18.4230 C.ar    1  UNL1        0.0001
     19 C           3.5914   -0.3483   17.4686 C.ar    1  UNL1        0.0013
     20 C           4.4064   -1.5698   17.7750 C.ar    1  UNL1        0.0145
     21 C           7.2117   -2.3931   24.8662 C.3     1  UNL1        0.0968
     22 N           5.8389   -1.9302   25.2552 N.3     1  UNL1       -0.2689
     23 C           4.8380   -1.2790   24.3473 C.3     1  UNL1        0.0748
     24 C           3.6065   -0.9835   25.1513 C.3     1  UNL1        0.0480
     25 C           3.8464   -1.4521   26.5559 C.3     1  UNL1        0.1278
     26 O           2.8769   -1.3530   27.6961 O.3     1  UNL1       -0.3830
     27 C           5.2261   -2.0371   26.6201 C.3     1  UNL1        0.1017
     28 H           2.0577   -0.9346   27.3884 H       1  UNL1        0.2104
@<TRIPOS>BOND
     1    13    14    1
     2    14    12    1
     3    12     8    1
     4     8     9    2
     5     8    10   am
     6    10    11    1
     7    10     1    1
     8     1    21    1
     9    21    22    1
    10    22    23    1
    11    23    24    1
    12    24    25    1
    13    25    26    1
    14    25    27    1
    15     1     2    1
    16     2     3   ar
    17     3     4   ar
    18     4     5   ar
    19     5     6   ar
    20     6     7   ar
    21    14    15    1
    22    15    16   ar
    23    16    17   ar
    24    17    18   ar
    25    18    19   ar
    26    19    20   ar
    27    27    22    1
    28     7     2   ar
    29    20    15   ar
    30    26    28    1
@<TRIPOS>MOLECULE
*****
 28 30 0 0 0
SMALL
GASTEIGER

@<TRIPOS>ATOM
      1 C           7.3338   -3.7134   22.5402 C.3     1  UNL1        0.1139
      2 C           7.7268   -4.9678   23.2627 C.ar    1  UNL1       -0.0029
      3 C           7.3081   -5.1748   24.6881 C.ar    1  UNL1       -0.0026
      4 C           7.7012   -6.4292   25.4105 C.ar    1  UNL1       -0.0003
      5 C           8.5130   -7.4765   24.7076 C.ar    1  UNL1       -0.0000
      6 C           8.9317   -7.2695   23.2822 C.ar    1  UNL1       -0.0003
      7 C           8.5386   -6.0151   22.5598 C.ar    1  UNL1       -0.0026
      8 C           5.1077   -2.6652   23.3745 C.2     1  UNL1        0.2461
      9 O           4.3422   -3.7936   22.7496 O.2     1  UNL1       -0.2730
     10 N           6.6036   -2.6251   23.2698 N.am    1  UNL1       -0.2729
     11 C           7.3691   -1.4967   23.8948 C.3     1  UNL1        0.1152
     12 C           4.3775   -1.5769   24.1042 C.3     1  UNL1        0.1773
     13 C           4.7915    0.9614   23.7366 C.3     1  UNL1        0.1126
     14 N           4.0442   -0.2949   23.4004 N.pl3   1  UNL1       -0.2980
     15 C           2.9636   -0.2693   22.3604 C.ar    1  UNL1        0.0482
     16 C           1.7686    0.6190   22.5422 C.ar    1  UNL1        0.0145
     17 C           0.6880    0.6446   21.5022 C.ar    1  UNL1        0.0013
     18 C           0.8023   -0.2181   20.2804 C.ar    1  UNL1        0.0001
     19 C           1.9972   -1.1064   20.0987 C.ar    1  UNL1        0.0013
     20 C           3.0779   -1.1321   21.1387 C.ar    1  UNL1        0.0145
     21 C           7.6709   -3.5473   21.0880 C.3     1  UNL1        0.0968
     22 N           6.5745   -3.4767   20.0668 N.3     1  UNL1       -0.2689
     23 C           5.4950   -4.4976   19.8603 C.3     1  UNL1        0.0748
     24 C           4.6183   -4.0247   18.7386 C.3     1  UNL1        0.0480
     25 C           5.1561   -2.7117   18.2520 C.3     1  UNL1        0.1278
     26 O           4.5852   -1.8829   17.1398 O.3     1  UNL1       -0.3830
     27 C           6.3650   -2.3730   19.0728 C.3     1  UNL1        0.1017
     28 H           3.8040   -2.3266   16.7741 H       1  UNL1        0.2104
@<TRIPOS>BOND
     1    13    14    1
     2    14    12    1
     3    12     8    1
     4     8     9    2
     5     8    10   am
     6    10    11    1
     7    10     1    1
     8     1    21    1
     9    21    22    1
    10    22    23    1
    11    23    24    1
    12    24    25    1
    13    25    26    1
    14    25    27    1
    15     1     2    1
    16     2     3   ar
    17     3     4   ar
    18     4     5   ar
    19     5     6   ar
    20     6     7   ar
    21    14    15    1
    22    15    16   ar
    23    16    17   ar
    24    17    18   ar
    25    18    19   ar
    26    19    20   ar
    27    27    22    1
    28     7     2   ar
    29    20    15   ar
    30    26    28    1
@<TRIPOS>MOLECULE
*****
 28 30 0 0 0
SMALL
GASTEIGER

@<TRIPOS>ATOM
      1 C           5.5182   -1.3837   21.6869 C.3     1  UNL1        0.1139
      2 C           5.1728   -2.4545   20.6948 C.ar    1  UNL1       -0.0029
      3 C           4.3530   -3.6359   21.1215 C.ar    1  UNL1       -0.0026
      4 C           4.0076   -4.7067   20.1295 C.ar    1  UNL1       -0.0003
      5 C           4.4821   -4.5961   18.7108 C.ar    1  UNL1       -0.0000
      6 C           5.3020   -3.4147   18.2842 C.ar    1  UNL1       -0.0003
      7 C           5.6473   -2.3439   19.2762 C.ar    1  UNL1       -0.0026
      8 C           6.0019   -2.0841   24.1415 C.2     1  UNL1        0.2461
      9 O           4.5293   -2.2150   24.3944 O.2     1  UNL1       -0.2730
     10 N           6.4965   -1.6684   22.7877 N.am    1  UNL1       -0.2729
     11 C           7.9691   -1.5376   22.5348 C.3     1  UNL1        0.1152
     12 C           6.9802   -2.3689   25.2424 C.3     1  UNL1        0.1773
     13 C           6.1206   -3.3131   27.5051 C.3     1  UNL1        0.1126
     14 N           6.7553   -3.5311   26.1636 N.pl3   1  UNL1       -0.2980
     15 C           7.1650   -4.9115   25.7432 C.ar    1  UNL1        0.0482
     16 C           6.8600   -6.0857   26.6253 C.ar    1  UNL1        0.0145
     17 C           7.2697   -7.4660   26.2050 C.ar    1  UNL1        0.0013
     18 C           7.9845   -7.6722   24.9024 C.ar    1  UNL1        0.0001
     19 C           8.2895   -6.4981   24.0203 C.ar    1  UNL1        0.0013
     20 C           7.8798   -5.1176   24.4406 C.ar    1  UNL1        0.0145
     21 C           4.8853   -0.0281   21.5780 C.3     1  UNL1        0.0968
     22 N           3.5689    0.1309   20.8766 N.3     1  UNL1       -0.2689
     23 C           3.3628    0.7143   19.5102 C.3     1  UNL1        0.0748
     24 C           1.8940    0.6784   19.2076 C.3     1  UNL1        0.0480
     25 C           1.1925    0.0728   20.3871 C.3     1  UNL1        0.1278
     26 O          -0.2848   -0.1545   20.5130 O.3     1  UNL1       -0.3830
     27 C           2.2276   -0.2655   21.4186 C.3     1  UNL1        0.1017
     28 H          -0.7289    0.1522   19.7070 H       1  UNL1        0.2104
@<TRIPOS>BOND
     1    13    14    1
     2    14    12    1
     3    12     8    1
     4     8     9    2
     5     8    10   am
     6    10    11    1
     7    10     1    1
     8     1    21    1
     9    21    22    1
    10    22    23    1
    11    23    24    1
    12    24    25    1
    13    25    26    1
    14    25    27    1
    15     1     2    1
    16     2     3   ar
    17     3     4   ar
    18     4     5   ar
    19     5     6   ar
    20     6     7   ar
    21    14    15    1
    22    15    16   ar
    23    16    17   ar
    24    17    18   ar
    25    18    19   ar
    26    19    20   ar
    27    27    22    1
    28     7     2   ar
    29    20    15   ar
    30    26    28    1
@<TRIPOS>MOLECULE
*****
 28 30 0 0 0
SMALL
GASTEIGER

@<TRIPOS>ATOM
      1 C           3.6355    2.4715   36.8709 C.3     1  UNL1        0.1139
      2 C           2.6228    2.0553   37.8963 C.ar    1  UNL1       -0.0029
      3 C           2.7130    0.7000   38.5325 C.ar    1  UNL1       -0.0026
      4 C           1.7004    0.2839   39.5578 C.ar    1  UNL1       -0.0003
      5 C           0.5975    1.2232   39.9469 C.ar    1  UNL1       -0.0000
      6 C           0.5073    2.5785   39.3108 C.ar    1  UNL1       -0.0003
      7 C           1.5200    2.9946   38.2854 C.ar    1  UNL1       -0.0026
      8 C           2.5191    3.5598   34.7926 C.2     1  UNL1        0.2461
      9 O           1.9075    2.2392   34.4295 O.2     1  UNL1       -0.2730
     10 N           3.3831    3.6760   36.0133 N.am    1  UNL1       -0.2729
     11 C           3.9947    4.9966   36.3764 C.3     1  UNL1        0.1152
     12 C           2.2667    4.7644   33.9350 C.3     1  UNL1        0.1773
     13 C           0.3106    4.6899   32.2267 C.3     1  UNL1        0.1126
     14 N           0.8639    5.1300   33.5497 N.pl3   1  UNL1       -0.2980
     15 C           0.0145    5.9359   34.4872 C.ar    1  UNL1        0.0482
     16 C          -1.3044    6.4802   34.0243 C.ar    1  UNL1        0.0145
     17 C          -2.1538    7.2861   34.9619 C.ar    1  UNL1        0.0013
     18 C          -1.6845    7.5476   36.3623 C.ar    1  UNL1        0.0001
     19 C          -0.3656    7.0032   36.8252 C.ar    1  UNL1        0.0013
     20 C           0.4839    6.1974   35.8877 C.ar    1  UNL1        0.0145
     21 C           4.9005    1.6831   36.7031 C.3     1  UNL1        0.0968
     22 N           5.0173    0.6794   35.5944 N.3     1  UNL1       -0.2689
     23 C           5.9311    0.7777   34.4090 C.3     1  UNL1        0.0748
     24 C           5.7194   -0.4397   33.5585 C.3     1  UNL1        0.0480
     25 C           4.6748   -1.2903   34.2184 C.3     1  UNL1        0.1278
     26 O           4.1554   -2.6021   33.7095 O.3     1  UNL1       -0.3830
     27 C           4.2410   -0.5986   35.4767 C.3     1  UNL1        0.1017
     28 H           4.6005   -2.8250   32.8769 H       1  UNL1        0.2104
@<TRIPOS>BOND
     1    13    14    1
     2    14    12    1
     3    12     8    1
     4     8     9    2
     5     8    10   am
     6    10    11    1
     7    10     1    1
     8     1    21    1
     9    21    22    1
    10    22    23    1
    11    23    24    1
    12    24    25    1
    13    25    26    1
    14    25    27    1
    15     1     2    1
    16     2     3   ar
    17     3     4   ar
    18     4     5   ar
    19     5     6   ar
    20     6     7   ar
    21    14    15    1
    22    15    16   ar
    23    16    17   ar
    24    17    18   ar
    25    18    19   ar
    26    19    20   ar
    27    27    22    1
    28     7     2   ar
    29    20    15   ar
    30    26    28    1
@<TRIPOS>MOLECULE
*****
 28 30 0 0 0
SMALL
GASTEIGER

@<TRIPOS>ATOM
      1 C           4.2765   -2.5501   21.4872 C.3     1  UNL1        0.1139
      2 C           3.5612   -1.5048   22.2909 C.ar    1  UNL1       -0.0029
      3 C           2.6015   -0.5684   21.6186 C.ar    1  UNL1       -0.0026
      4 C           1.8862    0.4768   22.4223 C.ar    1  UNL1       -0.0003
      5 C           2.1306    0.5855   23.8983 C.ar    1  UNL1       -0.0000
      6 C           3.0903   -0.3510   24.5705 C.ar    1  UNL1       -0.0003
      7 C           3.8056   -1.3961   23.7669 C.ar    1  UNL1       -0.0026
      8 C           5.5920   -1.2910   19.6340 C.2     1  UNL1        0.2461
      9 O           6.3250   -0.5105   20.6845 O.2     1  UNL1       -0.2730
     10 N           4.5677   -2.3107   20.0353 N.am    1  UNL1       -0.2729
     11 C           3.8347   -3.0912   18.9848 C.3     1  UNL1        0.1152
     12 C           5.8832   -1.0516   18.1821 C.3     1  UNL1        0.1773
     13 C           6.3333    0.8541   16.4746 C.3     1  UNL1        0.1126
     14 N           5.4721    0.2389   17.5375 N.pl3   1  UNL1       -0.2980
     15 C           4.1997    0.9142   17.9559 C.ar    1  UNL1        0.0482
     16 C           4.2273    2.3355   18.4346 C.ar    1  UNL1        0.0145
     17 C           2.9550    3.0109   18.8529 C.ar    1  UNL1        0.0013
     18 C           1.6550    2.2649   18.7926 C.ar    1  UNL1        0.0001
     19 C           1.6274    0.8436   18.3140 C.ar    1  UNL1        0.0013
     20 C           2.8998    0.1682   17.8956 C.ar    1  UNL1        0.0145
     21 C           4.7007   -3.8345   22.1354 C.3     1  UNL1        0.0968
     22 N           6.1493   -4.2234   22.1526 N.3     1  UNL1       -0.2689
     23 C           7.0126   -4.3543   23.3723 C.3     1  UNL1        0.0748
     24 C           8.3858   -4.7614   22.9267 C.3     1  UNL1        0.0480
     25 C           8.3712   -4.8820   21.4316 C.3     1  UNL1        0.1278
     26 O           9.5345   -5.2675   20.5668 O.3     1  UNL1       -0.3830
     27 C           6.9890   -4.5495   20.9532 C.3     1  UNL1        0.1017
     28 H          10.3116   -5.4304   21.1240 H       1  UNL1        0.2104
@<TRIPOS>BOND
     1    13    14    1
     2    14    12    1
     3    12     8    1
     4     8     9    2
     5     8    10   am
     6    10    11    1
     7    10     1    1
     8     1    21    1
     9    21    22    1
    10    22    23    1
    11    23    24    1
    12    24    25    1
    13    25    26    1
    14    25    27    1
    15     1     2    1
    16     2     3   ar
    17     3     4   ar
    18     4     5   ar
    19     5     6   ar
    20     6     7   ar
    21    14    15    1
    22    15    16   ar
    23    16    17   ar
    24    17    18   ar
    25    18    19   ar
    26    19    20   ar
    27    27    22    1
    28     7     2   ar
    29    20    15   ar
    30    26    28    1
@<TRIPOS>MOLECULE
*****
 28 30 0 0 0
SMALL
GASTEIGER

@<TRIPOS>ATOM
      1 C           6.8116   -2.7378   24.0775 C.3     1  UNL1        0.1139
      2 C           5.6617   -2.0286   24.7295 C.ar    1  UNL1       -0.0029
      3 C           5.5418   -2.0111   26.2245 C.ar    1  UNL1       -0.0026
      4 C           4.3920   -1.3019   26.8764 C.ar    1  UNL1       -0.0003
      5 C           3.3621   -0.6103   26.0332 C.ar    1  UNL1       -0.0000
      6 C           3.4820   -0.6278   24.5382 C.ar    1  UNL1       -0.0003
      7 C           4.6318   -1.3370   23.8863 C.ar    1  UNL1       -0.0026
      8 C           6.0797   -3.5752   21.7295 C.2     1  UNL1        0.2461
      9 O           5.0522   -4.4632   22.3664 O.2     1  UNL1       -0.2730
     10 N           6.9594   -2.7125   22.5850 N.am    1  UNL1       -0.2729
     11 C           7.9868   -1.8245   21.9481 C.3     1  UNL1        0.1152
     12 C           6.2275   -3.5498   20.2370 C.3     1  UNL1        0.1773
     13 C           4.6027   -4.9314   18.7533 C.3     1  UNL1        0.1126
     14 N           5.0117   -3.6226   19.3616 N.pl3   1  UNL1       -0.2980
     15 C           4.2048   -2.3867   19.0943 C.ar    1  UNL1        0.0482
     16 C           4.4255   -1.6050   17.8332 C.ar    1  UNL1        0.0145
     17 C           3.6187   -0.3691   17.5660 C.ar    1  UNL1        0.0013
     18 C           2.5911    0.0852   18.5598 C.ar    1  UNL1        0.0001
     19 C           2.3704   -0.6964   19.8209 C.ar    1  UNL1        0.0013
     20 C           3.1772   -1.9324   20.0882 C.ar    1  UNL1        0.0145
     21 C           7.8135   -3.4724   24.9181 C.3     1  UNL1        0.0968
     22 N           7.7915   -4.9713   24.9729 N.3     1  UNL1       -0.2689
     23 C           8.3168   -5.8998   23.9185 C.3     1  UNL1        0.0748
     24 C           8.0903   -7.3072   24.3857 C.3     1  UNL1        0.0480
     25 C           7.4250   -7.2483   25.7288 C.3     1  UNL1        0.1278
     26 O           7.0161   -8.4261   26.5626 O.3     1  UNL1       -0.3830
     27 C           7.2403   -5.8046   26.0917 C.3     1  UNL1        0.1017
     28 H           7.2482   -9.2462   26.0995 H       1  UNL1        0.2104
@<TRIPOS>BOND
     1    13    14    1
     2    14    12    1
     3    12     8    1
     4     8     9    2
     5     8    10   am
     6    10    11    1
     7    10     1    1
     8     1    21    1
     9    21    22    1
    10    22    23    1
    11    23    24    1
    12    24    25    1
    13    25    26    1
    14    25    27    1
    15     1     2    1
    16     2     3   ar
    17     3     4   ar
    18     4     5   ar
    19     5     6   ar
    20     6     7   ar
    21    14    15    1
    22    15    16   ar
    23    16    17   ar
    24    17    18   ar
    25    18    19   ar
    26    19    20   ar
    27    27    22    1
    28     7     2   ar
    29    20    15   ar
    30    26    28    1
