@<TRIPOS>MOLECULE
*****
 33 37 0 0 0
SMALL
GASTEIGER

@<TRIPOS>ATOM
      1 C           6.4596   -2.2002   24.6049 C.ar    1  UNL1        0.3235
      2 N           5.9657   -2.2012   23.1887 N.ar    1  UNL1       -0.1753
      3 C           6.0814   -3.4428   22.3548 C.ar    1  UNL1        0.1665
      4 N           6.6911   -4.6833   22.9374 N.ar    1  UNL1       -0.1946
      5 C           7.1851   -4.6822   24.3537 C.ar    1  UNL1        0.2255
      6 N           7.0693   -3.4407   25.1876 N.ar    1  UNL1       -0.1610
      7 C           5.5875   -3.4438   20.9385 C.2     1  UNL1        0.0249
      8 C           4.2885   -4.1120   20.5977 C.2     1  UNL1       -0.0005
      9 C           3.7946   -4.1130   19.1814 C.2     1  UNL1        0.0011
     10 C           4.5995   -3.4457   18.1058 C.2     1  UNL1        0.0172
     11 C           5.8985   -2.7775   18.4466 C.2     1  UNL1        0.0900
     12 N           6.9010   -2.0444   17.6055 N.2     1  UNL1       -0.1519
     13 N           8.0146   -1.5904   18.5020 N.2     1  UNL1       -0.1507
     14 C           7.7003   -2.0428   19.8972 C.2     1  UNL1        0.1058
     15 C           6.3924   -2.7765   19.8630 C.3     1  UNL1        0.1103
     16 N           7.7948   -5.9228   24.9363 N.pl3   1  UNL1       -0.2729
     17 C           7.2885   -6.4665   26.2395 C.3     1  UNL1        0.1257
     18 C           7.8983   -7.7071   26.8220 C.3     1  UNL1        0.1637
     19 O           9.0142   -8.4038   26.1013 O.3     1  UNL1       -0.3501
     20 C           9.5204   -7.8601   24.7982 C.3     1  UNL1        0.1637
     21 C           8.9107   -6.6196   24.2157 C.3     1  UNL1        0.1257
     22 O           6.3439   -0.9587   25.4387 O.3     1  UNL1       -0.4503
     23 C          -0.9453    0.8766   29.0786 C.3     1  UNL1        0.1165
     24 N           0.2742    0.6507   28.2352 N.am    1  UNL1       -0.2605
     25 C           0.3028    1.1302   26.8142 C.3     1  UNL1        0.1165
     26 C           1.4654   -0.0548   28.8127 C.2     1  UNL1        0.3073
     27 O           1.4369   -0.5344   30.2337 O.2     1  UNL1       -0.2523
     28 N           2.6850   -0.2808   27.9692 N.am    1  UNL1       -0.2638
     29 C           2.7135    0.1987   26.5483 C.3     1  UNL1        0.0987
     30 C           3.9331   -0.0272   25.7047 C.3     1  UNL1        0.0652
     31 C           5.1242   -0.7327   26.2822 C.3     1  UNL1        0.1725
     32 C           5.0957   -1.2122   27.7032 C.3     1  UNL1        0.0652
     33 C           3.8762   -0.9863   28.5467 C.3     1  UNL1        0.0987
@<TRIPOS>BOND
     1    23    24    1
     2    24    25    1
     3    24    26   am
     4    26    27    2
     5    26    28   am
     6    28    29    1
     7    29    30    1
     8    30    31    1
     9    31    22    1
    10    22     1    1
    11     1     2   ar
    12     2     3   ar
    13     3     7    1
    14     7     8    2
    15     8     9    1
    16     9    10    2
    17    10    11    1
    18    11    12    2
    19    12    13    1
    20    13    14    2
    21    14    15    1
    22     3     4   ar
    23     4     5   ar
    24     5    16    1
    25    16    17    1
    26    17    18    1
    27    18    19    1
    28    19    20    1
    29    20    21    1
    30     5     6   ar
    31    31    32    1
    32    32    33    1
    33    33    28    1
    34     6     1   ar
    35    15     7    1
    36    21    16    1
    37    15    11    1
@<TRIPOS>MOLECULE
*****
 33 37 0 0 0
SMALL
GASTEIGER

@<TRIPOS>ATOM
      1 C           6.3078   -2.0890   24.5645 C.ar    1  UNL1        0.3235
      2 N           5.8141   -2.1484   23.1494 N.ar    1  UNL1       -0.1753
      3 C           5.9277   -3.4240   22.3683 C.ar    1  UNL1        0.1665
      4 N           6.5350   -4.6402   23.0024 N.ar    1  UNL1       -0.1946
      5 C           7.0287   -4.5807   24.4176 C.ar    1  UNL1        0.2255
      6 N           6.9151   -3.3052   25.1987 N.ar    1  UNL1       -0.1610
      7 C           5.4340   -3.4834   20.9531 C.2     1  UNL1        0.0249
      8 C           4.1289   -4.1540   20.6416 C.2     1  UNL1       -0.0005
      9 C           3.6351   -4.2134   19.2265 C.2     1  UNL1        0.0011
     10 C           4.4465   -3.6022   18.1227 C.2     1  UNL1        0.0172
     11 C           5.7516   -2.9316   18.4342 C.2     1  UNL1        0.0900
     12 N           6.7611   -2.2461   17.5619 N.2     1  UNL1       -0.1519
     13 N           7.8788   -1.7631   18.4380 N.2     1  UNL1       -0.1507
     14 C           7.5600   -2.1500   19.8517 C.2     1  UNL1        0.1058
     15 C           6.2453   -2.8722   19.8494 C.3     1  UNL1        0.1103
     16 N           7.6360   -5.7969   25.0517 N.pl3   1  UNL1       -0.2729
     17 C           8.6096   -6.6380   24.2804 C.3     1  UNL1        0.1257
     18 C           9.2169   -7.8542   24.9146 C.3     1  UNL1        0.1637
     19 O           8.8505   -8.2293   26.3200 O.3     1  UNL1       -0.3501
     20 C           7.8770   -7.3883   27.0912 C.3     1  UNL1        0.1637
     21 C           7.2697   -6.1721   26.4571 C.3     1  UNL1        0.1257
     22 O           6.1943   -0.8135   25.3455 O.3     1  UNL1       -0.4503
     23 C           4.0531   -0.8302   33.4180 C.3     1  UNL1        0.1165
     24 N           4.6583   -0.8179   32.0456 N.am    1  UNL1       -0.2605
     25 C           6.1484   -0.7608   31.8835 C.3     1  UNL1        0.1165
     26 C           3.7734   -0.8626   30.8352 C.2     1  UNL1        0.3073
     27 O           2.2833   -0.9197   30.9973 O.2     1  UNL1       -0.2523
     28 N           4.3786   -0.8504   29.4628 N.am    1  UNL1       -0.2638
     29 C           5.8687   -0.7933   29.3007 C.3     1  UNL1        0.0987
     30 C           6.4740   -0.7810   27.9283 C.3     1  UNL1        0.0652
     31 C           5.5891   -0.8258   26.7180 C.3     1  UNL1        0.1725
     32 C           4.0989   -0.8828   26.8801 C.3     1  UNL1        0.0652
     33 C           3.4937   -0.8951   28.2524 C.3     1  UNL1        0.0987
@<TRIPOS>BOND
     1    23    24    1
     2    24    25    1
     3    24    26   am
     4    26    27    2
     5    26    28   am
     6    28    29    1
     7    29    30    1
     8    30    31    1
     9    31    22    1
    10    22     1    1
    11     1     2   ar
    12     2     3   ar
    13     3     7    1
    14     7     8    2
    15     8     9    1
    16     9    10    2
    17    10    11    1
    18    11    12    2
    19    12    13    1
    20    13    14    2
    21    14    15    1
    22     3     4   ar
    23     4     5   ar
    24     5    16    1
    25    16    17    1
    26    17    18    1
    27    18    19    1
    28    19    20    1
    29    20    21    1
    30     5     6   ar
    31    31    32    1
    32    32    33    1
    33    33    28    1
    34     6     1   ar
    35    15     7    1
    36    21    16    1
    37    15    11    1
@<TRIPOS>MOLECULE
*****
 33 37 0 0 0
SMALL
GASTEIGER

@<TRIPOS>ATOM
      1 C           1.9281    1.9780   20.0725 C.ar    1  UNL1        0.3235
      2 N           2.5942    0.7938   19.4371 N.ar    1  UNL1       -0.1753
      3 C           3.0347   -0.3630   20.2843 C.ar    1  UNL1        0.1665
      4 N           2.8092   -0.3356   21.7670 N.ar    1  UNL1       -0.1946
      5 C           2.1431    0.8487   22.4025 C.ar    1  UNL1        0.2255
      6 N           1.7025    2.0055   21.5553 N.ar    1  UNL1       -0.1610
      7 C           3.7009   -1.5473   19.6488 C.2     1  UNL1        0.0249
      8 C           3.1283   -2.9208   19.8379 C.2     1  UNL1       -0.0005
      9 C           3.7944   -4.1049   19.2024 C.2     1  UNL1        0.0011
     10 C           5.0331   -3.9158   18.3778 C.2     1  UNL1        0.0172
     11 C           5.6056   -2.5423   18.1887 C.2     1  UNL1        0.0900
     12 N           6.8059   -2.0502   17.4357 N.2     1  UNL1       -0.1519
     13 N           6.8817   -0.5619   17.6058 N.2     1  UNL1       -0.1507
     14 C           5.7282   -0.1341   18.4640 C.2     1  UNL1        0.1058
     15 C           4.9395   -1.3581   18.8242 C.3     1  UNL1        0.1103
     16 N           1.9176    0.8762   23.8851 N.pl3   1  UNL1       -0.2729
     17 C           0.5891    1.3055   24.4339 C.3     1  UNL1        0.1257
     18 C           0.3636    1.3329   25.9167 C.3     1  UNL1        0.1637
     19 O           1.4665    0.9311   26.8505 O.3     1  UNL1       -0.3501
     20 C           2.7949    0.5018   26.3018 C.3     1  UNL1        0.1637
     21 C           3.0204    0.4744   24.8191 C.3     1  UNL1        0.1257
     22 O           1.4875    3.1348   19.2254 O.3     1  UNL1       -0.4503
     23 C          -6.8142    3.9884   18.9053 C.3     1  UNL1        0.1165
     24 N          -5.3562    3.7776   19.1873 N.am    1  UNL1       -0.2605
     25 C          -4.9092    3.3669   20.5589 C.3     1  UNL1        0.1165
     26 C          -4.3449    3.9777   18.0975 C.2     1  UNL1        0.3073
     27 O          -4.7919    4.3884   16.7259 O.2     1  UNL1       -0.2523
     28 N          -2.8869    3.7670   18.3795 N.am    1  UNL1       -0.2638
     29 C          -2.4399    3.3562   19.7511 C.3     1  UNL1        0.0987
     30 C          -0.9818    3.1455   20.0332 C.3     1  UNL1        0.0652
     31 C           0.0294    3.3455   18.9434 C.3     1  UNL1        0.1725
     32 C          -0.4176    3.7563   17.5718 C.3     1  UNL1        0.0652
     33 C          -1.8756    3.9670   17.2897 C.3     1  UNL1        0.0987
@<TRIPOS>BOND
     1    23    24    1
     2    24    25    1
     3    24    26   am
     4    26    27    2
     5    26    28   am
     6    28    29    1
     7    29    30    1
     8    30    31    1
     9    31    22    1
    10    22     1    1
    11     1     2   ar
    12     2     3   ar
    13     3     7    1
    14     7     8    2
    15     8     9    1
    16     9    10    2
    17    10    11    1
    18    11    12    2
    19    12    13    1
    20    13    14    2
    21    14    15    1
    22     3     4   ar
    23     4     5   ar
    24     5    16    1
    25    16    17    1
    26    17    18    1
    27    18    19    1
    28    19    20    1
    29    20    21    1
    30     5     6   ar
    31    31    32    1
    32    32    33    1
    33    33    28    1
    34     6     1   ar
    35    15     7    1
    36    21    16    1
    37    15    11    1
@<TRIPOS>MOLECULE
*****
 33 37 0 0 0
SMALL
GASTEIGER

@<TRIPOS>ATOM
      1 C          -0.0300    2.8345   23.0763 C.ar    1  UNL1        0.3235
      2 N          -1.4371    3.3509   23.1319 N.ar    1  UNL1       -0.1753
      3 C          -2.2583    3.1584   24.3724 C.ar    1  UNL1        0.1665
      4 N          -1.6722    2.4495   25.5573 N.ar    1  UNL1       -0.1946
      5 C          -0.2650    1.9330   25.5016 C.ar    1  UNL1        0.2255
      6 N           0.5561    2.1255   24.2612 N.ar    1  UNL1       -0.1610
      7 C          -3.6655    3.6749   24.4280 C.2     1  UNL1        0.0249
      8 C          -4.6104    3.4005   23.2958 C.2     1  UNL1       -0.0005
      9 C          -6.0175    3.9169   23.3513 C.2     1  UNL1        0.0011
     10 C          -6.4799    4.7078   24.5391 C.2     1  UNL1        0.0172
     11 C          -5.5350    4.9823   25.6713 C.2     1  UNL1        0.0900
     12 N          -5.7049    5.7268   26.9623 N.2     1  UNL1       -0.1519
     13 N          -4.4027    5.6705   27.7046 N.2     1  UNL1       -0.1507
     14 C          -3.4280    4.8912   26.8724 C.2     1  UNL1        0.1058
     15 C          -4.1278    4.4658   25.6157 C.3     1  UNL1        0.1103
     16 N           0.3211    1.2241   26.6865 N.pl3   1  UNL1       -0.2729
     17 C           1.8038    1.0156   26.7779 C.3     1  UNL1        0.1257
     18 C           2.3898    0.3067   27.9629 C.3     1  UNL1        0.1637
     19 O           1.4932   -0.1938   29.0562 O.3     1  UNL1       -0.3501
     20 C           0.0105    0.0147   28.9648 C.3     1  UNL1        0.1637
     21 C          -0.5755    0.7236   27.7800 C.3     1  UNL1        0.1257
     22 O           0.7911    3.0270   21.8359 O.3     1  UNL1       -0.4503
     23 C           5.8682   -2.5919   18.3145 C.3     1  UNL1        0.1165
     24 N           5.1314   -1.4310   18.9138 N.am    1  UNL1       -0.2605
     25 C           5.7873   -0.0841   18.9881 C.3     1  UNL1        0.1165
     26 C           3.7386   -1.6169   19.4388 C.2     1  UNL1        0.3073
     27 O           3.0827   -2.9639   19.3645 O.2     1  UNL1       -0.2523
     28 N           3.0017   -0.4560   20.0380 N.am    1  UNL1       -0.2638
     29 C           3.6576    0.8909   20.1123 C.3     1  UNL1        0.0987
     30 C           2.9208    2.0520   20.7116 C.3     1  UNL1        0.0652
     31 C           1.5280    1.8660   21.2366 C.3     1  UNL1        0.1725
     32 C           0.8721    0.5190   21.1623 C.3     1  UNL1        0.0652
     33 C           1.6089   -0.6420   20.5631 C.3     1  UNL1        0.0987
@<TRIPOS>BOND
     1    23    24    1
     2    24    25    1
     3    24    26   am
     4    26    27    2
     5    26    28   am
     6    28    29    1
     7    29    30    1
     8    30    31    1
     9    31    22    1
    10    22     1    1
    11     1     2   ar
    12     2     3   ar
    13     3     7    1
    14     7     8    2
    15     8     9    1
    16     9    10    2
    17    10    11    1
    18    11    12    2
    19    12    13    1
    20    13    14    2
    21    14    15    1
    22     3     4   ar
    23     4     5   ar
    24     5    16    1
    25    16    17    1
    26    17    18    1
    27    18    19    1
    28    19    20    1
    29    20    21    1
    30     5     6   ar
    31    31    32    1
    32    32    33    1
    33    33    28    1
    34     6     1   ar
    35    15     7    1
    36    21    16    1
    37    15    11    1
@<TRIPOS>MOLECULE
*****
 33 37 0 0 0
SMALL
GASTEIGER

@<TRIPOS>ATOM
      1 C          -0.2847    2.5715   23.2003 C.ar    1  UNL1        0.3235
      2 N          -1.5655    3.2656   23.5575 N.ar    1  UNL1       -0.1753
      3 C          -2.0794    3.2134   24.9658 C.ar    1  UNL1        0.1665
      4 N          -1.3125    2.4671   26.0169 N.ar    1  UNL1       -0.1946
      5 C          -0.0316    1.7729   25.6596 C.ar    1  UNL1        0.2255
      6 N           0.4823    1.8251   24.2514 N.ar    1  UNL1       -0.1610
      7 C          -3.3602    3.9076   25.3230 C.2     1  UNL1        0.0249
      8 C          -3.4865    4.6188   26.6376 C.2     1  UNL1       -0.0005
      9 C          -4.7673    5.3130   26.9948 C.2     1  UNL1        0.0011
     10 C          -5.9219    5.2960   26.0374 C.2     1  UNL1        0.0172
     11 C          -5.7956    4.5848   24.7228 C.2     1  UNL1        0.0900
     12 N          -6.7561    4.3994   23.5856 N.2     1  UNL1       -0.1519
     13 N          -6.0689    3.5907   22.5256 N.2     1  UNL1       -0.1507
     14 C          -4.6837    3.2762   23.0076 C.2     1  UNL1        0.1058
     15 C          -4.5148    3.8906   24.3656 C.3     1  UNL1        0.1103
     16 N           0.7353    1.0266   26.7107 N.pl3   1  UNL1       -0.2729
     17 C           2.1941    0.7389   26.5123 C.3     1  UNL1        0.1257
     18 C           2.9611   -0.0075   27.5635 C.3     1  UNL1        0.1637
     19 O           2.2692   -0.4662   28.8128 O.3     1  UNL1       -0.3501
     20 C           0.8105   -0.1785   29.0112 C.3     1  UNL1        0.1637
     21 C           0.0435    0.5679   27.9601 C.3     1  UNL1        0.1257
     22 O           0.2292    2.6236   21.7921 O.3     1  UNL1       -0.4503
     23 C           6.1857   -2.6365   19.2232 C.3     1  UNL1        0.1165
     24 N           5.2921   -1.5466   19.7362 N.am    1  UNL1       -0.2605
     25 C           5.8863   -0.2671   20.2459 C.3     1  UNL1        0.1165
     26 C           3.8040   -1.7361   19.7397 C.2     1  UNL1        0.3073
     27 O           3.2098   -3.0156   19.2301 O.2     1  UNL1       -0.2523
     28 N           2.9104   -0.6463   20.2528 N.am    1  UNL1       -0.2638
     29 C           3.5046    0.6332   20.7624 C.3     1  UNL1        0.0987
     30 C           2.6109    1.7233   21.2755 C.3     1  UNL1        0.0652
     31 C           1.1229    1.5337   21.2790 C.3     1  UNL1        0.1725
     32 C           0.5287    0.2542   20.7693 C.3     1  UNL1        0.0652
     33 C           1.4223   -0.8358   20.2562 C.3     1  UNL1        0.0987
@<TRIPOS>BOND
     1    23    24    1
     2    24    25    1
     3    24    26   am
     4    26    27    2
     5    26    28   am
     6    28    29    1
     7    29    30    1
     8    30    31    1
     9    31    22    1
    10    22     1    1
    11     1     2   ar
    12     2     3   ar
    13     3     7    1
    14     7     8    2
    15     8     9    1
    16     9    10    2
    17    10    11    1
    18    11    12    2
    19    12    13    1
    20    13    14    2
    21    14    15    1
    22     3     4   ar
    23     4     5   ar
    24     5    16    1
    25    16    17    1
    26    17    18    1
    27    18    19    1
    28    19    20    1
    29    20    21    1
    30     5     6   ar
    31    31    32    1
    32    32    33    1
    33    33    28    1
    34     6     1   ar
    35    15     7    1
    36    21    16    1
    37    15    11    1
@<TRIPOS>MOLECULE
*****
 33 37 0 0 0
SMALL
GASTEIGER

@<TRIPOS>ATOM
      1 C          -0.3146    2.6586   22.8417 C.ar    1  UNL1        0.3235
      2 N           0.5748    2.0195   23.8664 N.ar    1  UNL1       -0.1753
      3 C           0.1544    1.9823   25.3059 C.ar    1  UNL1        0.1665
      4 N          -1.1555    2.5841   25.7205 N.ar    1  UNL1       -0.1946
      5 C          -2.0450    3.2233   24.6956 C.ar    1  UNL1        0.2255
      6 N          -1.6246    3.2606   23.2562 N.ar    1  UNL1       -0.1610
      7 C           1.0439    1.3431   26.3307 C.2     1  UNL1        0.0249
      8 C           2.5168    1.2218   26.0744 C.2     1  UNL1       -0.0005
      9 C           3.4063    0.5826   27.0991 C.2     1  UNL1        0.0011
     10 C           2.8229    0.0648   28.3804 C.2     1  UNL1        0.0172
     11 C           1.3500    0.1861   28.6367 C.2     1  UNL1        0.0900
     12 N           0.4958   -0.2292   29.7977 N.2     1  UNL1       -0.1519
     13 N          -0.9217    0.1534   29.4904 N.2     1  UNL1       -0.1507
     14 C          -0.9435    0.8050   28.1395 C.2     1  UNL1        0.1058
     15 C           0.4605    0.8253   27.6119 C.3     1  UNL1        0.1103
     16 N          -3.3549    3.8252   25.1101 N.pl3   1  UNL1       -0.2729
     17 C          -4.4903    3.8967   24.1324 C.3     1  UNL1        0.1257
     18 C          -5.8003    4.4986   24.5471 C.3     1  UNL1        0.1637
     19 O          -5.9747    5.0289   25.9393 O.3     1  UNL1       -0.3501
     20 C          -4.8393    4.9574   26.9169 C.3     1  UNL1        0.1637
     21 C          -3.5294    4.3555   26.5024 C.3     1  UNL1        0.1257
     22 O           0.1058    2.6959   21.4023 O.3     1  UNL1       -0.4503
     23 C           6.0354   -2.2656   18.2444 C.3     1  UNL1        0.1165
     24 N           5.1276   -1.2027   18.7884 N.am    1  UNL1       -0.2605
     25 C           5.6102    0.2136   18.8943 C.3     1  UNL1        0.1165
     26 C           3.7372   -1.5560   19.2265 C.2     1  UNL1        0.3073
     27 O           3.2546   -2.9723   19.1206 O.2     1  UNL1       -0.2523
     28 N           2.8294   -0.4930   19.7704 N.am    1  UNL1       -0.2638
     29 C           3.3119    0.9233   19.8763 C.3     1  UNL1        0.0987
     30 C           2.4041    1.9863   20.4203 C.3     1  UNL1        0.0652
     31 C           1.0137    1.6330   20.8583 C.3     1  UNL1        0.1725
     32 C           0.5311    0.2167   20.7524 C.3     1  UNL1        0.0652
     33 C           1.4389   -0.8463   20.2085 C.3     1  UNL1        0.0987
@<TRIPOS>BOND
     1    23    24    1
     2    24    25    1
     3    24    26   am
     4    26    27    2
     5    26    28   am
     6    28    29    1
     7    29    30    1
     8    30    31    1
     9    31    22    1
    10    22     1    1
    11     1     2   ar
    12     2     3   ar
    13     3     7    1
    14     7     8    2
    15     8     9    1
    16     9    10    2
    17    10    11    1
    18    11    12    2
    19    12    13    1
    20    13    14    2
    21    14    15    1
    22     3     4   ar
    23     4     5   ar
    24     5    16    1
    25    16    17    1
    26    17    18    1
    27    18    19    1
    28    19    20    1
    29    20    21    1
    30     5     6   ar
    31    31    32    1
    32    32    33    1
    33    33    28    1
    34     6     1   ar
    35    15     7    1
    36    21    16    1
    37    15    11    1
@<TRIPOS>MOLECULE
*****
 33 37 0 0 0
SMALL
GASTEIGER

@<TRIPOS>ATOM
      1 C          -0.9509    3.6818   23.1609 C.ar    1  UNL1        0.3235
      2 N          -2.3105    3.9838   22.6043 N.ar    1  UNL1       -0.1753
      3 C          -2.7126    3.4349   21.2674 C.ar    1  UNL1        0.1665
      4 N          -1.7549    2.5840   20.4872 N.ar    1  UNL1       -0.1946
      5 C          -0.3951    2.2819   21.0440 C.ar    1  UNL1        0.2255
      6 N           0.0069    2.8308   22.3808 N.ar    1  UNL1       -0.1610
      7 C          -4.0723    3.7370   20.7107 C.2     1  UNL1        0.0249
      8 C          -4.3069    3.6773   19.2304 C.2     1  UNL1       -0.0005
      9 C          -5.6665    3.9794   18.6737 C.2     1  UNL1        0.0011
     10 C          -6.7918    4.3412   19.5973 C.2     1  UNL1        0.0172
     11 C          -6.5572    4.4009   21.0777 C.2     1  UNL1        0.0900
     12 N          -7.4664    4.7258   22.2256 N.2     1  UNL1       -0.1519
     13 N          -6.6686    4.6244   23.4918 N.2     1  UNL1       -0.1507
     14 C          -5.2663    4.2369   23.1264 C.2     1  UNL1        0.1058
     15 C          -5.1974    4.0988   21.6343 C.3     1  UNL1        0.1103
     16 N           0.5626    1.4309   20.2638 N.pl3   1  UNL1       -0.2729
     17 C           0.6884   -0.0318   20.5717 C.3     1  UNL1        0.1257
     18 C           1.6462   -0.8827   19.7915 C.3     1  UNL1        0.1637
     19 O           2.4780   -0.2710   18.7035 O.3     1  UNL1       -0.3501
     20 C           2.3522    1.1917   18.3956 C.3     1  UNL1        0.1637
     21 C           1.3944    2.0426   19.1758 C.3     1  UNL1        0.1257
     22 O          -0.5489    4.2306   24.4977 O.3     1  UNL1       -0.4503
     23 C           2.6191   -0.6225   30.5111 C.3     1  UNL1        0.1165
     24 N           2.2719    0.3120   29.3904 N.am    1  UNL1       -0.2605
     25 C           3.3562    1.0658   28.6791 C.3     1  UNL1        0.1165
     26 C           0.8402    0.4927   28.9808 C.2     1  UNL1        0.3073
     27 O          -0.2442   -0.2611   29.6921 O.2     1  UNL1       -0.2523
     28 N           0.4929    1.4271   27.8601 N.am    1  UNL1       -0.2638
     29 C           1.5773    2.1809   27.1488 C.3     1  UNL1        0.0987
     30 C           1.2301    3.1155   26.0280 C.3     1  UNL1        0.0652
     31 C          -0.2016    3.2961   25.6185 C.3     1  UNL1        0.1725
     32 C          -1.2859    2.5423   26.3298 C.3     1  UNL1        0.0652
     33 C          -0.9388    1.6079   27.4505 C.3     1  UNL1        0.0987
@<TRIPOS>BOND
     1    23    24    1
     2    24    25    1
     3    24    26   am
     4    26    27    2
     5    26    28   am
     6    28    29    1
     7    29    30    1
     8    30    31    1
     9    31    22    1
    10    22     1    1
    11     1     2   ar
    12     2     3   ar
    13     3     7    1
    14     7     8    2
    15     8     9    1
    16     9    10    2
    17    10    11    1
    18    11    12    2
    19    12    13    1
    20    13    14    2
    21    14    15    1
    22     3     4   ar
    23     4     5   ar
    24     5    16    1
    25    16    17    1
    26    17    18    1
    27    18    19    1
    28    19    20    1
    29    20    21    1
    30     5     6   ar
    31    31    32    1
    32    32    33    1
    33    33    28    1
    34     6     1   ar
    35    15     7    1
    36    21    16    1
    37    15    11    1
@<TRIPOS>MOLECULE
*****
 33 37 0 0 0
SMALL
GASTEIGER

@<TRIPOS>ATOM
      1 C           4.3101    0.1533   25.7970 C.ar    1  UNL1        0.3235
      2 N           4.3977   -0.5360   24.4678 N.ar    1  UNL1       -0.1753
      3 C           3.2202   -0.5254   23.5384 C.ar    1  UNL1        0.1665
      4 N           1.9553    0.1745   23.9384 N.ar    1  UNL1       -0.1946
      5 C           1.8678    0.8638   25.2678 C.ar    1  UNL1        0.2255
      6 N           3.0452    0.8533   26.1971 N.ar    1  UNL1       -0.1610
      7 C           3.3078   -1.2148   22.2091 C.2     1  UNL1        0.0249
      8 C           2.5230   -0.6947   21.0414 C.2     1  UNL1       -0.0005
      9 C           2.6105   -1.3840   19.7121 C.2     1  UNL1        0.0011
     10 C           3.4829   -2.5935   19.5504 C.2     1  UNL1        0.0172
     11 C           4.2677   -3.1136   20.7181 C.2     1  UNL1        0.0900
     12 N           5.2047   -4.2764   20.8597 N.2     1  UNL1       -0.1519
     13 N           5.6962   -4.3056   22.2766 N.2     1  UNL1       -0.1507
     14 C           5.0630   -3.1610   23.0106 C.2     1  UNL1        0.1058
     15 C           4.1801   -2.4243   22.0474 C.3     1  UNL1        0.1103
     16 N           0.6029    1.5638   25.6678 N.pl3   1  UNL1       -0.2729
     17 C           0.0937    1.4472   27.0740 C.3     1  UNL1        0.1257
     18 C          -1.1714    2.1472   27.4740 C.3     1  UNL1        0.1637
     19 O          -1.9270    2.9636   26.4678 O.3     1  UNL1       -0.3501
     20 C          -1.4178    3.0802   25.0617 C.3     1  UNL1        0.1637
     21 C          -0.1529    2.3803   24.6617 C.3     1  UNL1        0.1257
     22 O           5.4875    0.1427   26.7264 O.3     1  UNL1       -0.4503
     23 C           7.3472   -6.1761   31.8609 C.3     1  UNL1        0.1165
     24 N           6.9768   -4.9175   31.1340 N.am    1  UNL1       -0.2605
     25 C           6.6140   -3.6841   31.9067 C.3     1  UNL1        0.1165
     26 C           6.9691   -4.8921   29.6341 C.2     1  UNL1        0.3073
     27 O           7.3319   -6.1254   28.8614 O.2     1  UNL1       -0.2523
     28 N           6.5988   -3.6334   28.9072 N.am    1  UNL1       -0.2638
     29 C           6.2360   -2.4001   29.6800 C.3     1  UNL1        0.0987
     30 C           5.8655   -1.1413   28.9531 C.3     1  UNL1        0.0652
     31 C           5.8579   -1.1160   27.4533 C.3     1  UNL1        0.1725
     32 C           6.2207   -2.3493   26.6806 C.3     1  UNL1        0.0652
     33 C           6.5911   -3.6080   27.4074 C.3     1  UNL1        0.0987
@<TRIPOS>BOND
     1    23    24    1
     2    24    25    1
     3    24    26   am
     4    26    27    2
     5    26    28   am
     6    28    29    1
     7    29    30    1
     8    30    31    1
     9    31    22    1
    10    22     1    1
    11     1     2   ar
    12     2     3   ar
    13     3     7    1
    14     7     8    2
    15     8     9    1
    16     9    10    2
    17    10    11    1
    18    11    12    2
    19    12    13    1
    20    13    14    2
    21    14    15    1
    22     3     4   ar
    23     4     5   ar
    24     5    16    1
    25    16    17    1
    26    17    18    1
    27    18    19    1
    28    19    20    1
    29    20    21    1
    30     5     6   ar
    31    31    32    1
    32    32    33    1
    33    33    28    1
    34     6     1   ar
    35    15     7    1
    36    21    16    1
    37    15    11    1
@<TRIPOS>MOLECULE
*****
 33 37 0 0 0
SMALL
GASTEIGER

@<TRIPOS>ATOM
      1 C          -0.8164    3.5015   22.9712 C.ar    1  UNL1        0.3235
      2 N           0.2268    2.6104   22.3650 N.ar    1  UNL1       -0.1753
      3 C           0.0164    2.0323   20.9969 C.ar    1  UNL1        0.1665
      4 N          -1.2372    2.3454   20.2350 N.ar    1  UNL1       -0.1946
      5 C          -2.2804    3.2366   20.8413 C.ar    1  UNL1        0.2255
      6 N          -2.0701    3.8147   22.2093 N.ar    1  UNL1       -0.1610
      7 C           1.0597    1.1411   20.3907 C.2     1  UNL1        0.0249
      8 C           1.0168   -0.3381   20.6357 C.2     1  UNL1       -0.0005
      9 C           2.0600   -1.2292   20.0296 C.2     1  UNL1        0.0011
     10 C           3.1462   -0.6412   19.1783 C.2     1  UNL1        0.0172
     11 C           3.1890    0.8380   18.9333 C.2     1  UNL1        0.0900
     12 N           4.1313    1.6977   18.1440 N.2     1  UNL1       -0.1519
     13 N           3.6704    3.1202   18.2624 N.2     1  UNL1       -0.1507
     14 C           2.4433    3.1397   19.1249 C.2     1  UNL1        0.1058
     15 C           2.1458    1.7292   19.5395 C.3     1  UNL1        0.1103
     16 N          -3.5340    3.5497   20.0794 N.pl3   1  UNL1       -0.2729
     17 C          -3.4562    3.9263   18.6295 C.3     1  UNL1        0.1257
     18 C          -4.7099    4.2394   17.8676 C.3     1  UNL1        0.1637
     19 O          -6.0412    4.1758   18.5557 O.3     1  UNL1       -0.3501
     20 C          -6.1191    3.7992   20.0055 C.3     1  UNL1        0.1637
     21 C          -4.8654    3.4861   20.7674 C.3     1  UNL1        0.1257
     22 O          -0.6061    4.0796   24.3392 O.3     1  UNL1       -0.4503
     23 C           2.5839   -0.6571   30.4332 C.3     1  UNL1        0.1165
     24 N           2.2336    0.2420   29.2849 N.am    1  UNL1       -0.2605
     25 C           3.3211    0.8999   28.4884 C.3     1  UNL1        0.1165
     26 C           0.7955    0.4832   28.9328 C.2     1  UNL1        0.3073
     27 O          -0.2921   -0.1747   29.7292 O.2     1  UNL1       -0.2523
     28 N           0.4451    1.3823   27.7845 N.am    1  UNL1       -0.2638
     29 C           1.5327    2.0402   26.9880 C.3     1  UNL1        0.0987
     30 C           1.1824    2.9393   25.8396 C.3     1  UNL1        0.0652
     31 C          -0.2556    3.1805   25.4876 C.3     1  UNL1        0.1725
     32 C          -1.3432    2.5226   26.2840 C.3     1  UNL1        0.0652
     33 C          -0.9929    1.6235   27.4324 C.3     1  UNL1        0.0987
@<TRIPOS>BOND
     1    23    24    1
     2    24    25    1
     3    24    26   am
     4    26    27    2
     5    26    28   am
     6    28    29    1
     7    29    30    1
     8    30    31    1
     9    31    22    1
    10    22     1    1
    11     1     2   ar
    12     2     3   ar
    13     3     7    1
    14     7     8    2
    15     8     9    1
    16     9    10    2
    17    10    11    1
    18    11    12    2
    19    12    13    1
    20    13    14    2
    21    14    15    1
    22     3     4   ar
    23     4     5   ar
    24     5    16    1
    25    16    17    1
    26    17    18    1
    27    18    19    1
    28    19    20    1
    29    20    21    1
    30     5     6   ar
    31    31    32    1
    32    32    33    1
    33    33    28    1
    34     6     1   ar
    35    15     7    1
    36    21    16    1
    37    15    11    1
