@<TRIPOS>MOLECULE
*****
 31 35 0 0 0
SMALL
GASTEIGER

@<TRIPOS>ATOM
      1 C           5.4121   -1.4776   32.2328 C.3     1  UNL1        0.0892
      2 C           5.8023   -1.1304   30.8267 C.3     1  UNL1        0.1584
      3 O           6.4420   -2.1647   29.9487 O.3     1  UNL1       -0.3490
      4 C           6.6914   -3.5463   30.4768 C.3     1  UNL1        0.1538
      5 C           6.3011   -3.8936   31.8829 C.3     1  UNL1        0.0841
      6 N           6.5505   -5.2753   32.4110 N.3     1  UNL1       -0.3199
      7 C           5.6615   -2.8592   32.7609 C.3     1  UNL1        0.0368
      8 H           6.9883   -5.8428   31.6852 H       1  UNL1        0.1189
      9 H           5.6645   -5.6993   32.6859 H       1  UNL1        0.1189
     10 C           5.2520    3.1186   39.7895 C.3     1  UNL1        0.0540
     11 C           4.6594    2.8031   38.4481 C.ar    1  UNL1        0.0824
     12 C           3.4367    3.4366   37.8533 C.ar    1  UNL1        0.0552
     13 C           3.2070    2.8237   36.5036 C.ar    1  UNL1        0.1646
     14 N           2.1534    3.0566   35.4617 N.ar    1  UNL1       -0.2252
     15 C           2.1805    2.2773   34.1803 C.ar    1  UNL1        0.0988
     16 C           3.2613    1.2650   33.9409 C.ar    1  UNL1        0.0281
     17 C           4.3149    1.0321   34.9829 C.ar    1  UNL1        0.0771
     18 N           4.2878    1.8115   36.2642 N.ar    1  UNL1       -0.2154
     19 N           5.1854    1.7987   37.4660 N.ar    1  UNL1       -0.1683
     20 C           5.2488   -0.0236   34.4698 C.3     1  UNL1        0.1188
     21 N           4.7724   -0.4432   33.1108 N.3     1  UNL1       -0.2627
     22 C           3.5441    0.3532   32.7839 C.3     1  UNL1        0.1022
     23 C           7.3311   -4.5808   29.5988 C.ar    1  UNL1        0.0357
     24 C           6.5484   -5.2034   28.4808 C.ar    1  UNL1        0.0323
     25 C           7.1880   -6.2378   27.6028 C.ar    1  UNL1        0.1673
     26 F           6.4054   -6.8604   26.4849 F       1  UNL1       -0.2018
     27 C           8.6103   -6.6495   27.8428 C.ar    1  UNL1        0.1696
     28 F           9.2500   -7.6840   26.9648 F       1  UNL1       -0.2017
     29 C           9.3929   -6.0269   28.9607 C.ar    1  UNL1        0.0613
     30 C           8.7533   -4.9925   29.8387 C.ar    1  UNL1        0.1408
     31 F           9.5360   -4.3699   30.9567 F       1  UNL1       -0.2043
@<TRIPOS>BOND
     1    10    11    1
     2    11    12   ar
     3    12    13   ar
     4    13    14   ar
     5    14    15   ar
     6    15    16   ar
     7    16    17   ar
     8    17    18   ar
     9    18    19   ar
    10    17    20    1
    11    20    21    1
    12     1    21    1
    13     1     2    1
    14     2     3    1
    15     3     4    1
    16     4    23    1
    17    23    24   ar
    18    24    25   ar
    19    25    26    1
    20    25    27   ar
    21    27    28    1
    22    27    29   ar
    23    29    30   ar
    24    30    31    1
    25     4     5    1
    26     5     6    1
    27     5     7    1
    28    21    22    1
    29    19    11   ar
    30     7     1    1
    31    18    13   ar
    32    30    23   ar
    33    22    16    1
    34     6     8    1
    35     6     9    1
@<TRIPOS>MOLECULE
*****
 31 35 0 0 0
SMALL
GASTEIGER

@<TRIPOS>ATOM
      1 C           5.4955   -1.5851   32.4567 C.3     1  UNL1        0.0892
      2 C           5.8836   -1.1715   31.0680 C.3     1  UNL1        0.1584
      3 O           6.4938   -2.1710   30.1307 O.3     1  UNL1       -0.3490
      4 C           6.7159   -3.5841   30.5820 C.3     1  UNL1        0.1538
      5 C           6.3277   -3.9977   31.9706 C.3     1  UNL1        0.0841
      6 N           6.5498   -5.4109   32.4219 N.3     1  UNL1       -0.3199
      7 C           5.7175   -2.9982   32.9080 C.3     1  UNL1        0.0368
      8 H           6.9697   -5.9481   31.6633 H       1  UNL1        0.1189
      9 H           5.6564   -5.8295   32.6810 H       1  UNL1        0.1189
     10 C           0.3583    5.4836   33.8341 C.3     1  UNL1        0.0540
     11 C           1.2569    4.4072   34.3668 C.ar    1  UNL1        0.0824
     12 C           1.6347    4.2054   35.8043 C.ar    1  UNL1        0.0552
     13 C           2.5467    3.0170   35.8816 C.ar    1  UNL1        0.1646
     14 N           3.2319    2.3511   37.0378 N.ar    1  UNL1       -0.2252
     15 C           4.1030    1.1524   36.8043 C.ar    1  UNL1        0.0988
     16 C           4.2889    0.6197   35.4144 C.ar    1  UNL1        0.0281
     17 C           3.6036    1.2857   34.2581 C.ar    1  UNL1        0.0771
     18 N           2.7325    2.4843   34.4917 N.ar    1  UNL1       -0.2154
     19 N           1.9354    3.3434   33.5556 N.ar    1  UNL1       -0.1683
     20 C           3.9722    0.5408   33.0094 C.3     1  UNL1        0.1188
     21 N           4.8853   -0.5855   33.3940 N.3     1  UNL1       -0.2627
     22 C           5.0810   -0.5367   34.8804 C.3     1  UNL1        0.1022
     23 C           7.3261   -4.5837   29.6447 C.ar    1  UNL1        0.0357
     24 C           6.5268   -5.1172   28.4930 C.ar    1  UNL1        0.0323
     25 C           7.1369   -6.1167   27.5557 C.ar    1  UNL1        0.1673
     26 F           6.3375   -6.6502   26.4040 F       1  UNL1       -0.2018
     27 C           8.5464   -6.5828   27.7701 C.ar    1  UNL1        0.1696
     28 F           9.1566   -7.5824   26.8328 F       1  UNL1       -0.2017
     29 C           9.3458   -6.0493   28.9218 C.ar    1  UNL1        0.0613
     30 C           8.7356   -5.0497   29.8591 C.ar    1  UNL1        0.1408
     31 F           9.5350   -4.5163   31.0108 F       1  UNL1       -0.2043
@<TRIPOS>BOND
     1    10    11    1
     2    11    12   ar
     3    12    13   ar
     4    13    14   ar
     5    14    15   ar
     6    15    16   ar
     7    16    17   ar
     8    17    18   ar
     9    18    19   ar
    10    17    20    1
    11    20    21    1
    12     1    21    1
    13     1     2    1
    14     2     3    1
    15     3     4    1
    16     4    23    1
    17    23    24   ar
    18    24    25   ar
    19    25    26    1
    20    25    27   ar
    21    27    28    1
    22    27    29   ar
    23    29    30   ar
    24    30    31    1
    25     4     5    1
    26     5     6    1
    27     5     7    1
    28    21    22    1
    29    19    11   ar
    30     7     1    1
    31    18    13   ar
    32    30    23   ar
    33    22    16    1
    34     6     8    1
    35     6     9    1
@<TRIPOS>MOLECULE
*****
 31 35 0 0 0
SMALL
GASTEIGER

@<TRIPOS>ATOM
      1 C           0.9894    1.2133   29.5704 C.3     1  UNL1        0.0892
      2 C          -0.0395    0.3408   28.9147 C.3     1  UNL1        0.1584
      3 O          -0.9543    0.9133   27.8728 O.3     1  UNL1       -0.3490
      4 C          -0.8400    2.3582   27.4867 C.3     1  UNL1        0.1538
      5 C           0.1890    3.2306   28.1424 C.3     1  UNL1        0.0841
      6 N           0.3032    4.6756   27.7563 N.3     1  UNL1       -0.3199
      7 C           1.1037    2.6582   29.1843 C.3     1  UNL1        0.0368
      8 H          -0.3903    4.8921   27.0403 H       1  UNL1        0.1189
      9 H           1.2378    4.8568   27.3900 H       1  UNL1        0.1189
     10 C           4.8666    1.7706   37.5021 C.3     1  UNL1        0.0540
     11 C           4.6426    1.0344   36.2145 C.ar    1  UNL1        0.0824
     12 C           5.2608   -0.2769   35.8296 C.ar    1  UNL1        0.0552
     13 C           4.7613   -0.6415   34.4630 C.ar    1  UNL1        0.1646
     14 N           5.0308   -1.8220   33.5778 N.ar    1  UNL1       -0.2252
     15 C           4.3734   -1.9165   32.2328 C.ar    1  UNL1        0.0988
     16 C           3.4465   -0.8305   31.7731 C.ar    1  UNL1        0.0281
     17 C           3.1770    0.3501   32.6584 C.ar    1  UNL1        0.0771
     18 N           3.8345    0.4446   34.0033 N.ar    1  UNL1       -0.2154
     19 N           3.7611    1.4804   35.0858 N.ar    1  UNL1       -0.1683
     20 C           2.2238    1.2594   31.9410 C.3     1  UNL1        0.1188
     21 N           1.9042    0.6408   30.6124 N.3     1  UNL1       -0.2627
     22 C           2.6598   -0.6508   30.5086 C.3     1  UNL1        0.1022
     23 C          -1.7547    2.9307   26.4447 C.ar    1  UNL1        0.0357
     24 C          -3.0969    3.4712   26.8403 C.ar    1  UNL1        0.0323
     25 C          -4.0116    4.0437   25.7985 C.ar    1  UNL1        0.1673
     26 F          -5.3537    4.5843   26.1941 F       1  UNL1       -0.2018
     27 C          -3.5842    4.0757   24.3611 C.ar    1  UNL1        0.1696
     28 F          -4.4989    4.6482   23.3191 F       1  UNL1       -0.2017
     29 C          -2.2421    3.5351   23.9655 C.ar    1  UNL1        0.0613
     30 C          -1.3273    2.9626   25.0073 C.ar    1  UNL1        0.1408
     31 F           0.0148    2.4221   24.6117 F       1  UNL1       -0.2043
@<TRIPOS>BOND
     1    10    11    1
     2    11    12   ar
     3    12    13   ar
     4    13    14   ar
     5    14    15   ar
     6    15    16   ar
     7    16    17   ar
     8    17    18   ar
     9    18    19   ar
    10    17    20    1
    11    20    21    1
    12     1    21    1
    13     1     2    1
    14     2     3    1
    15     3     4    1
    16     4    23    1
    17    23    24   ar
    18    24    25   ar
    19    25    26    1
    20    25    27   ar
    21    27    28    1
    22    27    29   ar
    23    29    30   ar
    24    30    31    1
    25     4     5    1
    26     5     6    1
    27     5     7    1
    28    21    22    1
    29    19    11   ar
    30     7     1    1
    31    18    13   ar
    32    30    23   ar
    33    22    16    1
    34     6     8    1
    35     6     9    1
@<TRIPOS>MOLECULE
*****
 31 35 0 0 0
SMALL
GASTEIGER

@<TRIPOS>ATOM
      1 C           5.7585   -2.2404   32.0742 C.3     1  UNL1        0.0892
      2 C           4.5317   -2.5733   32.8706 C.3     1  UNL1        0.1584
      3 O           4.0420   -1.6254   33.9248 O.3     1  UNL1       -0.3490
      4 C           4.7789   -0.3446   34.1827 C.3     1  UNL1        0.1538
      5 C           6.0057   -0.0118   33.3863 C.3     1  UNL1        0.0841
      6 N           6.7427    1.2690   33.6442 N.3     1  UNL1       -0.3199
      7 C           6.4955   -0.9597   32.3320 C.3     1  UNL1        0.0368
      8 H           6.2744    1.7870   34.3877 H       1  UNL1        0.1189
      9 H           6.7548    1.8316   32.7934 H       1  UNL1        0.1189
     10 C           6.8934   -4.2890   23.5436 C.3     1  UNL1        0.0540
     11 C           7.0498   -4.6353   24.9947 C.ar    1  UNL1        0.0824
     12 C           7.6723   -5.8861   25.5405 C.ar    1  UNL1        0.0552
     13 C           7.6185   -5.8155   27.0379 C.ar    1  UNL1        0.1646
     14 N           8.0818   -6.7626   28.1047 N.ar    1  UNL1       -0.2252
     15 C           7.8894   -6.4153   29.5512 C.ar    1  UNL1        0.0988
     16 C           7.2336   -5.1207   29.9309 C.ar    1  UNL1        0.0281
     17 C           6.7702   -4.1736   28.8640 C.ar    1  UNL1        0.0771
     18 N           6.9626   -4.5209   27.4175 N.ar    1  UNL1       -0.2154
     19 N           6.6112   -3.7916   26.1548 N.ar    1  UNL1       -0.1683
     20 C           6.1612   -2.9794   29.5370 C.3     1  UNL1        0.1188
     21 N           6.2483   -3.1884   31.0198 N.3     1  UNL1       -0.2627
     22 C           6.9110   -4.5119   31.2632 C.3     1  UNL1        0.1022
     23 C           4.2892    0.6034   35.2370 C.ar    1  UNL1        0.0357
     24 C           3.2704    1.6486   34.8910 C.ar    1  UNL1        0.0323
     25 C           2.7806    2.5965   35.9453 C.ar    1  UNL1        0.1673
     26 F           1.7619    3.6417   35.5993 F       1  UNL1       -0.2018
     27 C           3.3096    2.4993   37.3455 C.ar    1  UNL1        0.1696
     28 F           2.8199    3.4473   38.3998 F       1  UNL1       -0.2017
     29 C           4.3284    1.4541   37.6915 C.ar    1  UNL1        0.0613
     30 C           4.8182    0.5061   36.6372 C.ar    1  UNL1        0.1408
     31 F           5.8369   -0.5390   36.9832 F       1  UNL1       -0.2043
@<TRIPOS>BOND
     1    10    11    1
     2    11    12   ar
     3    12    13   ar
     4    13    14   ar
     5    14    15   ar
     6    15    16   ar
     7    16    17   ar
     8    17    18   ar
     9    18    19   ar
    10    17    20    1
    11    20    21    1
    12     1    21    1
    13     1     2    1
    14     2     3    1
    15     3     4    1
    16     4    23    1
    17    23    24   ar
    18    24    25   ar
    19    25    26    1
    20    25    27   ar
    21    27    28    1
    22    27    29   ar
    23    29    30   ar
    24    30    31    1
    25     4     5    1
    26     5     6    1
    27     5     7    1
    28    21    22    1
    29    19    11   ar
    30     7     1    1
    31    18    13   ar
    32    30    23   ar
    33    22    16    1
    34     6     8    1
    35     6     9    1
@<TRIPOS>MOLECULE
*****
 31 35 0 0 0
SMALL
GASTEIGER

@<TRIPOS>ATOM
      1 C           5.6111   -3.3893   23.3335 C.3     1  UNL1        0.0892
      2 C           5.2320   -1.9907   23.7213 C.3     1  UNL1        0.1584
      3 O           4.4002   -1.1548   22.7944 O.3     1  UNL1       -0.3490
      4 C           3.9474   -1.7173   21.4797 C.3     1  UNL1        0.1538
      5 C           4.3264   -3.1159   21.0919 C.3     1  UNL1        0.0841
      6 N           3.8736   -3.6785   19.7771 N.3     1  UNL1       -0.3199
      7 C           5.1583   -3.9519   22.0188 C.3     1  UNL1        0.0368
      8 H           3.3228   -2.9789   19.2796 H       1  UNL1        0.1189
      9 H           3.3024   -4.5076   19.9407 H       1  UNL1        0.1189
     10 C           7.6656   -6.0005   31.5320 C.3     1  UNL1        0.0540
     11 C           7.8940   -6.0695   30.0511 C.ar    1  UNL1        0.0824
     12 C           8.9121   -6.9233   29.3548 C.ar    1  UNL1        0.0552
     13 C           8.7917   -6.6784   27.8798 C.ar    1  UNL1        0.1646
     14 N           9.5358   -7.2407   26.7051 N.ar    1  UNL1       -0.2252
     15 C           9.1874   -6.7980   25.3148 C.ar    1  UNL1        0.0988
     16 C           8.0950   -5.7928   25.0995 C.ar    1  UNL1        0.0281
     17 C           7.3510   -5.2305   26.2743 C.ar    1  UNL1        0.0771
     18 N           7.6994   -5.6732   27.6645 N.ar    1  UNL1       -0.2154
     19 N           7.1446   -5.2970   29.0064 N.ar    1  UNL1       -0.1683
     20 C           6.3300   -4.2617   25.7557 C.3     1  UNL1        0.1188
     21 N           6.4429   -4.2253   24.2604 N.3     1  UNL1       -0.2627
     22 C           7.5338   -5.1716   23.8548 C.3     1  UNL1        0.1022
     23 C           3.1155   -0.8814   20.5527 C.ar    1  UNL1        0.0357
     24 C           1.6937   -0.5590   20.9057 C.ar    1  UNL1        0.0323
     25 C           0.8619    0.2769   19.9789 C.ar    1  UNL1        0.1673
     26 F          -0.5599    0.5993   20.3319 F       1  UNL1       -0.2018
     27 C           1.4518    0.7905   18.6990 C.ar    1  UNL1        0.1696
     28 F           0.6199    1.6265   17.7720 F       1  UNL1       -0.2017
     29 C           2.8736    0.4681   18.3459 C.ar    1  UNL1        0.0613
     30 C           3.7054   -0.3678   19.2728 C.ar    1  UNL1        0.1408
     31 F           5.1272   -0.6902   18.9198 F       1  UNL1       -0.2043
@<TRIPOS>BOND
     1    10    11    1
     2    11    12   ar
     3    12    13   ar
     4    13    14   ar
     5    14    15   ar
     6    15    16   ar
     7    16    17   ar
     8    17    18   ar
     9    18    19   ar
    10    17    20    1
    11    20    21    1
    12     1    21    1
    13     1     2    1
    14     2     3    1
    15     3     4    1
    16     4    23    1
    17    23    24   ar
    18    24    25   ar
    19    25    26    1
    20    25    27   ar
    21    27    28    1
    22    27    29   ar
    23    29    30   ar
    24    30    31    1
    25     4     5    1
    26     5     6    1
    27     5     7    1
    28    21    22    1
    29    19    11   ar
    30     7     1    1
    31    18    13   ar
    32    30    23   ar
    33    22    16    1
    34     6     8    1
    35     6     9    1
@<TRIPOS>MOLECULE
*****
 31 35 0 0 0
SMALL
GASTEIGER

@<TRIPOS>ATOM
      1 C           6.2281   -3.0743   24.4687 C.3     1  UNL1        0.0892
      2 C           5.7561   -1.6690   24.2399 C.3     1  UNL1        0.1584
      3 O           5.5440   -1.1672   22.8423 O.3     1  UNL1       -0.3490
      4 C           5.8040   -2.0707   21.6736 C.3     1  UNL1        0.1538
      5 C           6.2760   -3.4760   21.9024 C.3     1  UNL1        0.0841
      6 N           6.5360   -4.3795   20.7335 N.3     1  UNL1       -0.3199
      7 C           6.4881   -3.9778   23.2999 C.3     1  UNL1        0.0368
      8 H           6.3417   -3.8784   19.8666 H       1  UNL1        0.1189
      9 H           5.9312   -5.1985   20.7957 H       1  UNL1        0.1189
     10 C           5.7860   -1.8080   33.2126 C.3     1  UNL1        0.0540
     11 C           6.1279   -2.6816   32.0421 C.ar    1  UNL1        0.0824
     12 C           6.6866   -4.0719   32.1131 C.ar    1  UNL1        0.0552
     13 C           6.8751   -4.5679   30.7100 C.ar    1  UNL1        0.1646
     14 N           7.3923   -5.8663   30.1655 N.ar    1  UNL1       -0.2252
     15 C           7.4672   -6.0811   28.6828 C.ar    1  UNL1        0.0988
     16 C           7.0250   -4.9973   27.7447 C.ar    1  UNL1        0.0281
     17 C           6.5078   -3.6989   28.2893 C.ar    1  UNL1        0.0771
     18 N           6.4329   -3.4842   29.7720 N.ar    1  UNL1       -0.2154
     19 N           5.9711   -2.3184   30.5953 N.ar    1  UNL1       -0.1683
     20 C           6.1464   -2.8205   27.1284 C.3     1  UNL1        0.1188
     21 N           6.4402   -3.5761   25.8663 N.3     1  UNL1       -0.2627
     22 C           6.9832   -4.9214   26.2472 C.3     1  UNL1        0.1022
     23 C           5.5919   -1.5689   20.2759 C.ar    1  UNL1        0.0357
     24 C           6.7026   -0.8633   19.5558 C.ar    1  UNL1        0.0323
     25 C           6.4906   -0.3616   18.1582 C.ar    1  UNL1        0.1673
     26 F           7.6013    0.3441   17.4381 F       1  UNL1       -0.2018
     27 C           5.1680   -0.5654   17.4808 C.ar    1  UNL1        0.1696
     28 F           4.9559   -0.0637   16.0831 F       1  UNL1       -0.2017
     29 C           4.0573   -1.2711   18.2009 C.ar    1  UNL1        0.0613
     30 C           4.2693   -1.7728   19.5985 C.ar    1  UNL1        0.1408
     31 F           3.1587   -2.4784   20.3186 F       1  UNL1       -0.2043
@<TRIPOS>BOND
     1    10    11    1
     2    11    12   ar
     3    12    13   ar
     4    13    14   ar
     5    14    15   ar
     6    15    16   ar
     7    16    17   ar
     8    17    18   ar
     9    18    19   ar
    10    17    20    1
    11    20    21    1
    12     1    21    1
    13     1     2    1
    14     2     3    1
    15     3     4    1
    16     4    23    1
    17    23    24   ar
    18    24    25   ar
    19    25    26    1
    20    25    27   ar
    21    27    28    1
    22    27    29   ar
    23    29    30   ar
    24    30    31    1
    25     4     5    1
    26     5     6    1
    27     5     7    1
    28    21    22    1
    29    19    11   ar
    30     7     1    1
    31    18    13   ar
    32    30    23   ar
    33    22    16    1
    34     6     8    1
    35     6     9    1
@<TRIPOS>MOLECULE
*****
 31 35 0 0 0
SMALL
GASTEIGER

@<TRIPOS>ATOM
      1 C          -0.9393    2.5537   27.1589 C.3     1  UNL1        0.0892
      2 C           0.2809    3.3200   27.5759 C.3     1  UNL1        0.1584
      3 O           1.1823    2.7724   28.6424 O.3     1  UNL1       -0.3490
      4 C           0.8636    1.4585   29.2919 C.3     1  UNL1        0.1538
      5 C          -0.3567    0.6922   28.8750 C.3     1  UNL1        0.0841
      6 N          -0.6754   -0.6217   29.5247 N.3     1  UNL1       -0.3199
      7 C          -1.2581    1.2398   27.8085 C.3     1  UNL1        0.0368
      8 H           0.0376   -0.8386   30.2210 H       1  UNL1        0.1189
      9 H          -0.6935   -1.3556   28.8165 H       1  UNL1        0.1189
     10 C          -8.6872    6.0706   24.7387 C.3     1  UNL1        0.0540
     11 C          -7.3131    5.5854   24.3830 C.ar    1  UNL1        0.0824
     12 C          -6.7058    5.5851   23.0115 C.ar    1  UNL1        0.0552
     13 C          -5.3224    5.0148   23.1172 C.ar    1  UNL1        0.1646
     14 N          -4.2563    4.7707   22.0907 N.ar    1  UNL1       -0.2252
     15 C          -2.9425    4.1743   22.5010 C.ar    1  UNL1        0.0988
     16 C          -2.6949    3.8221   23.9379 C.ar    1  UNL1        0.0281
     17 C          -3.7611    4.0662   24.9644 C.ar    1  UNL1        0.0771
     18 N          -5.0748    4.6626   24.5541 N.ar    1  UNL1       -0.2154
     19 N          -6.3051    5.0152   25.3364 N.ar    1  UNL1       -0.1683
     20 C          -3.2332    3.6208   26.2959 C.3     1  UNL1        0.1188
     21 N          -1.8408    3.1014   26.0924 N.3     1  UNL1       -0.2627
     22 C          -1.5081    3.2258   24.6350 C.3     1  UNL1        0.1022
     23 C           1.7650    0.9109   30.3585 C.ar    1  UNL1        0.0357
     24 C           1.8558    1.5974   31.6891 C.ar    1  UNL1        0.0323
     25 C           2.7572    1.0498   32.7557 C.ar    1  UNL1        0.1673
     26 F           2.8479    1.7362   34.0863 F       1  UNL1       -0.2018
     27 C           3.5678   -0.1843   32.4916 C.ar    1  UNL1        0.1696
     28 F           4.4693   -0.7320   33.5582 F       1  UNL1       -0.2017
     29 C           3.4771   -0.8708   31.1610 C.ar    1  UNL1        0.0613
     30 C           2.5757   -0.3232   30.0945 C.ar    1  UNL1        0.1408
     31 F           2.4850   -1.0097   28.7639 F       1  UNL1       -0.2043
@<TRIPOS>BOND
     1    10    11    1
     2    11    12   ar
     3    12    13   ar
     4    13    14   ar
     5    14    15   ar
     6    15    16   ar
     7    16    17   ar
     8    17    18   ar
     9    18    19   ar
    10    17    20    1
    11    20    21    1
    12     1    21    1
    13     1     2    1
    14     2     3    1
    15     3     4    1
    16     4    23    1
    17    23    24   ar
    18    24    25   ar
    19    25    26    1
    20    25    27   ar
    21    27    28    1
    22    27    29   ar
    23    29    30   ar
    24    30    31    1
    25     4     5    1
    26     5     6    1
    27     5     7    1
    28    21    22    1
    29    19    11   ar
    30     7     1    1
    31    18    13   ar
    32    30    23   ar
    33    22    16    1
    34     6     8    1
    35     6     9    1
@<TRIPOS>MOLECULE
*****
 31 35 0 0 0
SMALL
GASTEIGER

@<TRIPOS>ATOM
      1 C           3.7050   -0.5830   26.9555 C.3     1  UNL1        0.0892
      2 C           5.0887   -0.5696   27.5345 C.3     1  UNL1        0.1584
      3 O           5.2794   -0.5894   29.0222 O.3     1  UNL1       -0.3490
      4 C           4.0864   -0.6226   29.9308 C.3     1  UNL1        0.1538
      5 C           2.7028   -0.6359   29.3518 C.3     1  UNL1        0.0841
      6 N           1.5097   -0.6691   30.2605 N.3     1  UNL1       -0.3199
      7 C           2.5121   -0.6161   27.8641 C.3     1  UNL1        0.0368
      8 H           1.8221   -0.6790   31.2315 H       1  UNL1        0.1189
      9 H           0.9614   -1.5080   30.0712 H       1  UNL1        0.1189
     10 C           4.6933   -4.4345   19.0534 C.3     1  UNL1        0.0540
     11 C           4.2124   -3.2835   19.8865 C.ar    1  UNL1        0.0824
     12 C           3.5270   -2.0510   19.3756 C.ar    1  UNL1        0.0552
     13 C           3.2235   -1.1687   20.5501 C.ar    1  UNL1        0.1646
     14 N           2.5582    0.1717   20.6532 N.ar    1  UNL1       -0.2252
     15 C           2.3906    0.8248   21.9931 C.ar    1  UNL1        0.0988
     16 C           2.8883    0.1375   23.2300 C.ar    1  UNL1        0.0281
     17 C           3.5537   -1.2030   23.1269 C.ar    1  UNL1        0.0771
     18 N           3.7213   -1.8560   21.7870 N.ar    1  UNL1       -0.2154
     19 N           4.3324   -3.1631   21.3768 N.ar    1  UNL1       -0.1683
     20 C           3.9406   -1.6360   24.5099 C.3     1  UNL1        0.1188
     21 N           3.5144   -0.5632   25.4678 N.3     1  UNL1       -0.2627
     22 C           2.8641    0.5329   24.6767 C.3     1  UNL1        0.1022
     23 C           4.2771   -0.6424   31.4186 C.ar    1  UNL1        0.0357
     24 C           3.7279    0.4714   32.2600 C.ar    1  UNL1        0.0323
     25 C           3.9185    0.4516   33.7476 C.ar    1  UNL1        0.1673
     26 F           3.3693    1.5654   34.5890 F       1  UNL1       -0.2018
     27 C           4.6583   -0.6819   34.3939 C.ar    1  UNL1        0.1696
     28 F           4.8490   -0.7017   35.8817 F       1  UNL1       -0.2017
     29 C           5.2075   -1.7956   33.5526 C.ar    1  UNL1        0.0613
     30 C           5.0169   -1.7759   32.0649 C.ar    1  UNL1        0.1408
     31 F           5.5661   -2.8896   31.2235 F       1  UNL1       -0.2043
@<TRIPOS>BOND
     1    10    11    1
     2    11    12   ar
     3    12    13   ar
     4    13    14   ar
     5    14    15   ar
     6    15    16   ar
     7    16    17   ar
     8    17    18   ar
     9    18    19   ar
    10    17    20    1
    11    20    21    1
    12     1    21    1
    13     1     2    1
    14     2     3    1
    15     3     4    1
    16     4    23    1
    17    23    24   ar
    18    24    25   ar
    19    25    26    1
    20    25    27   ar
    21    27    28    1
    22    27    29   ar
    23    29    30   ar
    24    30    31    1
    25     4     5    1
    26     5     6    1
    27     5     7    1
    28    21    22    1
    29    19    11   ar
    30     7     1    1
    31    18    13   ar
    32    30    23   ar
    33    22    16    1
    34     6     8    1
    35     6     9    1
@<TRIPOS>MOLECULE
*****
 31 35 0 0 0
SMALL
GASTEIGER

@<TRIPOS>ATOM
      1 C           0.0712    2.2826   21.6849 C.3     1  UNL1        0.0892
      2 C           0.1688    2.2251   23.1806 C.3     1  UNL1        0.1584
      3 O          -0.9054    2.8418   24.0266 O.3     1  UNL1       -0.3490
      4 C          -2.0773    3.5160   23.3768 C.3     1  UNL1        0.1538
      5 C          -2.1749    3.5734   21.8811 C.3     1  UNL1        0.0841
      6 N          -3.3468    4.2476   21.2313 N.3     1  UNL1       -0.3199
      7 C          -1.1007    2.9567   21.0352 C.3     1  UNL1        0.0368
      8 H          -3.9739    4.6075   21.9508 H       1  UNL1        0.1189
      9 H          -3.8468    3.5749   20.6500 H       1  UNL1        0.1189
     10 C           4.4721   -4.8694   18.9037 C.3     1  UNL1        0.0540
     11 C           4.2538   -3.3857   18.8746 C.ar    1  UNL1        0.0824
     12 C           5.0271   -2.3967   18.0537 C.ar    1  UNL1        0.0552
     13 C           4.4751   -1.0302   18.3331 C.ar    1  UNL1        0.1646
     14 N           4.8433    0.3270   17.8111 N.ar    1  UNL1       -0.2252
     15 C           4.0971    1.5398   18.2827 C.ar    1  UNL1        0.0988
     16 C           2.9826    1.3953   19.2762 C.ar    1  UNL1        0.0281
     17 C           2.6145    0.0381   19.7982 C.ar    1  UNL1        0.0771
     18 N           3.3607   -1.1746   19.3266 N.ar    1  UNL1       -0.2154
     19 N           3.2240   -2.6304   19.6613 N.ar    1  UNL1       -0.1683
     20 C           1.4790    0.2053   20.7640 C.3     1  UNL1        0.1188
     21 N           1.1455    1.6658   20.8390 N.3     1  UNL1       -0.2627
     22 C           2.0747    2.4013   19.9195 C.3     1  UNL1        0.1022
     23 C          -3.1516    4.1327   24.2228 C.ar    1  UNL1        0.0357
     24 C          -2.8640    5.3758   25.0115 C.ar    1  UNL1        0.0323
     25 C          -3.9382    5.9926   25.8574 C.ar    1  UNL1        0.1673
     26 F          -3.6507    7.2356   26.6462 F       1  UNL1       -0.2018
     27 C          -5.3000    5.3663   25.9146 C.ar    1  UNL1        0.1696
     28 F          -6.3743    5.9830   26.7606 F       1  UNL1       -0.2017
     29 C          -5.5875    4.1232   25.1259 C.ar    1  UNL1        0.0613
     30 C          -4.5133    3.5064   24.2800 C.ar    1  UNL1        0.1408
     31 F          -4.8009    2.2634   23.4912 F       1  UNL1       -0.2043
@<TRIPOS>BOND
     1    10    11    1
     2    11    12   ar
     3    12    13   ar
     4    13    14   ar
     5    14    15   ar
     6    15    16   ar
     7    16    17   ar
     8    17    18   ar
     9    18    19   ar
    10    17    20    1
    11    20    21    1
    12     1    21    1
    13     1     2    1
    14     2     3    1
    15     3     4    1
    16     4    23    1
    17    23    24   ar
    18    24    25   ar
    19    25    26    1
    20    25    27   ar
    21    27    28    1
    22    27    29   ar
    23    29    30   ar
    24    30    31    1
    25     4     5    1
    26     5     6    1
    27     5     7    1
    28    21    22    1
    29    19    11   ar
    30     7     1    1
    31    18    13   ar
    32    30    23   ar
    33    22    16    1
    34     6     8    1
    35     6     9    1
