@<TRIPOS>MOLECULE
*****
 24 26 0 0 0
SMALL
GASTEIGER

@<TRIPOS>ATOM
      1 C          -5.0655  -15.4366   25.7571 C.3     1  UNL1        0.0902
      2 N          -5.0963  -16.1331   24.4290 N.3     1  UNL1       -0.2639
      3 C          -6.0198  -15.6501   23.3501 C.3     1  UNL1        0.0994
      4 C          -7.4512  -16.0983   23.3319 C.ar    1  UNL1       -0.0062
      5 C          -7.9478  -16.9772   22.2224 C.ar    1  UNL1       -0.0032
      6 C          -9.3792  -17.4253   22.2042 C.ar    1  UNL1       -0.0046
      7 C         -10.3139  -16.9946   23.2954 C.ar    1  UNL1       -0.0228
      8 C          -9.8173  -16.1156   24.4049 C.ar    1  UNL1       -0.0046
      9 C          -8.3858  -15.6675   24.4231 C.ar    1  UNL1       -0.0032
     10 C         -11.7453  -17.4427   23.2772 C.3     1  UNL1        0.0189
     11 C         -11.3873  -18.6210   24.1336 C.3     1  UNL1        0.0044
     12 C         -12.1033  -16.2644   22.4209 C.3     1  UNL1        0.0044
     13 C         -13.1766  -17.8908   23.2590 C.3     1  UNL1        0.0044
     14 C          -4.2038  -17.3126   24.1798 C.3     1  UNL1        0.0994
     15 C          -3.5783  -17.5080   22.8305 C.ar    1  UNL1       -0.0061
     16 C          -2.4350  -16.6374   22.4006 C.ar    1  UNL1       -0.0029
     17 C          -1.8095  -16.8328   21.0513 C.ar    1  UNL1       -0.0003
     18 C          -2.3274  -17.8988   20.1318 C.ar    1  UNL1       -0.0000
     19 C          -3.4708  -18.7694   20.5617 C.ar    1  UNL1       -0.0003
     20 C          -3.9887  -19.8353   19.6422 C.ar    1  UNL1       -0.0000
     21 C          -5.1321  -20.7059   20.0720 C.ar    1  UNL1       -0.0000
     22 C          -5.7576  -20.5105   21.4213 C.ar    1  UNL1       -0.0000
     23 C          -5.2397  -19.4446   22.3408 C.ar    1  UNL1       -0.0003
     24 C          -4.0963  -18.5740   21.9110 C.ar    1  UNL1       -0.0027
@<TRIPOS>BOND
     1     1     2    1
     2     2     3    1
     3     3     4    1
     4     4     5   ar
     5     5     6   ar
     6     6     7   ar
     7     7    10    1
     8    10    11    1
     9    10    12    1
    10    10    13    1
    11     7     8   ar
    12     8     9   ar
    13     2    14    1
    14    14    15    1
    15    15    16   ar
    16    16    17   ar
    17    17    18   ar
    18    18    19   ar
    19    19    20   ar
    20    20    21   ar
    21    21    22   ar
    22    22    23   ar
    23    23    24   ar
    24     9     4   ar
    25    24    15   ar
    26    24    19   ar
@<TRIPOS>MOLECULE
*****
 24 26 0 0 0
SMALL
GASTEIGER

@<TRIPOS>ATOM
      1 C          -8.0876  -15.9420   26.7039 C.3     1  UNL1        0.0902
      2 N          -8.3494  -15.7454   25.2400 N.3     1  UNL1       -0.2639
      3 C          -7.2593  -15.2342   24.3453 C.3     1  UNL1        0.0994
      4 C          -6.2923  -16.1938   23.7177 C.ar    1  UNL1       -0.0062
      5 C          -6.8017  -17.3642   22.9298 C.ar    1  UNL1       -0.0032
      6 C          -5.8347  -18.3238   22.3022 C.ar    1  UNL1       -0.0046
      7 C          -4.3582  -18.1132   22.4625 C.ar    1  UNL1       -0.0228
      8 C          -3.8488  -16.9428   23.2505 C.ar    1  UNL1       -0.0046
      9 C          -4.8159  -15.9831   23.8780 C.ar    1  UNL1       -0.0032
     10 C          -3.3911  -19.0728   21.8349 C.3     1  UNL1        0.0189
     11 C          -2.2465  -18.3126   22.4364 C.3     1  UNL1        0.0044
     12 C          -4.5358  -19.8330   21.2335 C.3     1  UNL1        0.0044
     13 C          -2.4241  -20.0324   21.2074 C.3     1  UNL1        0.0044
     14 C          -9.7011  -16.0601   24.6709 C.3     1  UNL1        0.0994
     15 C          -9.9942  -17.4363   24.1513 C.ar    1  UNL1       -0.0061
     16 C          -9.8777  -18.6224   25.0620 C.ar    1  UNL1       -0.0029
     17 C         -10.1709  -19.9987   24.5424 C.ar    1  UNL1       -0.0003
     18 C         -10.5806  -20.1888   23.1121 C.ar    1  UNL1       -0.0000
     19 C         -10.6971  -19.0026   22.2013 C.ar    1  UNL1       -0.0003
     20 C         -11.1069  -19.1927   20.7709 C.ar    1  UNL1       -0.0000
     21 C         -11.2234  -18.0066   19.8602 C.ar    1  UNL1       -0.0000
     22 C         -10.9302  -16.6304   20.3798 C.ar    1  UNL1       -0.0000
     23 C         -10.5205  -16.4402   21.8102 C.ar    1  UNL1       -0.0003
     24 C         -10.4040  -17.6264   22.7209 C.ar    1  UNL1       -0.0027
@<TRIPOS>BOND
     1     1     2    1
     2     2     3    1
     3     3     4    1
     4     4     5   ar
     5     5     6   ar
     6     6     7   ar
     7     7    10    1
     8    10    11    1
     9    10    12    1
    10    10    13    1
    11     7     8   ar
    12     8     9   ar
    13     2    14    1
    14    14    15    1
    15    15    16   ar
    16    16    17   ar
    17    17    18   ar
    18    18    19   ar
    19    19    20   ar
    20    20    21   ar
    21    21    22   ar
    22    22    23   ar
    23    23    24   ar
    24     9     4   ar
    25    24    15   ar
    26    24    19   ar
@<TRIPOS>MOLECULE
*****
 24 26 0 0 0
SMALL
GASTEIGER

@<TRIPOS>ATOM
      1 C         -12.9030  -16.5042   20.8601 C.3     1  UNL1        0.0902
      2 N         -11.4937  -17.0149   20.8045 N.3     1  UNL1       -0.2639
      3 C         -10.3443  -16.0532   20.8708 C.3     1  UNL1        0.0994
      4 C          -9.5376  -15.9343   22.1298 C.ar    1  UNL1       -0.0062
      5 C         -10.1632  -16.2559   23.4546 C.ar    1  UNL1       -0.0032
      6 C          -9.3565  -16.1370   24.7136 C.ar    1  UNL1       -0.0046
      7 C          -7.9241  -15.6964   24.6477 C.ar    1  UNL1       -0.0228
      8 C          -7.2986  -15.3747   23.3229 C.ar    1  UNL1       -0.0046
      9 C          -8.1054  -15.4937   22.0639 C.ar    1  UNL1       -0.0032
     10 C          -7.1174  -15.5775   25.9067 C.3     1  UNL1        0.0189
     11 C          -5.8575  -15.5245   25.0944 C.3     1  UNL1        0.0044
     12 C          -8.3773  -15.6304   26.7190 C.3     1  UNL1        0.0044
     13 C          -6.3107  -15.4585   27.1657 C.3     1  UNL1        0.0044
     14 C         -11.2336  -18.4871   20.6825 C.3     1  UNL1        0.0994
     15 C         -10.4356  -19.1975   21.7354 C.ar    1  UNL1       -0.0061
     16 C         -11.1008  -19.6547   22.9996 C.ar    1  UNL1       -0.0029
     17 C         -10.3027  -20.3651   24.0524 C.ar    1  UNL1       -0.0003
     18 C          -8.8395  -20.6183   23.8410 C.ar    1  UNL1       -0.0000
     19 C          -8.1742  -20.1611   22.5767 C.ar    1  UNL1       -0.0003
     20 C          -6.7109  -20.4143   22.3652 C.ar    1  UNL1       -0.0000
     21 C          -6.0457  -19.9570   21.1010 C.ar    1  UNL1       -0.0000
     22 C          -6.8438  -19.2466   20.0481 C.ar    1  UNL1       -0.0000
     23 C          -8.3070  -18.9934   20.2596 C.ar    1  UNL1       -0.0003
     24 C          -8.9722  -19.4507   21.5239 C.ar    1  UNL1       -0.0027
@<TRIPOS>BOND
     1     1     2    1
     2     2     3    1
     3     3     4    1
     4     4     5   ar
     5     5     6   ar
     6     6     7   ar
     7     7    10    1
     8    10    11    1
     9    10    12    1
    10    10    13    1
    11     7     8   ar
    12     8     9   ar
    13     2    14    1
    14    14    15    1
    15    15    16   ar
    16    16    17   ar
    17    17    18   ar
    18    18    19   ar
    19    19    20   ar
    20    20    21   ar
    21    21    22   ar
    22    22    23   ar
    23    23    24   ar
    24     9     4   ar
    25    24    15   ar
    26    24    19   ar
@<TRIPOS>MOLECULE
*****
 24 26 0 0 0
SMALL
GASTEIGER

@<TRIPOS>ATOM
      1 C         -12.6540  -17.6096   21.7923 C.3     1  UNL1        0.0902
      2 N         -11.4926  -18.2406   22.5015 N.3     1  UNL1       -0.2639
      3 C         -10.9115  -19.5264   21.9922 C.3     1  UNL1        0.0994
      4 C          -9.4397  -19.6290   21.7215 C.ar    1  UNL1       -0.0062
      5 C          -8.9046  -19.3136   20.3561 C.ar    1  UNL1       -0.0032
      6 C          -7.4328  -19.4162   20.0853 C.ar    1  UNL1       -0.0046
      7 C          -6.4961  -19.8341   21.1799 C.ar    1  UNL1       -0.0228
      8 C          -7.0313  -20.1494   22.5453 C.ar    1  UNL1       -0.0046
      9 C          -8.5031  -20.0468   22.8160 C.ar    1  UNL1       -0.0032
     10 C          -5.0244  -19.9367   20.9091 C.3     1  UNL1        0.0189
     11 C          -5.2836  -21.0289   19.9142 C.3     1  UNL1        0.0044
     12 C          -4.7652  -18.8445   21.9040 C.3     1  UNL1        0.0044
     13 C          -3.5526  -20.0393   20.6383 C.3     1  UNL1        0.0044
     14 C         -10.9123  -17.5860   23.7200 C.3     1  UNL1        0.0994
     15 C          -9.6643  -16.7616   23.6060 C.ar    1  UNL1       -0.0061
     16 C          -9.2517  -16.2055   22.2754 C.ar    1  UNL1       -0.0029
     17 C          -8.0038  -15.3811   22.1614 C.ar    1  UNL1       -0.0003
     18 C          -7.1684  -15.1128   23.3780 C.ar    1  UNL1       -0.0000
     19 C          -7.5809  -15.6690   24.7087 C.ar    1  UNL1       -0.0003
     20 C          -6.7455  -15.4007   25.9252 C.ar    1  UNL1       -0.0000
     21 C          -7.1581  -15.9569   27.2558 C.ar    1  UNL1       -0.0000
     22 C          -8.4061  -16.7813   27.3698 C.ar    1  UNL1       -0.0000
     23 C          -9.2415  -17.0495   26.1532 C.ar    1  UNL1       -0.0003
     24 C          -8.8289  -16.4934   24.8226 C.ar    1  UNL1       -0.0027
@<TRIPOS>BOND
     1     1     2    1
     2     2     3    1
     3     3     4    1
     4     4     5   ar
     5     5     6   ar
     6     6     7   ar
     7     7    10    1
     8    10    11    1
     9    10    12    1
    10    10    13    1
    11     7     8   ar
    12     8     9   ar
    13     2    14    1
    14    14    15    1
    15    15    16   ar
    16    16    17   ar
    17    17    18   ar
    18    18    19   ar
    19    19    20   ar
    20    20    21   ar
    21    21    22   ar
    22    22    23   ar
    23    23    24   ar
    24     9     4   ar
    25    24    15   ar
    26    24    19   ar
@<TRIPOS>MOLECULE
*****
 24 26 0 0 0
SMALL
GASTEIGER

@<TRIPOS>ATOM
      1 C          -8.7210  -19.7696   19.0879 C.3     1  UNL1        0.0902
      2 N          -8.4699  -19.3539   20.5071 N.3     1  UNL1       -0.2639
      3 C          -7.3037  -19.9225   21.2600 C.3     1  UNL1        0.0994
      4 C          -5.9372  -19.3293   21.0855 C.ar    1  UNL1       -0.0062
      5 C          -5.1986  -18.7851   22.2723 C.ar    1  UNL1       -0.0032
      6 C          -3.8321  -18.1918   22.0978 C.ar    1  UNL1       -0.0046
      7 C          -3.2039  -18.1428   20.7365 C.ar    1  UNL1       -0.0228
      8 C          -3.9425  -18.6869   19.5497 C.ar    1  UNL1       -0.0046
      9 C          -5.3091  -19.2802   19.7243 C.ar    1  UNL1       -0.0032
     10 C          -1.8374  -17.5495   20.5620 C.3     1  UNL1        0.0189
     11 C          -2.0770  -16.6512   21.7391 C.3     1  UNL1        0.0044
     12 C          -1.5977  -18.4478   19.3849 C.3     1  UNL1        0.0044
     13 C          -0.4708  -16.9563   20.3875 C.3     1  UNL1        0.0044
     14 C          -9.3850  -18.3698   21.1734 C.3     1  UNL1        0.0994
     15 C          -9.5449  -18.3851   22.6648 C.ar    1  UNL1       -0.0061
     16 C         -10.3459  -19.4697   23.3221 C.ar    1  UNL1       -0.0029
     17 C         -10.5058  -19.4850   24.8135 C.ar    1  UNL1       -0.0003
     18 C          -9.8648  -18.4157   25.6475 C.ar    1  UNL1       -0.0000
     19 C          -9.0638  -17.3310   24.9902 C.ar    1  UNL1       -0.0003
     20 C          -8.4228  -16.2617   25.8242 C.ar    1  UNL1       -0.0000
     21 C          -7.6219  -15.1771   25.1669 C.ar    1  UNL1       -0.0000
     22 C          -7.4620  -15.1618   23.6755 C.ar    1  UNL1       -0.0000
     23 C          -8.1030  -16.2311   22.8415 C.ar    1  UNL1       -0.0003
     24 C          -8.9039  -17.3157   23.4988 C.ar    1  UNL1       -0.0027
@<TRIPOS>BOND
     1     1     2    1
     2     2     3    1
     3     3     4    1
     4     4     5   ar
     5     5     6   ar
     6     6     7   ar
     7     7    10    1
     8    10    11    1
     9    10    12    1
    10    10    13    1
    11     7     8   ar
    12     8     9   ar
    13     2    14    1
    14    14    15    1
    15    15    16   ar
    16    16    17   ar
    17    17    18   ar
    18    18    19   ar
    19    19    20   ar
    20    20    21   ar
    21    21    22   ar
    22    22    23   ar
    23    23    24   ar
    24     9     4   ar
    25    24    15   ar
    26    24    19   ar
@<TRIPOS>MOLECULE
*****
 24 26 0 0 0
SMALL
GASTEIGER

@<TRIPOS>ATOM
      1 C          -5.3152  -15.2564   24.6944 C.3     1  UNL1        0.0902
      2 N          -5.5490  -16.3239   23.6669 N.3     1  UNL1       -0.2639
      3 C          -6.5720  -16.1167   22.5895 C.3     1  UNL1        0.0994
      4 C          -8.0034  -16.4936   22.8320 C.ar    1  UNL1       -0.0062
      5 C          -9.0491  -16.1656   21.8078 C.ar    1  UNL1       -0.0032
      6 C         -10.4806  -16.5426   22.0502 C.ar    1  UNL1       -0.0046
      7 C         -10.8664  -17.2475   23.3169 C.ar    1  UNL1       -0.0228
      8 C          -9.8207  -17.5755   24.3410 C.ar    1  UNL1       -0.0046
      9 C          -8.3891  -17.1985   24.0985 C.ar    1  UNL1       -0.0032
     10 C         -12.2978  -17.6245   23.5593 C.3     1  UNL1        0.0189
     11 C         -11.8501  -18.7920   24.3878 C.3     1  UNL1        0.0044
     12 C         -12.7456  -16.4570   22.7308 C.3     1  UNL1        0.0044
     13 C         -13.7293  -18.0014   23.8017 C.3     1  UNL1        0.0044
     14 C          -4.7599  -17.5986   23.7168 C.3     1  UNL1        0.0994
     15 C          -4.5096  -18.3754   22.4583 C.ar    1  UNL1       -0.0061
     16 C          -5.4283  -19.4972   22.0741 C.ar    1  UNL1       -0.0029
     17 C          -5.1780  -20.2740   20.8156 C.ar    1  UNL1       -0.0003
     18 C          -4.0090  -19.9291   19.9412 C.ar    1  UNL1       -0.0000
     19 C          -3.0903  -18.8073   20.3254 C.ar    1  UNL1       -0.0003
     20 C          -1.9214  -18.4623   19.4510 C.ar    1  UNL1       -0.0000
     21 C          -1.0027  -17.3406   19.8352 C.ar    1  UNL1       -0.0000
     22 C          -1.2530  -16.5637   21.0937 C.ar    1  UNL1       -0.0000
     23 C          -2.4219  -16.9086   21.9681 C.ar    1  UNL1       -0.0003
     24 C          -3.3406  -18.0304   21.5839 C.ar    1  UNL1       -0.0027
@<TRIPOS>BOND
     1     1     2    1
     2     2     3    1
     3     3     4    1
     4     4     5   ar
     5     5     6   ar
     6     6     7   ar
     7     7    10    1
     8    10    11    1
     9    10    12    1
    10    10    13    1
    11     7     8   ar
    12     8     9   ar
    13     2    14    1
    14    14    15    1
    15    15    16   ar
    16    16    17   ar
    17    17    18   ar
    18    18    19   ar
    19    19    20   ar
    20    20    21   ar
    21    21    22   ar
    22    22    23   ar
    23    23    24   ar
    24     9     4   ar
    25    24    15   ar
    26    24    19   ar
@<TRIPOS>MOLECULE
*****
 24 26 0 0 0
SMALL
GASTEIGER

@<TRIPOS>ATOM
      1 C          -8.9811  -19.5025   19.6704 C.3     1  UNL1        0.0902
      2 N          -8.2722  -19.1067   20.9317 N.3     1  UNL1       -0.2639
      3 C          -7.1023  -19.9097   21.4181 C.3     1  UNL1        0.0994
      4 C          -5.7044  -19.4500   21.1277 C.ar    1  UNL1       -0.0062
      5 C          -4.7321  -19.2489   22.2521 C.ar    1  UNL1       -0.0032
      6 C          -3.3342  -18.7892   21.9617 C.ar    1  UNL1       -0.0046
      7 C          -2.9084  -18.5306   20.5467 C.ar    1  UNL1       -0.0228
      8 C          -3.8807  -18.7317   19.4223 C.ar    1  UNL1       -0.0046
      9 C          -5.2787  -19.1915   19.7128 C.ar    1  UNL1       -0.0032
     10 C          -1.5105  -18.0709   20.2563 C.3     1  UNL1        0.0189
     11 C          -1.7771  -18.1898   18.7850 C.3     1  UNL1        0.0044
     12 C          -1.2439  -17.9520   21.7276 C.3     1  UNL1        0.0044
     13 C          -0.1125  -17.6112   19.9659 C.3     1  UNL1        0.0044
     14 C          -8.7332  -17.9079   21.7066 C.3     1  UNL1        0.0994
     15 C         -10.1538  -17.4406   21.5904 C.ar    1  UNL1       -0.0061
     16 C         -10.5685  -16.5818   20.4327 C.ar    1  UNL1       -0.0029
     17 C         -11.9891  -16.1145   20.3165 C.ar    1  UNL1       -0.0003
     18 C         -12.9950  -16.5060   21.3580 C.ar    1  UNL1       -0.0000
     19 C         -12.5803  -17.3649   22.5158 C.ar    1  UNL1       -0.0003
     20 C         -13.5862  -17.7565   23.5573 C.ar    1  UNL1       -0.0000
     21 C         -13.1715  -18.6154   24.7150 C.ar    1  UNL1       -0.0000
     22 C         -11.7509  -19.0827   24.8312 C.ar    1  UNL1       -0.0000
     23 C         -10.7450  -18.6911   23.7897 C.ar    1  UNL1       -0.0003
     24 C         -11.1597  -17.8323   22.6320 C.ar    1  UNL1       -0.0027
@<TRIPOS>BOND
     1     1     2    1
     2     2     3    1
     3     3     4    1
     4     4     5   ar
     5     5     6   ar
     6     6     7   ar
     7     7    10    1
     8    10    11    1
     9    10    12    1
    10    10    13    1
    11     7     8   ar
    12     8     9   ar
    13     2    14    1
    14    14    15    1
    15    15    16   ar
    16    16    17   ar
    17    17    18   ar
    18    18    19   ar
    19    19    20   ar
    20    20    21   ar
    21    21    22   ar
    22    22    23   ar
    23    23    24   ar
    24     9     4   ar
    25    24    15   ar
    26    24    19   ar
@<TRIPOS>MOLECULE
*****
 24 26 0 0 0
SMALL
GASTEIGER

@<TRIPOS>ATOM
      1 C         -11.9112  -17.8216   20.8693 C.3     1  UNL1        0.0902
      2 N         -10.4707  -18.0276   21.2332 N.3     1  UNL1       -0.2639
      3 C          -9.7683  -19.2901   20.8296 C.3     1  UNL1        0.0994
      4 C          -8.2734  -19.3773   20.9168 C.ar    1  UNL1       -0.0062
      5 C          -7.4354  -19.1318   19.6972 C.ar    1  UNL1       -0.0032
      6 C          -5.9405  -19.2191   19.7844 C.ar    1  UNL1       -0.0046
      7 C          -5.2835  -19.5518   21.0912 C.ar    1  UNL1       -0.0228
      8 C          -6.1215  -19.7973   22.3108 C.ar    1  UNL1       -0.0046
      9 C          -7.6165  -19.7100   22.2236 C.ar    1  UNL1       -0.0032
     10 C          -3.7886  -19.6391   21.1784 C.3     1  UNL1        0.0189
     11 C          -3.8497  -19.2415   22.6234 C.3     1  UNL1        0.0044
     12 C          -3.7276  -20.0367   19.7334 C.3     1  UNL1        0.0044
     13 C          -2.2937  -19.7264   21.2656 C.3     1  UNL1        0.0044
     14 C          -9.7326  -16.9711   22.0006 C.3     1  UNL1        0.0994
     15 C          -9.4947  -17.1411   23.4718 C.ar    1  UNL1       -0.0061
     16 C         -10.4278  -17.9836   24.2900 C.ar    1  UNL1       -0.0029
     17 C         -10.1899  -18.1536   25.7612 C.ar    1  UNL1       -0.0003
     18 C          -9.0189  -17.4811   26.4143 C.ar    1  UNL1       -0.0000
     19 C          -8.0857  -16.6385   25.5961 C.ar    1  UNL1       -0.0003
     20 C          -6.9147  -15.9660   26.2491 C.ar    1  UNL1       -0.0000
     21 C          -5.9816  -15.1235   25.4309 C.ar    1  UNL1       -0.0000
     22 C          -6.2195  -14.9535   23.9597 C.ar    1  UNL1       -0.0000
     23 C          -7.3905  -15.6260   23.3067 C.ar    1  UNL1       -0.0003
     24 C          -8.3236  -16.4685   24.1249 C.ar    1  UNL1       -0.0027
@<TRIPOS>BOND
     1     1     2    1
     2     2     3    1
     3     3     4    1
     4     4     5   ar
     5     5     6   ar
     6     6     7   ar
     7     7    10    1
     8    10    11    1
     9    10    12    1
    10    10    13    1
    11     7     8   ar
    12     8     9   ar
    13     2    14    1
    14    14    15    1
    15    15    16   ar
    16    16    17   ar
    17    17    18   ar
    18    18    19   ar
    19    19    20   ar
    20    20    21   ar
    21    21    22   ar
    22    22    23   ar
    23    23    24   ar
    24     9     4   ar
    25    24    15   ar
    26    24    19   ar
@<TRIPOS>MOLECULE
*****
 24 26 0 0 0
SMALL
GASTEIGER

@<TRIPOS>ATOM
      1 C          -8.0732  -14.9805   24.6247 C.3     1  UNL1        0.0902
      2 N          -7.1891  -16.0839   24.1238 N.3     1  UNL1       -0.2639
      3 C          -5.7561  -16.1541   24.5618 C.3     1  UNL1        0.0994
      4 C          -4.7010  -16.6213   23.6035 C.ar    1  UNL1       -0.0062
      5 C          -4.5682  -18.0816   23.2876 C.ar    1  UNL1       -0.0032
      6 C          -3.5131  -18.5488   22.3293 C.ar    1  UNL1       -0.0046
      7 C          -2.5907  -17.5556   21.6867 C.ar    1  UNL1       -0.0228
      8 C          -2.7235  -16.0952   22.0026 C.ar    1  UNL1       -0.0046
      9 C          -3.7787  -15.6281   22.9610 C.ar    1  UNL1       -0.0032
     10 C          -1.5356  -18.0228   20.7284 C.3     1  UNL1        0.0189
     11 C          -2.0194  -19.4341   20.8838 C.3     1  UNL1        0.0044
     12 C          -1.0519  -16.6115   20.5730 C.3     1  UNL1        0.0044
     13 C          -0.4805  -18.4899   19.7701 C.3     1  UNL1        0.0044
     14 C          -7.7379  -17.1170   23.1850 C.3     1  UNL1        0.0994
     15 C          -9.1152  -17.6707   23.4011 C.ar    1  UNL1       -0.0061
     16 C          -9.3710  -18.6261   24.5287 C.ar    1  UNL1       -0.0029
     17 C         -10.7483  -19.1797   24.7447 C.ar    1  UNL1       -0.0003
     18 C         -11.8697  -18.7779   23.8332 C.ar    1  UNL1       -0.0000
     19 C         -11.6138  -17.8225   22.7054 C.ar    1  UNL1       -0.0003
     20 C         -12.7352  -17.4207   21.7939 C.ar    1  UNL1       -0.0000
     21 C         -12.4793  -16.4652   20.6662 C.ar    1  UNL1       -0.0000
     22 C         -11.1021  -15.9116   20.4502 C.ar    1  UNL1       -0.0000
     23 C          -9.9807  -16.3134   21.3618 C.ar    1  UNL1       -0.0003
     24 C         -10.2366  -17.2688   22.4894 C.ar    1  UNL1       -0.0027
@<TRIPOS>BOND
     1     1     2    1
     2     2     3    1
     3     3     4    1
     4     4     5   ar
     5     5     6   ar
     6     6     7   ar
     7     7    10    1
     8    10    11    1
     9    10    12    1
    10    10    13    1
    11     7     8   ar
    12     8     9   ar
    13     2    14    1
    14    14    15    1
    15    15    16   ar
    16    16    17   ar
    17    17    18   ar
    18    18    19   ar
    19    19    20   ar
    20    20    21   ar
    21    21    22   ar
    22    22    23   ar
    23    23    24   ar
    24     9     4   ar
    25    24    15   ar
    26    24    19   ar
