@<TRIPOS>MOLECULE
*****
 36 40 0 0 0
SMALL
GASTEIGER

@<TRIPOS>ATOM
      1 C          -8.9944  -19.9092   22.6277 C.ar    1  UNL1        0.0118
      2 C          -7.5321  -19.6999   22.3670 C.ar    1  UNL1        0.0007
      3 C          -7.0707  -19.2256   21.0209 C.ar    1  UNL1        0.0237
      4 C          -8.0715  -18.9606   19.9355 C.ar    1  UNL1        0.0051
      5 C          -9.5338  -19.1698   20.1962 C.ar    1  UNL1        0.0366
      6 C          -9.9952  -19.6441   21.5424 C.ar    1  UNL1        0.1345
      7 C          -5.6084  -19.0163   20.7601 C.ar    1  UNL1        0.1100
      8 N          -5.0052  -18.4934   19.4902 N.ar    1  UNL1       -0.2430
      9 C          -3.5166  -18.4471   19.6688 C.ar    1  UNL1        0.0615
     10 C          -3.1997  -18.9415   21.0490 C.ar    1  UNL1        0.0222
     11 S          -4.4925  -19.2933   21.7235 S.2     1  UNL1       -0.0712
     12 C          -1.7750  -19.0075   21.5134 C.3     1  UNL1        0.0342
     13 C          -0.6671  -18.5791   20.5975 C.3     1  UNL1        0.0057
     14 C          -0.9840  -18.0847   19.2172 C.3     1  UNL1        0.0067
     15 C          -2.4087  -18.0187   18.7528 C.3     1  UNL1        0.0460
     16 C          -9.4558  -20.3835   23.9739 C.3     1  UNL1        0.0294
     17 C         -11.4189  -19.0471   25.0278 C.3     1  UNL1        0.0004
     18 C          -9.9608  -19.3965   24.9843 C.3     1  UNL1        0.0048
     19 O         -11.4575  -19.8534   21.8031 O.3     1  UNL1       -0.4756
     20 C         -12.4522  -18.8174   21.3705 C.3     1  UNL1        0.2092
     21 C         -12.9238  -17.7779   22.3437 C.3     1  UNL1        0.0946
     22 C         -12.3944  -16.3768   22.2597 C.3     1  UNL1        0.2093
     23 O         -11.0433  -16.1203   21.6607 O.3     1  UNL1       -0.4753
     24 C          -9.8390  -16.0064   22.5477 C.ar    1  UNL1        0.1382
     25 C          -8.4665  -15.9485   21.9452 C.ar    1  UNL1        0.0366
     26 C          -7.2623  -15.8346   22.8322 C.ar    1  UNL1       -0.0015
     27 C          -7.4304  -15.7785   24.3216 C.ar    1  UNL1       -0.0259
     28 C          -8.8029  -15.8363   24.9242 C.ar    1  UNL1       -0.0231
     29 C         -10.0072  -15.9503   24.0372 C.ar    1  UNL1        0.0323
     30 C          -8.6581  -15.7609   26.4152 C.3     1  UNL1        0.0265
     31 C          -7.1961  -15.6564   26.7343 C.3     1  UNL1        0.0094
     32 C          -6.4374  -15.6673   25.4404 C.3     1  UNL1        0.0279
     33 C          -4.9473  -15.5819   25.2913 C.3     1  UNL1        0.0460
     34 C          -4.2358  -16.4927   24.3352 C.2     1  UNL1        0.0507
     35 O          -3.9227  -16.0241   22.9451 O.co2   1  UNL1       -0.5492
     36 O          -3.8375  -17.8722   24.7691 O.co2   1  UNL1       -0.5492
@<TRIPOS>UNITY_ATOM_ATTR
35 1
charge -1
@<TRIPOS>BOND
     1    17    18    1
     2    18    16    1
     3    16     1    1
     4     1     2   ar
     5     2     3   ar
     6     3     7    1
     7     7     8   ar
     8     8     9   ar
     9     9    10   ar
    10    10    11   ar
    11    10    12    1
    12    12    13    1
    13    13    14    1
    14    14    15    1
    15     3     4   ar
    16     4     5   ar
    17     5     6   ar
    18     6    19    1
    19    19    20    1
    20    20    21    1
    21    21    22    1
    22    22    23    1
    23    23    24    1
    24    24    25   ar
    25    25    26   ar
    26    26    27   ar
    27    27    28   ar
    28    28    29   ar
    29    28    30    1
    30    30    31    1
    31    31    32    1
    32    32    33    1
    33    33    34    1
    34    34    35   ar
    35    34    36   ar
    36     6     1   ar
    37    29    24   ar
    38    11     7   ar
    39    32    27    1
    40    15     9    1
@<TRIPOS>MOLECULE
*****
 36 40 0 0 0
SMALL
GASTEIGER

@<TRIPOS>ATOM
      1 C          -8.8680  -19.8547   22.5603 C.ar    1  UNL1        0.0118
      2 C          -7.4025  -19.6127   22.3507 C.ar    1  UNL1        0.0007
      3 C          -6.8958  -19.2020   21.0000 C.ar    1  UNL1        0.0237
      4 C          -7.8546  -19.0335   19.8588 C.ar    1  UNL1        0.0051
      5 C          -9.3200  -19.2756   20.0684 C.ar    1  UNL1        0.0366
      6 C          -9.8267  -19.6862   21.4191 C.ar    1  UNL1        0.1345
      7 C          -5.4304  -18.9599   20.7904 C.ar    1  UNL1        0.1100
      8 N          -4.7679  -18.6386   19.4836 N.ar    1  UNL1       -0.2430
      9 C          -3.2982  -18.4767   19.7364 C.ar    1  UNL1        0.0615
     10 C          -3.0524  -18.6980   21.1995 C.ar    1  UNL1        0.0222
     11 S          -4.3702  -18.9967   21.8509 S.2     1  UNL1       -0.0712
     12 C          -1.6605  -18.5990   21.7495 C.3     1  UNL1        0.0342
     13 C          -0.5143  -18.2787   20.8365 C.3     1  UNL1        0.0057
     14 C          -0.7601  -18.0574   19.3734 C.3     1  UNL1        0.0067
     15 C          -2.1521  -18.1564   18.8233 C.3     1  UNL1        0.0460
     16 C          -9.3746  -20.2654   23.9111 C.3     1  UNL1        0.0294
     17 C         -11.4103  -19.0597   24.9847 C.3     1  UNL1        0.0004
     18 C          -9.9265  -19.2343   24.8504 C.3     1  UNL1        0.0048
     19 O         -11.2921  -19.9283   21.6287 O.3     1  UNL1       -0.4756
     20 C         -12.2813  -18.8388   21.3382 C.3     1  UNL1        0.2092
     21 C         -12.0457  -17.4528   21.8612 C.3     1  UNL1        0.0946
     22 C         -11.5622  -16.3746   20.9372 C.3     1  UNL1        0.2093
     23 O         -10.0970  -16.0668   20.8456 O.3     1  UNL1       -0.4753
     24 C          -9.2774  -15.9414   22.0956 C.ar    1  UNL1        0.1382
     25 C          -9.9455  -15.9845   23.4380 C.ar    1  UNL1        0.0366
     26 C          -9.1259  -15.8590   24.6880 C.ar    1  UNL1       -0.0015
     27 C          -7.6383  -15.6904   24.5957 C.ar    1  UNL1       -0.0259
     28 C          -6.9702  -15.6473   23.2534 C.ar    1  UNL1       -0.0231
     29 C          -7.7898  -15.7728   22.0033 C.ar    1  UNL1        0.0323
     30 C          -5.4969  -15.4725   23.4742 C.3     1  UNL1        0.0265
     31 C          -5.2544  -15.4076   24.9531 C.3     1  UNL1        0.0094
     32 C          -6.5779  -15.5423   25.6462 C.3     1  UNL1        0.0279
     33 C          -6.8016  -15.5308   27.1293 C.3     1  UNL1        0.0460
     34 C          -8.1943  -15.6261   27.6784 C.2     1  UNL1        0.0507
     35 O          -8.8734  -16.9602   27.7734 O.co2   1  UNL1       -0.5492
     36 O          -8.9078  -14.3874   28.1326 O.co2   1  UNL1       -0.5492
@<TRIPOS>UNITY_ATOM_ATTR
35 1
charge -1
@<TRIPOS>BOND
     1    17    18    1
     2    18    16    1
     3    16     1    1
     4     1     2   ar
     5     2     3   ar
     6     3     7    1
     7     7     8   ar
     8     8     9   ar
     9     9    10   ar
    10    10    11   ar
    11    10    12    1
    12    12    13    1
    13    13    14    1
    14    14    15    1
    15     3     4   ar
    16     4     5   ar
    17     5     6   ar
    18     6    19    1
    19    19    20    1
    20    20    21    1
    21    21    22    1
    22    22    23    1
    23    23    24    1
    24    24    25   ar
    25    25    26   ar
    26    26    27   ar
    27    27    28   ar
    28    28    29   ar
    29    28    30    1
    30    30    31    1
    31    31    32    1
    32    32    33    1
    33    33    34    1
    34    34    35   ar
    35    34    36   ar
    36     6     1   ar
    37    29    24   ar
    38    11     7   ar
    39    32    27    1
    40    15     9    1
@<TRIPOS>MOLECULE
*****
 36 40 0 0 0
SMALL
GASTEIGER

@<TRIPOS>ATOM
      1 C          -7.4478  -15.8375   24.3407 C.ar    1  UNL1        0.0118
      2 C          -6.3581  -16.2361   23.3901 C.ar    1  UNL1        0.0007
      3 C          -4.9438  -16.3517   23.8763 C.ar    1  UNL1        0.0237
      4 C          -4.6192  -16.0685   25.3131 C.ar    1  UNL1        0.0051
      5 C          -5.7089  -15.6699   26.2637 C.ar    1  UNL1        0.0366
      6 C          -7.1232  -15.5544   25.7775 C.ar    1  UNL1        0.1345
      7 C          -3.8541  -16.7503   22.9257 C.ar    1  UNL1        0.1100
      8 N          -2.8761  -15.8233   22.2668 N.ar    1  UNL1       -0.2430
      9 C          -1.9686  -16.6460   21.4010 C.ar    1  UNL1        0.0615
     10 C          -2.3857  -18.0815   21.5248 C.ar    1  UNL1        0.0222
     11 S          -3.5510  -18.1459   22.4671 S.2     1  UNL1       -0.0712
     12 C          -1.6506  -19.1445   20.7635 C.3     1  UNL1        0.0342
     13 C          -0.4984  -18.7720   19.8784 C.3     1  UNL1        0.0057
     14 C          -0.0812  -17.3365   19.7546 C.3     1  UNL1        0.0067
     15 C          -0.8163  -16.2735   20.5159 C.3     1  UNL1        0.0460
     16 C          -8.8621  -15.7220   23.8544 C.3     1  UNL1        0.0294
     17 C         -10.4728  -16.3189   21.9052 C.3     1  UNL1        0.0004
     18 C          -9.1571  -15.7813   22.3849 C.3     1  UNL1        0.0048
     19 O          -8.2129  -15.1557   26.7281 O.3     1  UNL1       -0.4756
     20 C          -8.8926  -16.1957   27.5686 C.3     1  UNL1        0.2092
     21 C          -8.9989  -17.6078   27.0739 C.3     1  UNL1        0.0946
     22 C          -9.9751  -17.9505   25.9877 C.3     1  UNL1        0.2093
     23 O          -9.9481  -19.3112   25.3570 O.3     1  UNL1       -0.4753
     24 C          -9.7240  -19.4490   23.8803 C.ar    1  UNL1        0.1382
     25 C         -10.8476  -19.8888   22.9890 C.ar    1  UNL1        0.0366
     26 C         -10.6235  -20.0267   21.5123 C.ar    1  UNL1       -0.0015
     27 C          -9.2760  -19.7247   20.9267 C.ar    1  UNL1       -0.0259
     28 C          -8.1524  -19.2849   21.8179 C.ar    1  UNL1       -0.0231
     29 C          -8.3765  -19.1471   23.2947 C.ar    1  UNL1        0.0323
     30 C          -6.9423  -19.0589   20.9610 C.3     1  UNL1        0.0265
     31 C          -7.3179  -19.3591   19.5401 C.3     1  UNL1        0.0094
     32 C          -8.7602  -19.7705   19.5190 C.3     1  UNL1        0.0279
     33 C          -9.5483  -20.1596   18.3035 C.3     1  UNL1        0.0460
     34 C          -9.0915  -21.3038   17.4479 C.2     1  UNL1        0.0507
     35 O          -9.6336  -21.4647   16.0586 O.co2   1  UNL1       -0.5492
     36 O          -8.0925  -22.2872   17.9816 O.co2   1  UNL1       -0.5492
@<TRIPOS>UNITY_ATOM_ATTR
35 1
charge -1
@<TRIPOS>BOND
     1    17    18    1
     2    18    16    1
     3    16     1    1
     4     1     2   ar
     5     2     3   ar
     6     3     7    1
     7     7     8   ar
     8     8     9   ar
     9     9    10   ar
    10    10    11   ar
    11    10    12    1
    12    12    13    1
    13    13    14    1
    14    14    15    1
    15     3     4   ar
    16     4     5   ar
    17     5     6   ar
    18     6    19    1
    19    19    20    1
    20    20    21    1
    21    21    22    1
    22    22    23    1
    23    23    24    1
    24    24    25   ar
    25    25    26   ar
    26    26    27   ar
    27    27    28   ar
    28    28    29   ar
    29    28    30    1
    30    30    31    1
    31    31    32    1
    32    32    33    1
    33    33    34    1
    34    34    35   ar
    35    34    36   ar
    36     6     1   ar
    37    29    24   ar
    38    11     7   ar
    39    32    27    1
    40    15     9    1
@<TRIPOS>MOLECULE
*****
 36 40 0 0 0
SMALL
GASTEIGER

@<TRIPOS>ATOM
      1 C           6.0680   -2.7429   19.9404 C.ar    1  UNL1        0.0118
      2 C           6.3078   -3.7489   21.0269 C.ar    1  UNL1        0.0007
      3 C           6.9675   -3.3279   22.3065 C.ar    1  UNL1        0.0237
      4 C           7.3873   -1.9009   22.4997 C.ar    1  UNL1        0.0051
      5 C           7.1475   -0.8949   21.4132 C.ar    1  UNL1        0.0366
      6 C           6.4878   -1.3159   20.1336 C.ar    1  UNL1        0.1345
      7 C           7.2073   -4.3339   23.3930 C.ar    1  UNL1        0.1100
      8 N           7.7695   -5.7124   23.2098 N.ar    1  UNL1       -0.2430
      9 C           7.8367   -6.3685   24.5570 C.ar    1  UNL1        0.0615
     10 C           7.3161   -5.3955   25.5729 C.ar    1  UNL1        0.0222
     11 S           6.9271   -4.1380   24.8535 S.2     1  UNL1       -0.0712
     12 C           7.2634   -5.7801   27.0218 C.3     1  UNL1        0.0342
     13 C           7.7315   -7.1379   27.4547 C.3     1  UNL1        0.0057
     14 C           8.2521   -8.1109   26.4388 C.3     1  UNL1        0.0067
     15 C           8.3047   -7.7263   24.9899 C.3     1  UNL1        0.0460
     16 C           5.4082   -3.1639   18.6607 C.3     1  UNL1        0.0294
     17 C           3.2144   -4.4649   19.1555 C.3     1  UNL1        0.0004
     18 C           4.6115   -4.4338   18.6101 C.3     1  UNL1        0.0048
     19 O           6.2480   -0.3099   19.0471 O.3     1  UNL1       -0.4756
     20 C           4.9850    0.4992   19.0396 C.3     1  UNL1        0.2092
     21 C           3.9113    0.2044   18.0345 C.3     1  UNL1        0.0946
     22 C           2.4831    0.0825   18.4766 C.3     1  UNL1        0.2093
     23 O           2.1061   -0.9194   19.5273 O.3     1  UNL1       -0.4753
     24 C           2.2443   -0.5711   20.9797 C.ar    1  UNL1        0.1382
     25 C           1.4493    0.5618   21.5582 C.ar    1  UNL1        0.0366
     26 C           1.5875    0.9102   23.0106 C.ar    1  UNL1       -0.0015
     27 C           2.5205    0.1256   23.8846 C.ar    1  UNL1       -0.0259
     28 C           3.3154   -1.0073   23.3062 C.ar    1  UNL1       -0.0231
     29 C           3.1773   -1.3557   21.8537 C.ar    1  UNL1        0.0323
     30 C           4.1493   -1.5969   24.4048 C.3     1  UNL1        0.0265
     31 C           3.8697   -0.8284   25.6623 C.3     1  UNL1        0.0094
     32 C           2.8631    0.2362   25.3408 C.3     1  UNL1        0.0279
     33 C           2.2981    1.2358   26.3059 C.3     1  UNL1        0.0460
     34 C           0.9207    1.0410   26.8670 C.2     1  UNL1        0.0507
     35 O          -0.2813    1.2573   25.9961 O.co2   1  UNL1       -0.5492
     36 O           0.7452    0.6301   28.2988 O.co2   1  UNL1       -0.5492
@<TRIPOS>UNITY_ATOM_ATTR
35 1
charge -1
@<TRIPOS>BOND
     1    17    18    1
     2    18    16    1
     3    16     1    1
     4     1     2   ar
     5     2     3   ar
     6     3     7    1
     7     7     8   ar
     8     8     9   ar
     9     9    10   ar
    10    10    11   ar
    11    10    12    1
    12    12    13    1
    13    13    14    1
    14    14    15    1
    15     3     4   ar
    16     4     5   ar
    17     5     6   ar
    18     6    19    1
    19    19    20    1
    20    20    21    1
    21    21    22    1
    22    22    23    1
    23    23    24    1
    24    24    25   ar
    25    25    26   ar
    26    26    27   ar
    27    27    28   ar
    28    28    29   ar
    29    28    30    1
    30    30    31    1
    31    31    32    1
    32    32    33    1
    33    33    34    1
    34    34    35   ar
    35    34    36   ar
    36     6     1   ar
    37    29    24   ar
    38    11     7   ar
    39    32    27    1
    40    15     9    1
@<TRIPOS>MOLECULE
*****
 36 40 0 0 0
SMALL
GASTEIGER

@<TRIPOS>ATOM
      1 C         -14.6787   -0.5725   16.7599 C.ar    1  UNL1        0.0118
      2 C         -13.9993   -1.9046   16.8775 C.ar    1  UNL1        0.0007
      3 C         -12.7222   -2.0292   17.6542 C.ar    1  UNL1        0.0237
      4 C         -12.1245   -0.8216   18.3134 C.ar    1  UNL1        0.0051
      5 C         -12.8040    0.5105   18.1958 C.ar    1  UNL1        0.0366
      6 C         -14.0811    0.6350   17.4190 C.ar    1  UNL1        0.1345
      7 C         -12.0427   -3.3613   17.7718 C.ar    1  UNL1        0.1100
      8 N         -10.9442   -3.7090   18.7322 N.ar    1  UNL1       -0.2430
      9 C         -10.5650   -5.1422   18.5036 C.ar    1  UNL1        0.0615
     10 C         -11.4292   -5.6803   17.4020 C.ar    1  UNL1        0.0222
     11 S         -12.3425   -4.5796   16.9498 S.2     1  UNL1       -0.0712
     12 C         -11.2729   -7.1029   16.9530 C.3     1  UNL1        0.0342
     13 C         -10.2524   -7.9875   17.6057 C.3     1  UNL1        0.0057
     14 C          -9.3882   -7.4494   18.7073 C.3     1  UNL1        0.0067
     15 C          -9.5445   -6.0268   19.1563 C.3     1  UNL1        0.0460
     16 C         -15.9559   -0.4480   15.9830 C.3     1  UNL1        0.0294
     17 C         -18.4453   -1.1477   16.2349 C.3     1  UNL1        0.0004
     18 C         -17.0005   -1.5201   16.0804 C.3     1  UNL1        0.0048
     19 O         -14.7605    1.9671   17.3014 O.3     1  UNL1       -0.4756
     20 C         -15.6595    2.4502   18.4007 C.3     1  UNL1        0.2092
     21 C         -16.8820    1.6634   18.7702 C.3     1  UNL1        0.0946
     22 C         -16.7860    0.5591   19.7809 C.3     1  UNL1        0.2093
     23 O         -17.7152   -0.6156   19.6988 O.3     1  UNL1       -0.4753
     24 C         -17.1619   -2.0096   19.6782 C.ar    1  UNL1        0.1382
     25 C         -18.0296   -3.1546   19.2468 C.ar    1  UNL1        0.0366
     26 C         -17.4763   -4.5487   19.2262 C.ar    1  UNL1       -0.0015
     27 C         -16.0553   -4.7977   19.6369 C.ar    1  UNL1       -0.0259
     28 C         -15.1876   -3.6528   20.0683 C.ar    1  UNL1       -0.0231
     29 C         -15.7409   -2.2587   20.0889 C.ar    1  UNL1        0.0323
     30 C         -13.8354   -4.2011   20.4158 C.3     1  UNL1        0.0265
     31 C         -13.8674   -5.6851   20.1992 C.3     1  UNL1        0.0094
     32 C         -15.2394   -6.0538   19.7178 C.3     1  UNL1        0.0279
     33 C         -15.7124   -7.4359   19.3772 C.3     1  UNL1        0.0460
     34 C         -15.1051   -8.1725   18.2201 C.2     1  UNL1        0.0507
     35 O         -14.9614   -9.6646   18.2732 O.co2   1  UNL1       -0.5492
     36 O         -14.6416   -7.4170   17.0101 O.co2   1  UNL1       -0.5492
@<TRIPOS>UNITY_ATOM_ATTR
35 1
charge -1
@<TRIPOS>BOND
     1    17    18    1
     2    18    16    1
     3    16     1    1
     4     1     2   ar
     5     2     3   ar
     6     3     7    1
     7     7     8   ar
     8     8     9   ar
     9     9    10   ar
    10    10    11   ar
    11    10    12    1
    12    12    13    1
    13    13    14    1
    14    14    15    1
    15     3     4   ar
    16     4     5   ar
    17     5     6   ar
    18     6    19    1
    19    19    20    1
    20    20    21    1
    21    21    22    1
    22    22    23    1
    23    23    24    1
    24    24    25   ar
    25    25    26   ar
    26    26    27   ar
    27    27    28   ar
    28    28    29   ar
    29    28    30    1
    30    30    31    1
    31    31    32    1
    32    32    33    1
    33    33    34    1
    34    34    35   ar
    35    34    36   ar
    36     6     1   ar
    37    29    24   ar
    38    11     7   ar
    39    32    27    1
    40    15     9    1
@<TRIPOS>MOLECULE
*****
 36 40 0 0 0
SMALL
GASTEIGER

@<TRIPOS>ATOM
      1 C           5.6470    0.0012   21.8507 C.ar    1  UNL1        0.0118
      2 C           6.3908   -1.2534   22.2011 C.ar    1  UNL1        0.0007
      3 C           5.7939   -2.2345   23.1661 C.ar    1  UNL1        0.0237
      4 C           4.4532   -1.9610   23.7806 C.ar    1  UNL1        0.0051
      5 C           3.7094   -0.7064   23.4301 C.ar    1  UNL1        0.0366
      6 C           4.3063    0.2747   22.4652 C.ar    1  UNL1        0.1345
      7 C           6.5377   -3.4891   23.5165 C.ar    1  UNL1        0.1100
      8 N           7.3411   -4.3312   22.5703 N.ar    1  UNL1       -0.2430
      9 C           7.9086   -5.4844   23.3437 C.ar    1  UNL1        0.0615
     10 C           7.4560   -5.3550   24.7679 C.ar    1  UNL1        0.0222
     11 S           6.6087   -4.1218   24.8747 S.2     1  UNL1       -0.0712
     12 C           7.8738   -6.3767   25.7835 C.3     1  UNL1        0.0342
     13 C           8.7442   -7.5279   25.3748 C.3     1  UNL1        0.0057
     14 C           9.1969   -7.6573   23.9506 C.3     1  UNL1        0.0067
     15 C           8.7791   -6.6356   22.9351 C.3     1  UNL1        0.0460
     16 C           6.2440    0.9823   20.8857 C.3     1  UNL1        0.0294
     17 C           8.4159    2.1233   21.7407 C.3     1  UNL1        0.0004
     18 C           7.7322    1.1576   20.8187 C.3     1  UNL1        0.0048
     19 O           3.5626    1.5293   22.1147 O.3     1  UNL1       -0.4756
     20 C           2.1035    1.6520   22.4405 C.3     1  UNL1        0.2092
     21 C           1.1950    2.4272   21.5329 C.3     1  UNL1        0.0946
     22 C           0.0868    1.7265   20.8042 C.3     1  UNL1        0.2093
     23 O           0.3677    1.0230   19.5095 O.3     1  UNL1       -0.4753
     24 C           1.5994    0.1789   19.3665 C.ar    1  UNL1        0.1382
     25 C           1.7310   -1.0945   20.1485 C.ar    1  UNL1        0.0366
     26 C           2.9626   -1.9386   20.0055 C.ar    1  UNL1       -0.0015
     27 C           4.0627   -1.5094   19.0805 C.ar    1  UNL1       -0.0259
     28 C           3.9312   -0.2362   18.2985 C.ar    1  UNL1       -0.0231
     29 C           2.6995    0.6080   18.4415 C.ar    1  UNL1        0.0323
     30 C           5.1709   -0.0706   17.4704 C.3     1  UNL1        0.0265
     31 C           6.0686   -1.2415   17.7406 C.3     1  UNL1        0.0094
     32 C           5.3837   -2.1308   18.7357 C.3     1  UNL1        0.0279
     33 C           5.9248   -3.4158   19.2889 C.3     1  UNL1        0.0460
     34 C           4.9886   -4.5328   19.6434 C.2     1  UNL1        0.0507
     35 O           4.6881   -5.6065   18.6399 O.co2   1  UNL1       -0.5492
     36 O           4.3529   -4.5763   21.0012 O.co2   1  UNL1       -0.5492
@<TRIPOS>UNITY_ATOM_ATTR
35 1
charge -1
@<TRIPOS>BOND
     1    17    18    1
     2    18    16    1
     3    16     1    1
     4     1     2   ar
     5     2     3   ar
     6     3     7    1
     7     7     8   ar
     8     8     9   ar
     9     9    10   ar
    10    10    11   ar
    11    10    12    1
    12    12    13    1
    13    13    14    1
    14    14    15    1
    15     3     4   ar
    16     4     5   ar
    17     5     6   ar
    18     6    19    1
    19    19    20    1
    20    20    21    1
    21    21    22    1
    22    22    23    1
    23    23    24    1
    24    24    25   ar
    25    25    26   ar
    26    26    27   ar
    27    27    28   ar
    28    28    29   ar
    29    28    30    1
    30    30    31    1
    31    31    32    1
    32    32    33    1
    33    33    34    1
    34    34    35   ar
    35    34    36   ar
    36     6     1   ar
    37    29    24   ar
    38    11     7   ar
    39    32    27    1
    40    15     9    1
@<TRIPOS>MOLECULE
*****
 36 40 0 0 0
SMALL
GASTEIGER

@<TRIPOS>ATOM
      1 C           4.2042   -2.8069   20.0463 C.ar    1  UNL1        0.0118
      2 C           3.2424   -1.7206   19.6654 C.ar    1  UNL1        0.0007
      3 C           2.6793   -0.8140   20.7193 C.ar    1  UNL1        0.0237
      4 C           3.0779   -0.9936   22.1541 C.ar    1  UNL1        0.0051
      5 C           4.0396   -2.0799   22.5350 C.ar    1  UNL1        0.0366
      6 C           4.6028   -2.9865   21.4811 C.ar    1  UNL1        0.1345
      7 C           1.7175    0.2723   20.3384 C.ar    1  UNL1        0.1100
      8 N           1.5805    0.8919   18.9792 N.ar    1  UNL1       -0.2430
      9 C           0.5022    1.9322   19.0506 C.ar    1  UNL1        0.0615
     10 C          -0.0272    1.9555   20.4539 C.ar    1  UNL1        0.0222
     11 S           0.7239    0.9296   21.2497 S.2     1  UNL1       -0.0712
     12 C          -1.1248    2.9079   20.8256 C.3     1  UNL1        0.0342
     13 C          -1.6930    3.8369   19.7941 C.3     1  UNL1        0.0057
     14 C          -1.1635    3.8136   18.3909 C.3     1  UNL1        0.0067
     15 C          -0.0659    2.8612   18.0191 C.3     1  UNL1        0.0460
     16 C           4.7673   -3.7136   18.9922 C.3     1  UNL1        0.0294
     17 C           3.2425   -5.6408   19.8353 C.3     1  UNL1        0.0004
     18 C           4.2835   -5.1292   18.8842 C.3     1  UNL1        0.0048
     19 O           5.5645   -4.0727   21.8620 O.3     1  UNL1       -0.4756
     20 C           7.0323   -3.7772   21.9523 C.3     1  UNL1        0.2092
     21 C           7.9327   -4.0882   20.7935 C.3     1  UNL1        0.0946
     22 C           8.7035   -2.9878   20.1263 C.3     1  UNL1        0.2093
     23 O           8.1651   -2.3413   18.8845 O.3     1  UNL1       -0.4753
     24 C           7.2870   -1.1298   18.9900 C.ar    1  UNL1        0.1382
     25 C           6.6740   -0.5379   17.7555 C.ar    1  UNL1        0.0366
     26 C           5.7959    0.6735   17.8610 C.ar    1  UNL1       -0.0015
     27 C           5.5307    1.2932   19.2011 C.ar    1  UNL1       -0.0259
     28 C           6.1436    0.7014   20.4356 C.ar    1  UNL1       -0.0231
     29 C           7.0218   -0.5101   20.3301 C.ar    1  UNL1        0.0323
     30 C           5.7052    1.5239   21.6108 C.3     1  UNL1        0.0265
     31 C           4.8213    2.6241   21.1026 C.3     1  UNL1        0.0094
     32 C           4.7134    2.4815   19.6133 C.3     1  UNL1        0.0279
     33 C           3.9265    3.3711   18.6971 C.3     1  UNL1        0.0460
     34 C           4.6385    4.2629   17.7236 C.2     1  UNL1        0.0507
     35 O           6.1151    4.4908   17.8567 O.co2   1  UNL1       -0.5492
     36 O           3.8740    4.9268   16.6170 O.co2   1  UNL1       -0.5492
@<TRIPOS>UNITY_ATOM_ATTR
35 1
charge -1
@<TRIPOS>BOND
     1    17    18    1
     2    18    16    1
     3    16     1    1
     4     1     2   ar
     5     2     3   ar
     6     3     7    1
     7     7     8   ar
     8     8     9   ar
     9     9    10   ar
    10    10    11   ar
    11    10    12    1
    12    12    13    1
    13    13    14    1
    14    14    15    1
    15     3     4   ar
    16     4     5   ar
    17     5     6   ar
    18     6    19    1
    19    19    20    1
    20    20    21    1
    21    21    22    1
    22    22    23    1
    23    23    24    1
    24    24    25   ar
    25    25    26   ar
    26    26    27   ar
    27    27    28   ar
    28    28    29   ar
    29    28    30    1
    30    30    31    1
    31    31    32    1
    32    32    33    1
    33    33    34    1
    34    34    35   ar
    35    34    36   ar
    36     6     1   ar
    37    29    24   ar
    38    11     7   ar
    39    32    27    1
    40    15     9    1
@<TRIPOS>MOLECULE
*****
 36 40 0 0 0
SMALL
GASTEIGER

@<TRIPOS>ATOM
      1 C           4.2720   -1.7430   21.4737 C.ar    1  UNL1        0.0118
      2 C           3.2774   -1.2443   22.4797 C.ar    1  UNL1        0.0007
      3 C           3.2861    0.1980   22.8917 C.ar    1  UNL1        0.0237
      4 C           4.2893    1.1416   22.2976 C.ar    1  UNL1        0.0051
      5 C           5.2839    0.6429   21.2915 C.ar    1  UNL1        0.0366
      6 C           5.2753   -0.7994   20.8796 C.ar    1  UNL1        0.1345
      7 C           2.2915    0.6966   23.8977 C.ar    1  UNL1        0.1100
      8 N           2.4227    0.6021   25.3889 N.ar    1  UNL1       -0.2430
      9 C           1.2034    1.2244   26.0020 C.ar    1  UNL1        0.0615
     10 C           0.3185    1.7036   24.8897 C.ar    1  UNL1        0.0222
     11 S           0.9910    1.3774   23.5891 S.2     1  UNL1       -0.0712
     12 C          -0.9853    2.3750   25.2047 C.3     1  UNL1        0.0342
     13 C          -1.4042    2.5673   26.6321 C.3     1  UNL1        0.0057
     14 C          -0.5193    2.0881   27.7445 C.3     1  UNL1        0.0067
     15 C           0.7845    1.4167   27.4294 C.3     1  UNL1        0.0460
     16 C           4.2633   -3.1853   21.0618 C.3     1  UNL1        0.0294
     17 C           3.9929   -4.9407   19.1655 C.3     1  UNL1        0.0004
     18 C           3.7015   -3.5812   19.7285 C.3     1  UNL1        0.0048
     19 O           6.2699   -1.2980   19.8736 O.3     1  UNL1       -0.4756
     20 C           6.7481   -0.3912   18.7786 C.3     1  UNL1        0.2092
     21 C           6.2227   -0.5581   17.3836 C.3     1  UNL1        0.0946
     22 C           4.8015   -0.1956   17.0690 C.3     1  UNL1        0.2093
     23 O           3.6842   -0.7481   17.9037 O.3     1  UNL1       -0.4753
     24 C           2.7016    0.1817   18.5517 C.ar    1  UNL1        0.1382
     25 C           1.5183   -0.3724   19.2884 C.ar    1  UNL1        0.0366
     26 C           0.5356    0.5573   19.9364 C.ar    1  UNL1       -0.0015
     27 C           0.7363    2.0412   19.8478 C.ar    1  UNL1       -0.0259
     28 C           1.9196    2.5953   19.1112 C.ar    1  UNL1       -0.0231
     29 C           2.9023    1.6656   18.4631 C.ar    1  UNL1        0.0323
     30 C           1.8560    4.0918   19.1907 C.3     1  UNL1        0.0265
     31 C           0.6333    4.4626   19.9765 C.3     1  UNL1        0.0094
     32 C          -0.0587    3.1953   20.3827 C.3     1  UNL1        0.0279
     33 C          -1.3236    3.0988   21.1831 C.3     1  UNL1        0.0460
     34 C          -2.6538    3.2271   20.5019 C.2     1  UNL1        0.0507
     35 O          -3.9056    2.8120   21.2165 O.co2   1  UNL1       -0.5492
     36 O          -2.7323    3.7705   19.1060 O.co2   1  UNL1       -0.5492
@<TRIPOS>UNITY_ATOM_ATTR
35 1
charge -1
@<TRIPOS>BOND
     1    17    18    1
     2    18    16    1
     3    16     1    1
     4     1     2   ar
     5     2     3   ar
     6     3     7    1
     7     7     8   ar
     8     8     9   ar
     9     9    10   ar
    10    10    11   ar
    11    10    12    1
    12    12    13    1
    13    13    14    1
    14    14    15    1
    15     3     4   ar
    16     4     5   ar
    17     5     6   ar
    18     6    19    1
    19    19    20    1
    20    20    21    1
    21    21    22    1
    22    22    23    1
    23    23    24    1
    24    24    25   ar
    25    25    26   ar
    26    26    27   ar
    27    27    28   ar
    28    28    29   ar
    29    28    30    1
    30    30    31    1
    31    31    32    1
    32    32    33    1
    33    33    34    1
    34    34    35   ar
    35    34    36   ar
    36     6     1   ar
    37    29    24   ar
    38    11     7   ar
    39    32    27    1
    40    15     9    1
@<TRIPOS>MOLECULE
*****
 36 40 0 0 0
SMALL
GASTEIGER

@<TRIPOS>ATOM
      1 C           5.8448   -0.6589   22.0773 C.ar    1  UNL1        0.0118
      2 C           4.5771   -0.1739   22.7159 C.ar    1  UNL1        0.0007
      3 C           3.9302    1.0904   22.2331 C.ar    1  UNL1        0.0237
      4 C           4.5510    1.8696   21.1118 C.ar    1  UNL1        0.0051
      5 C           5.8186    1.3846   20.4732 C.ar    1  UNL1        0.0366
      6 C           6.4655    0.1203   20.9560 C.ar    1  UNL1        0.1345
      7 C           2.6626    1.5754   22.8717 C.ar    1  UNL1        0.1100
      8 N           1.8439    2.7504   22.4253 N.ar    1  UNL1       -0.2430
      9 C           0.6664    2.8718   23.3465 C.ar    1  UNL1        0.0615
     10 C           0.7572    1.7718   24.3623 C.ar    1  UNL1        0.0222
     11 S           1.9909    0.9706   24.0688 S.2     1  UNL1       -0.0712
     12 C          -0.2952    1.6418   25.4232 C.3     1  UNL1        0.0342
     13 C          -1.4384    2.6119   25.4683 C.3     1  UNL1        0.0057
     14 C          -1.5292    3.7119   24.4525 C.3     1  UNL1        0.0067
     15 C          -0.4768    3.8418   23.3916 C.3     1  UNL1        0.0460
     16 C           6.4917   -1.9233   22.5601 C.3     1  UNL1        0.0294
     17 C           4.5036   -3.5882   22.4000 C.3     1  UNL1        0.0004
     18 C           5.9427   -3.2544   22.1399 C.3     1  UNL1        0.0048
     19 O           7.7332   -0.3647   20.3174 O.3     1  UNL1       -0.4756
     20 C           7.7177   -0.8613   18.9021 C.3     1  UNL1        0.2092
     21 C           7.4664   -2.3127   18.6192 C.3     1  UNL1        0.0946
     22 C           6.1605   -2.7451   18.0209 C.3     1  UNL1        0.2093
     23 O           4.9349   -2.8354   18.8809 O.3     1  UNL1       -0.4753
     24 C           3.9349   -1.7174   18.8812 C.ar    1  UNL1        0.1382
     25 C           4.0725   -0.5877   17.9039 C.ar    1  UNL1        0.0366
     26 C           3.0725    0.5303   17.9042 C.ar    1  UNL1       -0.0015
     27 C           1.9348    0.5186   18.8817 C.ar    1  UNL1       -0.0259
     28 C           1.7971   -0.6110   19.8589 C.ar    1  UNL1       -0.0231
     29 C           2.7972   -1.7291   19.8587 C.ar    1  UNL1        0.0323
     30 C           0.5808   -0.3527   20.6978 C.3     1  UNL1        0.0265
     31 C          -0.0333    0.9367   20.2390 C.3     1  UNL1        0.0094
     32 C           0.8035    1.4752   19.1166 C.3     1  UNL1        0.0279
     33 C           0.5531    2.7469   18.3617 C.3     1  UNL1        0.0460
     34 C           1.4051    3.9537   18.6218 C.2     1  UNL1        0.0507
     35 O           2.6658    4.1649   17.8369 O.co2   1  UNL1       -0.5492
     36 O           0.9966    4.9492   19.6667 O.co2   1  UNL1       -0.5492
@<TRIPOS>UNITY_ATOM_ATTR
35 1
charge -1
@<TRIPOS>BOND
     1    17    18    1
     2    18    16    1
     3    16     1    1
     4     1     2   ar
     5     2     3   ar
     6     3     7    1
     7     7     8   ar
     8     8     9   ar
     9     9    10   ar
    10    10    11   ar
    11    10    12    1
    12    12    13    1
    13    13    14    1
    14    14    15    1
    15     3     4   ar
    16     4     5   ar
    17     5     6   ar
    18     6    19    1
    19    19    20    1
    20    20    21    1
    21    21    22    1
    22    22    23    1
    23    23    24    1
    24    24    25   ar
    25    25    26   ar
    26    26    27   ar
    27    27    28   ar
    28    28    29   ar
    29    28    30    1
    30    30    31    1
    31    31    32    1
    32    32    33    1
    33    33    34    1
    34    34    35   ar
    35    34    36   ar
    36     6     1   ar
    37    29    24   ar
    38    11     7   ar
    39    32    27    1
    40    15     9    1
