@<TRIPOS>MOLECULE
*****
 26 28 0 0 0
SMALL
GASTEIGER

@<TRIPOS>ATOM
      1 C          -8.7361  -16.5076   24.9430 C.ar    1  UNL1        0.0218
      2 C          -8.8455  -16.4944   26.4390 C.ar    1  UNL1        0.0989
      3 N          -7.6661  -16.0919   27.2738 N.ar    1  UNL1       -0.2426
      4 C          -6.3772  -15.7025   26.6126 C.ar    1  UNL1        0.0962
      5 C          -6.2678  -15.7156   25.1167 C.ar    1  UNL1        0.0166
      6 C          -7.4473  -16.1182   24.2819 C.ar    1  UNL1        0.0006
      7 C         -10.4050  -18.3278   24.1358 C.ar    1  UNL1        0.1409
      8 C         -11.5845  -18.7303   23.3010 C.ar    1  UNL1        0.0665
      9 C         -12.2745  -17.7152   22.4388 C.ar    1  UNL1        0.1432
     10 F         -13.4540  -18.1178   21.6040 F       1  UNL1       -0.2041
     11 C         -11.7851  -16.2976   22.4113 C.ar    1  UNL1        0.0298
     12 C         -10.6056  -15.8951   23.2460 C.ar    1  UNL1        0.0054
     13 C          -9.9156  -16.9102   24.1083 C.ar    1  UNL1        0.0356
     14 C          -9.5851  -20.7616   24.5286 C.3     1  UNL1        0.2525
     15 O          -9.7150  -19.3429   24.9980 O.3     1  UNL1       -0.4714
     16 C          -4.9789  -15.3262   24.4555 C.3     1  UNL1        0.1182
     17 N          -4.5361  -16.0263   23.2050 N.am    1  UNL1       -0.2956
     18 C          -3.8920  -17.3784   23.2904 C.2     1  UNL1        0.2654
     19 O          -3.6909  -18.0303   24.6263 O.2     1  UNL1       -0.2684
     20 H          -4.6681  -15.5984   22.3283 H       1  UNL1        0.1501
     21 C          -3.4492  -18.0785   22.0400 C.ar    1  UNL1        0.1535
     22 C          -2.0114  -18.4705   21.8690 C.ar    1  UNL1        0.1226
     23 N          -1.5686  -19.1706   20.6185 N.ar    1  UNL1       -0.2390
     24 C          -2.5635  -19.4788   19.5390 C.ar    1  UNL1        0.1195
     25 C          -4.0012  -19.0868   19.7100 C.ar    1  UNL1        0.1196
     26 N          -4.4441  -18.3866   20.9606 N.ar    1  UNL1       -0.2360
@<TRIPOS>BOND
     1    14    15    1
     2    15     7    1
     3     7     8   ar
     4     8     9   ar
     5     9    10    1
     6     9    11   ar
     7    11    12   ar
     8    12    13   ar
     9    13     1    1
    10     1     2   ar
    11     2     3   ar
    12     3     4   ar
    13     4     5   ar
    14     5    16    1
    15    16    17    1
    16    17    18   am
    17    18    19    2
    18    18    21    1
    19    21    22   ar
    20    22    23   ar
    21    23    24   ar
    22    24    25   ar
    23    25    26   ar
    24     5     6   ar
    25    13     7   ar
    26     6     1   ar
    27    26    21   ar
    28    17    20    1
@<TRIPOS>MOLECULE
*****
 26 28 0 0 0
SMALL
GASTEIGER

@<TRIPOS>ATOM
      1 C          -8.6663  -16.8517   23.3144 C.ar    1  UNL1        0.0218
      2 C          -9.4075  -16.7213   24.6120 C.ar    1  UNL1        0.0989
      3 N          -8.7329  -16.1069   25.8025 N.ar    1  UNL1       -0.2426
      4 C          -7.3172  -15.6229   25.6956 C.ar    1  UNL1        0.0962
      5 C          -6.5760  -15.7533   24.3980 C.ar    1  UNL1        0.0166
      6 C          -7.2506  -16.3677   23.2074 C.ar    1  UNL1        0.0006
      7 C          -9.0198  -18.8760   21.7246 C.ar    1  UNL1        0.1409
      8 C          -9.6944  -19.4903   20.5340 C.ar    1  UNL1        0.0665
      9 C         -10.6900  -18.6949   19.7427 C.ar    1  UNL1        0.1432
     10 F         -11.3646  -19.3094   18.5521 F       1  UNL1       -0.2041
     11 C         -11.0110  -17.2852   20.1420 C.ar    1  UNL1        0.0298
     12 C         -10.3365  -16.6708   21.3325 C.ar    1  UNL1        0.0054
     13 C          -9.3409  -17.4662   22.1238 C.ar    1  UNL1        0.0356
     14 C          -6.6262  -19.8473   22.0017 C.3     1  UNL1        0.2525
     15 O          -8.0242  -19.6714   22.5158 O.3     1  UNL1       -0.4714
     16 C          -5.1603  -15.2693   24.2910 C.3     1  UNL1        0.1182
     17 N          -4.2911  -15.7371   23.1616 N.am    1  UNL1       -0.2956
     18 C          -3.6314  -17.0826   23.2305 C.2     1  UNL1        0.2654
     19 O          -3.8410  -17.9601   24.4288 O.2     1  UNL1       -0.2684
     20 H          -4.1536  -15.1612   22.3751 H       1  UNL1        0.1501
     21 C          -2.7622  -17.5504   22.1011 C.ar    1  UNL1        0.1535
     22 C          -2.4725  -19.0126   21.9337 C.ar    1  UNL1        0.1226
     23 N          -1.6033  -19.4804   20.8042 N.ar    1  UNL1       -0.2390
     24 C          -1.0238  -18.4860   19.8422 C.ar    1  UNL1        0.1195
     25 C          -1.3136  -17.0238   20.0096 C.ar    1  UNL1        0.1196
     26 N          -2.1828  -16.5560   21.1391 N.ar    1  UNL1       -0.2360
@<TRIPOS>BOND
     1    14    15    1
     2    15     7    1
     3     7     8   ar
     4     8     9   ar
     5     9    10    1
     6     9    11   ar
     7    11    12   ar
     8    12    13   ar
     9    13     1    1
    10     1     2   ar
    11     2     3   ar
    12     3     4   ar
    13     4     5   ar
    14     5    16    1
    15    16    17    1
    16    17    18   am
    17    18    19    2
    18    18    21    1
    19    21    22   ar
    20    22    23   ar
    21    23    24   ar
    22    24    25   ar
    23    25    26   ar
    24     5     6   ar
    25    13     7   ar
    26     6     1   ar
    27    26    21   ar
    28    17    20    1
@<TRIPOS>MOLECULE
*****
 26 28 0 0 0
SMALL
GASTEIGER

@<TRIPOS>ATOM
      1 C          -8.5716  -17.0540   23.1929 C.ar    1  UNL1        0.0218
      2 C          -9.3683  -16.9427   24.4589 C.ar    1  UNL1        0.0989
      3 N          -8.7658  -16.2939   25.6697 N.ar    1  UNL1       -0.2426
      4 C          -7.3666  -15.7562   25.6144 C.ar    1  UNL1        0.0962
      5 C          -6.5698  -15.8674   24.3484 C.ar    1  UNL1        0.0166
      6 C          -7.1724  -16.5164   23.1376 C.ar    1  UNL1        0.0006
      7 C         -10.4699  -17.1931   21.4245 C.ar    1  UNL1        0.1409
      8 C         -11.0724  -17.8420   20.2138 C.ar    1  UNL1        0.0665
      9 C         -10.3791  -19.0008   19.5607 C.ar    1  UNL1        0.1432
     10 F         -10.9817  -19.6497   18.3499 F       1  UNL1       -0.2041
     11 C          -9.0833  -19.5107   20.1183 C.ar    1  UNL1        0.0298
     12 C          -8.4808  -18.8617   21.3290 C.ar    1  UNL1        0.0054
     13 C          -9.1741  -17.7029   21.9821 C.ar    1  UNL1        0.0356
     14 C         -12.6053  -16.1495   22.4737 C.3     1  UNL1        0.2525
     15 O         -11.1632  -16.0343   22.0776 O.3     1  UNL1       -0.4714
     16 C          -5.1706  -15.3298   24.2931 C.3     1  UNL1        0.1182
     17 N          -4.2509  -15.7452   23.1834 N.am    1  UNL1       -0.2956
     18 C          -3.6060  -17.0993   23.2109 C.2     1  UNL1        0.2654
     19 O          -3.8809  -18.0379   24.3483 O.2     1  UNL1       -0.2684
     20 H          -4.0705  -15.1292   22.4369 H       1  UNL1        0.1501
     21 C          -2.6863  -17.5147   22.1012 C.ar    1  UNL1        0.1535
     22 C          -2.3058  -18.9570   21.9426 C.ar    1  UNL1        0.1226
     23 N          -1.3861  -19.3724   20.8329 N.ar    1  UNL1       -0.2390
     24 C          -0.8468  -18.3455   19.8817 C.ar    1  UNL1        0.1195
     25 C          -1.2272  -16.9032   20.0403 C.ar    1  UNL1        0.1196
     26 N          -2.1470  -16.4878   21.1501 N.ar    1  UNL1       -0.2360
@<TRIPOS>BOND
     1    14    15    1
     2    15     7    1
     3     7     8   ar
     4     8     9   ar
     5     9    10    1
     6     9    11   ar
     7    11    12   ar
     8    12    13   ar
     9    13     1    1
    10     1     2   ar
    11     2     3   ar
    12     3     4   ar
    13     4     5   ar
    14     5    16    1
    15    16    17    1
    16    17    18   am
    17    18    19    2
    18    18    21    1
    19    21    22   ar
    20    22    23   ar
    21    23    24   ar
    22    24    25   ar
    23    25    26   ar
    24     5     6   ar
    25    13     7   ar
    26     6     1   ar
    27    26    21   ar
    28    17    20    1
@<TRIPOS>MOLECULE
*****
 26 28 0 0 0
SMALL
GASTEIGER

@<TRIPOS>ATOM
      1 C           8.4947   -6.5858   26.0430 C.ar    1  UNL1        0.0218
      2 C           8.9363   -5.7378   27.1988 C.ar    1  UNL1        0.0989
      3 N           9.1010   -6.3499   28.5583 N.ar    1  UNL1       -0.2426
      4 C           8.8242   -7.8100   28.7620 C.ar    1  UNL1        0.0962
      5 C           8.3826   -8.6580   27.6062 C.ar    1  UNL1        0.0166
      6 C           8.2178   -8.0459   26.2466 C.ar    1  UNL1        0.0006
      7 C           7.3600   -4.8477   24.4805 C.ar    1  UNL1        0.1409
      8 C           7.1953   -4.2356   23.1210 C.ar    1  UNL1        0.0665
      9 C           8.0005   -4.7496   21.9645 C.ar    1  UNL1        0.1432
     10 F           7.8358   -4.1374   20.6050 F       1  UNL1       -0.2041
     11 C           8.9705   -5.8756   22.1675 C.ar    1  UNL1        0.0298
     12 C           9.1352   -6.4877   23.5270 C.ar    1  UNL1        0.0054
     13 C           8.3299   -5.9737   24.6835 C.ar    1  UNL1        0.0356
     14 C           6.4308   -2.8567   25.8670 C.3     1  UNL1        0.2525
     15 O           6.5548   -4.3337   25.6370 O.3     1  UNL1       -0.4714
     16 C           8.1058  -10.1181   27.8098 C.3     1  UNL1        0.1182
     17 N           6.6931  -10.6222   27.7994 N.am    1  UNL1       -0.2956
     18 C           6.4092  -12.0647   28.0969 C.2     1  UNL1        0.2654
     19 O           7.5381  -13.0032   28.4049 O.2     1  UNL1       -0.2684
     20 H           5.9521  -10.0062   27.5972 H       1  UNL1        0.1501
     21 C           4.9965  -12.5688   28.0865 C.ar    1  UNL1        0.1535
     22 C           4.4689  -13.2971   26.8860 C.ar    1  UNL1        0.1226
     23 N           3.0562  -13.8011   26.8755 N.ar    1  UNL1       -0.2390
     24 C           2.1710  -13.5769   28.0656 C.ar    1  UNL1        0.1195
     25 C           2.6986  -12.8486   29.2661 C.ar    1  UNL1        0.1196
     26 N           4.1114  -12.3445   29.2765 N.ar    1  UNL1       -0.2360
@<TRIPOS>BOND
     1    14    15    1
     2    15     7    1
     3     7     8   ar
     4     8     9   ar
     5     9    10    1
     6     9    11   ar
     7    11    12   ar
     8    12    13   ar
     9    13     1    1
    10     1     2   ar
    11     2     3   ar
    12     3     4   ar
    13     4     5   ar
    14     5    16    1
    15    16    17    1
    16    17    18   am
    17    18    19    2
    18    18    21    1
    19    21    22   ar
    20    22    23   ar
    21    23    24   ar
    22    24    25   ar
    23    25    26   ar
    24     5     6   ar
    25    13     7   ar
    26     6     1   ar
    27    26    21   ar
    28    17    20    1
@<TRIPOS>MOLECULE
*****
 26 28 0 0 0
SMALL
GASTEIGER

@<TRIPOS>ATOM
      1 C           8.6085   -5.8249   28.4226 C.ar    1  UNL1        0.0218
      2 C           8.9189   -5.2905   27.0558 C.ar    1  UNL1        0.0989
      3 N           9.0921   -6.2344   25.9030 N.ar    1  UNL1       -0.2426
      4 C           8.9550   -7.7128   26.1170 C.ar    1  UNL1        0.0962
      5 C           8.6446   -8.2472   27.4838 C.ar    1  UNL1        0.0166
      6 C           8.4713   -7.3032   28.6366 C.ar    1  UNL1        0.0006
      7 C           7.2007   -4.0346   29.6728 C.ar    1  UNL1        0.1409
      8 C           7.0275   -3.0907   30.8256 C.ar    1  UNL1        0.0665
      9 C           8.0889   -2.9930   31.8810 C.ar    1  UNL1        0.1432
     10 F           7.9156   -2.0490   33.0338 F       1  UNL1       -0.2041
     11 C           9.3235   -3.8393   31.7836 C.ar    1  UNL1        0.0298
     12 C           9.4967   -4.7832   30.6308 C.ar    1  UNL1        0.0054
     13 C           8.4353   -4.8809   29.5754 C.ar    1  UNL1        0.0356
     14 C           5.9576   -3.0169   27.6309 C.3     1  UNL1        0.2525
     15 O           6.1393   -4.1322   28.6174 O.3     1  UNL1       -0.4714
     16 C           8.5074   -9.7254   27.6978 C.3     1  UNL1        0.1182
     17 N           7.1462  -10.3540   27.7397 N.am    1  UNL1       -0.2956
     18 C           7.0073  -11.8264   27.9909 C.2     1  UNL1        0.2654
     19 O           8.2298  -12.6700   28.2001 O.2     1  UNL1       -0.2684
     20 H           6.3438   -9.8003   27.6025 H       1  UNL1        0.1501
     21 C           5.6461  -12.4549   28.0329 C.ar    1  UNL1        0.1535
     22 C           4.7454  -12.2157   29.2083 C.ar    1  UNL1        0.1226
     23 N           3.3841  -12.8443   29.2502 N.ar    1  UNL1       -0.2390
     24 C           2.9235  -13.7122   28.1168 C.ar    1  UNL1        0.1195
     25 C           3.8242  -13.9514   26.9414 C.ar    1  UNL1        0.1196
     26 N           5.1855  -13.3228   26.8995 N.ar    1  UNL1       -0.2360
@<TRIPOS>BOND
     1    14    15    1
     2    15     7    1
     3     7     8   ar
     4     8     9   ar
     5     9    10    1
     6     9    11   ar
     7    11    12   ar
     8    12    13   ar
     9    13     1    1
    10     1     2   ar
    11     2     3   ar
    12     3     4   ar
    13     4     5   ar
    14     5    16    1
    15    16    17    1
    16    17    18   am
    17    18    19    2
    18    18    21    1
    19    21    22   ar
    20    22    23   ar
    21    23    24   ar
    22    24    25   ar
    23    25    26   ar
    24     5     6   ar
    25    13     7   ar
    26     6     1   ar
    27    26    21   ar
    28    17    20    1
@<TRIPOS>MOLECULE
*****
 26 28 0 0 0
SMALL
GASTEIGER

@<TRIPOS>ATOM
      1 C         -10.9503   -4.3179   18.3065 C.ar    1  UNL1        0.0218
      2 C          -9.6655   -4.7975   18.9141 C.ar    1  UNL1        0.0989
      3 N          -9.4835   -6.2520   19.2325 N.ar    1  UNL1       -0.2426
      4 C         -10.5863   -7.2268   18.9434 C.ar    1  UNL1        0.0962
      5 C         -11.8711   -6.7472   18.3358 C.ar    1  UNL1        0.0166
      6 C         -12.0531   -5.2927   18.0173 C.ar    1  UNL1        0.0006
      7 C         -12.0495   -2.0215   18.8246 C.ar    1  UNL1        0.1409
      8 C         -12.2314   -0.5670   18.5061 C.ar    1  UNL1        0.0665
      9 C         -11.4962    0.0455   17.3510 C.ar    1  UNL1        0.1432
     10 F         -11.6782    1.5000   17.0325 F       1  UNL1       -0.2041
     11 C         -10.5791   -0.7964   16.5144 C.ar    1  UNL1        0.0298
     12 C         -10.3971   -2.2508   16.8328 C.ar    1  UNL1        0.0054
     13 C         -11.1323   -2.8634   17.9880 C.ar    1  UNL1        0.0356
     14 C         -14.2730   -2.8078   19.9142 C.3     1  UNL1        0.2525
     15 O         -12.7846   -2.6340   19.9798 O.3     1  UNL1       -0.4714
     16 C         -12.9739   -7.7219   18.0467 C.3     1  UNL1        0.1182
     17 N         -14.3730   -7.4278   18.5005 N.am    1  UNL1       -0.2956
     18 C         -15.3407   -8.5518   18.7248 C.2     1  UNL1        0.2654
     19 O         -14.9092   -9.9699   18.4952 O.2     1  UNL1       -0.2684
     20 H         -14.6561   -6.4970   18.6512 H       1  UNL1        0.1501
     21 C         -16.7397   -8.2576   19.1786 C.ar    1  UNL1        0.1535
     22 C         -17.6462   -9.3796   19.5904 C.ar    1  UNL1        0.1226
     23 N         -19.0453   -9.0854   20.0442 N.ar    1  UNL1       -0.2390
     24 C         -19.5380   -7.6692   20.0863 C.ar    1  UNL1        0.1195
     25 C         -18.6315   -6.5472   19.6746 C.ar    1  UNL1        0.1196
     26 N         -17.2323   -6.8414   19.2208 N.ar    1  UNL1       -0.2360
@<TRIPOS>BOND
     1    14    15    1
     2    15     7    1
     3     7     8   ar
     4     8     9   ar
     5     9    10    1
     6     9    11   ar
     7    11    12   ar
     8    12    13   ar
     9    13     1    1
    10     1     2   ar
    11     2     3   ar
    12     3     4   ar
    13     4     5   ar
    14     5    16    1
    15    16    17    1
    16    17    18   am
    17    18    19    2
    18    18    21    1
    19    21    22   ar
    20    22    23   ar
    21    23    24   ar
    22    24    25   ar
    23    25    26   ar
    24     5     6   ar
    25    13     7   ar
    26     6     1   ar
    27    26    21   ar
    28    17    20    1
@<TRIPOS>MOLECULE
*****
 26 28 0 0 0
SMALL
GASTEIGER

@<TRIPOS>ATOM
      1 C           8.1779   -5.6750   27.3008 C.ar    1  UNL1        0.0218
      2 C           8.8383   -5.4759   25.9688 C.ar    1  UNL1        0.0989
      3 N           9.3658   -6.6569   25.2091 N.ar    1  UNL1       -0.2426
      4 C           9.2328   -8.0371   25.7815 C.ar    1  UNL1        0.0962
      5 C           8.5724   -8.2362   27.1135 C.ar    1  UNL1        0.0166
      6 C           8.0449   -7.0551   27.8731 C.ar    1  UNL1        0.0006
      7 C           8.3295   -4.0495   29.3218 C.ar    1  UNL1        0.1409
      8 C           7.8020   -2.8685   30.0814 C.ar    1  UNL1        0.0665
      9 C           6.5955   -2.1320   29.5795 C.ar    1  UNL1        0.1432
     10 F           6.0681   -0.9509   30.3391 F       1  UNL1       -0.2041
     11 C           5.9165   -2.5764   28.3180 C.ar    1  UNL1        0.0298
     12 C           6.4440   -3.7574   27.5585 C.ar    1  UNL1        0.0054
     13 C           7.6505   -4.4940   28.0604 C.ar    1  UNL1        0.0356
     14 C           9.5050   -5.4467   31.1700 C.3     1  UNL1        0.2525
     15 O           9.5360   -4.7860   29.8237 O.3     1  UNL1       -0.4714
     16 C           8.4394   -9.6163   27.6859 C.3     1  UNL1        0.1182
     17 N           7.1024  -10.2960   27.7016 N.am    1  UNL1       -0.2956
     18 C           7.0096  -11.7614   28.0084 C.2     1  UNL1        0.2654
     19 O           8.2538  -12.5470   28.2993 O.2     1  UNL1       -0.2684
     20 H           6.2858   -9.7804   27.5107 H       1  UNL1        0.1501
     21 C           5.6726  -12.4411   28.0241 C.ar    1  UNL1        0.1535
     22 C           4.7511  -12.2565   29.1932 C.ar    1  UNL1        0.1226
     23 N           3.4141  -12.9363   29.2090 N.ar    1  UNL1       -0.2390
     24 C           2.9985  -13.8007   28.0556 C.ar    1  UNL1        0.1195
     25 C           3.9200  -13.9853   26.8865 C.ar    1  UNL1        0.1196
     26 N           5.2570  -13.3055   26.8708 N.ar    1  UNL1       -0.2360
@<TRIPOS>BOND
     1    14    15    1
     2    15     7    1
     3     7     8   ar
     4     8     9   ar
     5     9    10    1
     6     9    11   ar
     7    11    12   ar
     8    12    13   ar
     9    13     1    1
    10     1     2   ar
    11     2     3   ar
    12     3     4   ar
    13     4     5   ar
    14     5    16    1
    15    16    17    1
    16    17    18   am
    17    18    19    2
    18    18    21    1
    19    21    22   ar
    20    22    23   ar
    21    23    24   ar
    22    24    25   ar
    23    25    26   ar
    24     5     6   ar
    25    13     7   ar
    26     6     1   ar
    27    26    21   ar
    28    17    20    1
@<TRIPOS>MOLECULE
*****
 26 28 0 0 0
SMALL
GASTEIGER

@<TRIPOS>ATOM
      1 C           3.5604   -1.8704   20.9891 C.ar    1  UNL1        0.0218
      2 C           3.9822   -3.1694   20.3689 C.ar    1  UNL1        0.0989
      3 N           4.7935   -4.1507   21.1618 N.ar    1  UNL1       -0.2426
      4 C           5.1832   -3.8329   22.5751 C.ar    1  UNL1        0.0962
      5 C           4.7614   -2.5339   23.1953 C.ar    1  UNL1        0.0166
      6 C           3.9501   -1.5527   22.4023 C.ar    1  UNL1        0.0006
      7 C           3.3696   -0.1654   19.0380 C.ar    1  UNL1        0.1409
      8 C           2.5582    0.8158   18.2450 C.ar    1  UNL1        0.0665
      9 C           1.1263    1.0733   18.6101 C.ar    1  UNL1        0.1432
     10 F           0.3149    2.0545   17.8171 F       1  UNL1       -0.2041
     11 C           0.5058    0.3496   19.7682 C.ar    1  UNL1        0.0298
     12 C           1.3171   -0.6316   20.5611 C.ar    1  UNL1        0.0054
     13 C           2.7491   -0.8891   20.1961 C.ar    1  UNL1        0.0356
     14 C           5.2446   -0.3033   17.2449 C.3     1  UNL1        0.2525
     15 O           4.8015   -0.4229   18.6729 O.3     1  UNL1       -0.4714
     16 C           5.1511   -2.2162   24.6085 C.3     1  UNL1        0.1182
     17 N           4.0975   -1.8587   25.6146 N.am    1  UNL1       -0.2956
     18 C           3.9170   -0.4305   26.0364 C.2     1  UNL1        0.2654
     19 O           4.7901    0.6401   25.4520 O.2     1  UNL1       -0.2684
     20 H           3.5245   -2.5614   25.9981 H       1  UNL1        0.1501
     21 C           2.8635   -0.0730   27.0424 C.ar    1  UNL1        0.1535
     22 C           2.8119   -0.7873   28.3605 C.ar    1  UNL1        0.1226
     23 N           1.7584   -0.4299   29.3665 N.ar    1  UNL1       -0.2390
     24 C           0.7564    0.6419   29.0546 C.ar    1  UNL1        0.1195
     25 C           0.8079    1.3562   27.7366 C.ar    1  UNL1        0.1196
     26 N           1.8615    0.9987   26.7305 N.ar    1  UNL1       -0.2360
@<TRIPOS>BOND
     1    14    15    1
     2    15     7    1
     3     7     8   ar
     4     8     9   ar
     5     9    10    1
     6     9    11   ar
     7    11    12   ar
     8    12    13   ar
     9    13     1    1
    10     1     2   ar
    11     2     3   ar
    12     3     4   ar
    13     4     5   ar
    14     5    16    1
    15    16    17    1
    16    17    18   am
    17    18    19    2
    18    18    21    1
    19    21    22   ar
    20    22    23   ar
    21    23    24   ar
    22    24    25   ar
    23    25    26   ar
    24     5     6   ar
    25    13     7   ar
    26     6     1   ar
    27    26    21   ar
    28    17    20    1
@<TRIPOS>MOLECULE
*****
 26 28 0 0 0
SMALL
GASTEIGER

@<TRIPOS>ATOM
      1 C           3.5920   -1.9373   20.8635 C.ar    1  UNL1        0.0218
      2 C           3.9820   -3.2329   20.2159 C.ar    1  UNL1        0.0989
      3 N           4.8074   -4.2309   20.9726 N.ar    1  UNL1       -0.2426
      4 C           5.2430   -3.9333   22.3768 C.ar    1  UNL1        0.0962
      5 C           4.8530   -2.6377   23.0243 C.ar    1  UNL1        0.0166
      6 C           4.0275   -1.6397   22.2676 C.ar    1  UNL1        0.0006
      7 C           3.3504   -0.2261   18.9235 C.ar    1  UNL1        0.1409
      8 C           2.5249    0.7718   18.1668 C.ar    1  UNL1        0.0665
      9 C           1.1154    1.0567   18.5936 C.ar    1  UNL1        0.1432
     10 F           0.2898    2.0547   17.8369 F       1  UNL1       -0.2041
     11 C           0.5314    0.3435   19.7769 C.ar    1  UNL1        0.0298
     12 C           1.3569   -0.6544   20.5335 C.ar    1  UNL1        0.0054
     13 C           2.7664   -0.9393   20.1068 C.ar    1  UNL1        0.0356
     14 C           5.2298   -0.0949   17.1344 C.3     1  UNL1        0.2525
     15 O           4.7600   -0.5110   18.4967 O.3     1  UNL1       -0.4714
     16 C           5.2885   -2.3401   24.4285 C.3     1  UNL1        0.1182
     17 N           5.8304   -3.4385   25.2944 N.am    1  UNL1       -0.2956
     18 C           6.4639   -3.1101   26.6138 C.2     1  UNL1        0.2654
     19 O           6.5556   -1.6833   27.0673 O.2     1  UNL1       -0.2684
     20 H           5.7702   -4.3750   24.9967 H       1  UNL1        0.1501
     21 C           7.0058   -4.2086   27.4797 C.ar    1  UNL1        0.1535
     22 C           8.1721   -5.0270   27.0108 C.ar    1  UNL1        0.1226
     23 N           8.7140   -6.1254   27.8767 N.ar    1  UNL1       -0.2390
     24 C           8.0895   -6.4055   29.2115 C.ar    1  UNL1        0.1195
     25 C           6.9231   -5.5871   29.6804 C.ar    1  UNL1        0.1196
     26 N           6.3813   -4.4886   28.8144 N.ar    1  UNL1       -0.2360
@<TRIPOS>BOND
     1    14    15    1
     2    15     7    1
     3     7     8   ar
     4     8     9   ar
     5     9    10    1
     6     9    11   ar
     7    11    12   ar
     8    12    13   ar
     9    13     1    1
    10     1     2   ar
    11     2     3   ar
    12     3     4   ar
    13     4     5   ar
    14     5    16    1
    15    16    17    1
    16    17    18   am
    17    18    19    2
    18    18    21    1
    19    21    22   ar
    20    22    23   ar
    21    23    24   ar
    22    24    25   ar
    23    25    26   ar
    24     5     6   ar
    25    13     7   ar
    26     6     1   ar
    27    26    21   ar
    28    17    20    1
