@<TRIPOS>MOLECULE
*****
 38 41 0 0 0
SMALL
GASTEIGER

@<TRIPOS>ATOM
      1 C          -9.5796  -17.8343   26.5864 C.3     1  UNL1        0.1152
      2 N          -9.7532  -17.9296   25.0995 N.am    1  UNL1       -0.2740
      3 C          -9.8180  -19.2736   24.4365 C.2     1  UNL1        0.2303
      4 O          -9.7091  -20.5223   25.2605 O.2     1  UNL1       -0.2745
      5 C          -9.9916  -19.3689   22.9497 C.3     1  UNL1        0.1116
      6 C          -8.8131  -19.6798   22.0753 C.ar    1  UNL1       -0.0131
      7 C          -7.5359  -20.1751   22.6863 C.ar    1  UNL1       -0.0041
      8 C          -6.3574  -20.4860   21.8119 C.ar    1  UNL1       -0.0032
      9 C          -6.4562  -20.3015   20.3266 C.ar    1  UNL1       -0.0048
     10 C          -7.7334  -19.8062   19.7156 C.ar    1  UNL1       -0.0032
     11 C          -8.9118  -19.4953   20.5900 C.ar    1  UNL1       -0.0041
     12 C          -5.2776  -20.6124   19.4522 C.3     1  UNL1        0.1177
     13 N          -3.9247  -20.8240   20.0644 N.3     1  UNL1       -0.1749
     14 H          -3.4424  -21.5094   19.4829 H       1  UNL1        0.1492
     15 S          -2.9884  -19.6644   20.2337 S.O2    1  UNL1        0.0605
     16 O          -2.2739  -20.4011   21.3277 O.2     1  UNL1       -0.1530
     17 O          -3.7029  -18.9276   19.1398 O.2     1  UNL1       -0.1530
     18 C          -2.0521  -18.5048   20.4032 C.ar    1  UNL1        0.1220
     19 C          -2.4403  -17.3489   21.2766 C.ar    1  UNL1        0.0199
     20 C          -1.5040  -16.1892   21.4461 C.ar    1  UNL1        0.0014
     21 C          -0.1795  -16.1856   20.7420 C.ar    1  UNL1        0.0001
     22 C           0.2087  -17.3417   19.8685 C.ar    1  UNL1        0.0014
     23 C          -0.7276  -18.5012   19.6991 C.ar    1  UNL1        0.0199
     24 C          -9.8621  -16.6809   24.2756 C.3     1  UNL1        0.1138
     25 C         -10.6912  -16.6770   23.0256 C.ar    1  UNL1       -0.0029
     26 C         -10.1090  -16.1658   21.7412 C.ar    1  UNL1       -0.0026
     27 C         -10.9381  -16.1620   20.4911 C.ar    1  UNL1       -0.0003
     28 C         -12.3493  -16.6693   20.5255 C.ar    1  UNL1       -0.0000
     29 C         -12.9314  -17.1805   21.8100 C.ar    1  UNL1       -0.0003
     30 C         -12.1024  -17.1843   23.0600 C.ar    1  UNL1       -0.0026
     31 C          -9.1419  -15.4359   24.7018 C.3     1  UNL1        0.0968
     32 N          -7.6428  -15.3903   24.6749 N.3     1  UNL1       -0.2689
     33 C          -6.7362  -15.4897   25.8657 C.3     1  UNL1        0.0748
     34 C          -5.3202  -15.3981   25.3793 C.3     1  UNL1        0.0480
     35 C          -5.3517  -15.2421   23.8877 C.3     1  UNL1        0.1278
     36 O          -4.1575  -15.1135   22.9893 O.3     1  UNL1       -0.3830
     37 C          -6.7872  -15.2373   23.4524 C.3     1  UNL1        0.1017
     38 H          -4.4528  -15.0252   22.0696 H       1  UNL1        0.2104
@<TRIPOS>BOND
     1     1     2    1
     2     2     3   am
     3     3     4    2
     4     3     5    1
     5     5     6    1
     6     6     7   ar
     7     7     8   ar
     8     8     9   ar
     9     9    12    1
    10    12    13    1
    11    13    15    1
    12    15    16    2
    13    15    17    2
    14    15    18    1
    15    18    19   ar
    16    19    20   ar
    17    20    21   ar
    18    21    22   ar
    19    22    23   ar
    20     9    10   ar
    21    10    11   ar
    22     2    24    1
    23    24    31    1
    24    31    32    1
    25    32    33    1
    26    33    34    1
    27    34    35    1
    28    35    36    1
    29    35    37    1
    30    24    25    1
    31    25    26   ar
    32    26    27   ar
    33    27    28   ar
    34    28    29   ar
    35    29    30   ar
    36    11     6   ar
    37    37    32    1
    38    30    25   ar
    39    23    18   ar
    40    13    14    1
    41    36    38    1
@<TRIPOS>MOLECULE
*****
 38 41 0 0 0
SMALL
GASTEIGER

@<TRIPOS>ATOM
      1 C          -9.4497  -17.9601   26.7854 C.3     1  UNL1        0.1152
      2 N          -9.5198  -17.8845   25.2890 N.am    1  UNL1       -0.2740
      3 C          -9.9331  -19.0887   24.4957 C.2     1  UNL1        0.2303
      4 O         -10.2762  -20.3685   25.1989 O.2     1  UNL1       -0.2745
      5 C         -10.0031  -19.0131   22.9993 C.3     1  UNL1        0.1116
      6 C          -8.8309  -19.4483   22.1706 C.ar    1  UNL1       -0.0131
      7 C          -7.6525  -20.1059   22.8253 C.ar    1  UNL1       -0.0041
      8 C          -6.4803  -20.5410   21.9966 C.ar    1  UNL1       -0.0032
      9 C          -6.4867  -20.3184   20.5132 C.ar    1  UNL1       -0.0048
     10 C          -7.6651  -19.6608   19.8585 C.ar    1  UNL1       -0.0032
     11 C          -8.8372  -19.2257   20.6872 C.ar    1  UNL1       -0.0041
     12 C          -5.3144  -20.7536   19.6845 C.3     1  UNL1        0.1177
     13 N          -3.9599  -20.8894   20.3143 N.3     1  UNL1       -0.1749
     14 H          -3.4516  -21.5878   19.7719 H       1  UNL1        0.1492
     15 S          -3.0625  -19.6928   20.4286 S.O2    1  UNL1        0.0605
     16 O          -2.3086  -20.3642   21.5380 O.2     1  UNL1       -0.1530
     17 O          -3.8164  -19.0214   19.3192 O.2     1  UNL1       -0.1530
     18 C          -2.1652  -18.4963   20.5429 C.ar    1  UNL1        0.1220
     19 C          -2.5644  -17.3396   21.4104 C.ar    1  UNL1        0.0199
     20 C          -1.6671  -16.1430   21.5248 C.ar    1  UNL1        0.0014
     21 C          -0.3705  -16.1031   20.7716 C.ar    1  UNL1        0.0001
     22 C           0.0287  -17.2599   19.9041 C.ar    1  UNL1        0.0014
     23 C          -0.8686  -18.4564   19.7898 C.ar    1  UNL1        0.0199
     24 C          -9.1767  -16.6048   24.5858 C.3     1  UNL1        0.1138
     25 C          -7.7406  -16.2171   24.3923 C.ar    1  UNL1       -0.0029
     26 C          -7.0241  -16.5990   23.1311 C.ar    1  UNL1       -0.0026
     27 C          -5.5880  -16.2112   22.9376 C.ar    1  UNL1       -0.0003
     28 C          -4.8685  -15.4416   24.0054 C.ar    1  UNL1       -0.0000
     29 C          -5.5852  -15.0597   25.2666 C.ar    1  UNL1       -0.0003
     30 C          -7.0212  -15.4475   25.4601 C.ar    1  UNL1       -0.0026
     31 C         -10.2696  -15.7128   24.0760 C.3     1  UNL1        0.0968
     32 N         -10.9019  -15.9876   22.7438 N.3     1  UNL1       -0.2689
     33 C         -12.2698  -16.5604   22.5185 C.3     1  UNL1        0.0748
     34 C         -12.4907  -16.6648   21.0385 C.3     1  UNL1        0.0480
     35 C         -11.2592  -16.1565   20.3491 C.3     1  UNL1        0.1278
     36 O         -11.0469  -16.0802   18.8662 O.3     1  UNL1       -0.3830
     37 C         -10.2773  -15.7381   21.4031 C.3     1  UNL1        0.1017
     38 H         -10.1671  -15.7145   18.6839 H       1  UNL1        0.2104
@<TRIPOS>BOND
     1     1     2    1
     2     2     3   am
     3     3     4    2
     4     3     5    1
     5     5     6    1
     6     6     7   ar
     7     7     8   ar
     8     8     9   ar
     9     9    12    1
    10    12    13    1
    11    13    15    1
    12    15    16    2
    13    15    17    2
    14    15    18    1
    15    18    19   ar
    16    19    20   ar
    17    20    21   ar
    18    21    22   ar
    19    22    23   ar
    20     9    10   ar
    21    10    11   ar
    22     2    24    1
    23    24    31    1
    24    31    32    1
    25    32    33    1
    26    33    34    1
    27    34    35    1
    28    35    36    1
    29    35    37    1
    30    24    25    1
    31    25    26   ar
    32    26    27   ar
    33    27    28   ar
    34    28    29   ar
    35    29    30   ar
    36    11     6   ar
    37    37    32    1
    38    30    25   ar
    39    23    18   ar
    40    13    14    1
    41    36    38    1
@<TRIPOS>MOLECULE
*****
 38 41 0 0 0
SMALL
GASTEIGER

@<TRIPOS>ATOM
      1 C           9.3986   -2.5415   27.5663 C.3     1  UNL1        0.1152
      2 N           8.0789   -2.6700   26.8652 N.am    1  UNL1       -0.2740
      3 C           7.5386   -1.5206   26.0670 C.2     1  UNL1        0.2303
      4 O           8.3182   -0.2427   25.9700 O.2     1  UNL1       -0.2745
      5 C           6.2188   -1.6490   25.3658 C.3     1  UNL1        0.1116
      6 C           6.1614   -2.1935   23.9692 C.ar    1  UNL1       -0.0131
      7 C           7.2007   -1.7928   22.9647 C.ar    1  UNL1       -0.0041
      8 C           7.1431   -2.3373   21.5682 C.ar    1  UNL1       -0.0032
      9 C           6.0463   -3.2825   21.1763 C.ar    1  UNL1       -0.0048
     10 C           5.0070   -3.6832   22.1809 C.ar    1  UNL1       -0.0032
     11 C           5.0645   -3.1387   23.5774 C.ar    1  UNL1       -0.0041
     12 C           5.9888   -3.8270   19.7797 C.3     1  UNL1        0.1177
     13 N           5.5222   -2.9538   18.6529 N.3     1  UNL1       -0.1749
     14 H           5.2916   -3.5734   17.8763 H       1  UNL1        0.1492
     15 S           4.3444   -2.0452   18.8463 S.O2    1  UNL1        0.0605
     16 O           5.2494   -0.8525   18.7540 O.2     1  UNL1       -0.1530
     17 O           3.4395   -3.2378   18.9387 O.2     1  UNL1       -0.1530
     18 C           3.1667   -1.1366   19.0397 C.ar    1  UNL1        0.1220
     19 C           2.2476   -1.3385   20.2078 C.ar    1  UNL1        0.0199
     20 C           1.0698   -0.4299   20.4012 C.ar    1  UNL1        0.0014
     21 C           0.8113    0.6807   19.4266 C.ar    1  UNL1        0.0001
     22 C           1.7305    0.8825   18.2585 C.ar    1  UNL1        0.0014
     23 C           2.9082   -0.0260   18.0651 C.ar    1  UNL1        0.0199
     24 C           7.2993   -3.9478   26.9622 C.3     1  UNL1        0.1138
     25 C           7.6237   -5.0952   26.0521 C.ar    1  UNL1       -0.0029
     26 C           7.2948   -6.4983   26.4679 C.ar    1  UNL1       -0.0026
     27 C           7.6192   -7.6458   25.5578 C.ar    1  UNL1       -0.0003
     28 C           8.2725   -7.3900   24.2320 C.ar    1  UNL1       -0.0000
     29 C           8.6014   -5.9868   23.8162 C.ar    1  UNL1       -0.0003
     30 C           8.2770   -4.8394   24.7263 C.ar    1  UNL1       -0.0026
     31 C           6.1953   -4.0782   27.9693 C.3     1  UNL1        0.0968
     32 N           6.5201   -4.3665   29.4051 N.3     1  UNL1       -0.2689
     33 C           6.6601   -3.3495   30.4987 C.3     1  UNL1        0.0748
     34 C           6.9885   -4.0768   31.7688 C.3     1  UNL1        0.0480
     35 C           7.0514   -5.5434   31.4602 C.3     1  UNL1        0.1278
     36 O           7.3511   -6.6386   32.4402 O.3     1  UNL1       -0.3830
     37 C           6.7619   -5.7224   29.9993 C.3     1  UNL1        0.1017
     38 H           7.3303   -7.4948   31.9847 H       1  UNL1        0.2104
@<TRIPOS>BOND
     1     1     2    1
     2     2     3   am
     3     3     4    2
     4     3     5    1
     5     5     6    1
     6     6     7   ar
     7     7     8   ar
     8     8     9   ar
     9     9    12    1
    10    12    13    1
    11    13    15    1
    12    15    16    2
    13    15    17    2
    14    15    18    1
    15    18    19   ar
    16    19    20   ar
    17    20    21   ar
    18    21    22   ar
    19    22    23   ar
    20     9    10   ar
    21    10    11   ar
    22     2    24    1
    23    24    31    1
    24    31    32    1
    25    32    33    1
    26    33    34    1
    27    34    35    1
    28    35    36    1
    29    35    37    1
    30    24    25    1
    31    25    26   ar
    32    26    27   ar
    33    27    28   ar
    34    28    29   ar
    35    29    30   ar
    36    11     6   ar
    37    37    32    1
    38    30    25   ar
    39    23    18   ar
    40    13    14    1
    41    36    38    1
@<TRIPOS>MOLECULE
*****
 38 41 0 0 0
SMALL
GASTEIGER

@<TRIPOS>ATOM
      1 C         -10.2814  -15.1861   21.5717 C.3     1  UNL1        0.1152
      2 N         -10.1281  -16.6685   21.7416 N.am    1  UNL1       -0.2740
      3 C         -10.4069  -17.5883   20.5899 C.2     1  UNL1        0.2303
      4 O         -10.8390  -17.0256   19.2683 O.2     1  UNL1       -0.2745
      5 C         -10.2536  -19.0707   20.7599 C.3     1  UNL1        0.1116
      6 C          -8.9076  -19.7102   20.5878 C.ar    1  UNL1       -0.0131
      7 C          -8.5332  -20.3277   19.2732 C.ar    1  UNL1       -0.0041
      8 C          -7.1873  -20.9671   19.1012 C.ar    1  UNL1       -0.0032
      9 C          -6.2158  -20.9890   20.2439 C.ar    1  UNL1       -0.0048
     10 C          -6.5902  -20.3714   21.5585 C.ar    1  UNL1       -0.0032
     11 C          -7.9361  -19.7320   21.7305 C.ar    1  UNL1       -0.0041
     12 C          -4.8698  -21.6284   20.0718 C.3     1  UNL1        0.1177
     13 N          -3.7561  -20.8671   19.4162 N.3     1  UNL1       -0.1749
     14 H          -4.0796  -20.6189   18.4812 H       1  UNL1        0.1492
     15 S          -3.2378  -19.6070   20.0438 S.O2    1  UNL1        0.0605
     16 O          -2.5835  -20.4148   21.1252 O.2     1  UNL1       -0.1530
     17 O          -3.8921  -18.7993   18.9624 O.2     1  UNL1       -0.1530
     18 C          -2.7196  -18.3471   20.6714 C.ar    1  UNL1        0.1220
     19 C          -1.6415  -17.5580   19.9895 C.ar    1  UNL1        0.0199
     20 C          -1.1232  -16.2980   20.6171 C.ar    1  UNL1        0.0014
     21 C          -1.6830  -15.8272   21.9266 C.ar    1  UNL1        0.0001
     22 C          -2.7611  -16.6163   22.6085 C.ar    1  UNL1        0.0014
     23 C          -3.2794  -17.8762   21.9809 C.ar    1  UNL1        0.0199
     24 C          -9.6960  -17.2312   23.0632 C.3     1  UNL1        0.1138
     25 C          -8.5755  -16.5854   23.8231 C.ar    1  UNL1       -0.0029
     26 C          -7.2488  -16.3642   23.1591 C.ar    1  UNL1       -0.0026
     27 C          -6.1282  -15.7184   23.9189 C.ar    1  UNL1       -0.0003
     28 C          -6.3344  -15.2938   25.3427 C.ar    1  UNL1       -0.0000
     29 C          -7.6611  -15.5151   26.0067 C.ar    1  UNL1       -0.0003
     30 C          -8.7816  -16.1609   25.2469 C.ar    1  UNL1       -0.0026
     31 C         -10.3844  -18.4398   23.6250 C.3     1  UNL1        0.0968
     32 N         -11.8278  -18.3621   24.0257 N.3     1  UNL1       -0.2689
     33 C         -12.9497  -17.8327   23.1824 C.3     1  UNL1        0.0748
     34 C         -14.2181  -17.9437   23.9755 C.3     1  UNL1        0.0480
     35 C         -13.8801  -18.5416   25.3090 C.3     1  UNL1        0.1278
     36 O         -14.8491  -18.8303   26.4170 O.3     1  UNL1       -0.3830
     37 C         -12.4028  -18.8002   25.3400 C.3     1  UNL1        0.1017
     38 H         -14.3740  -19.2153   27.1699 H       1  UNL1        0.2104
@<TRIPOS>BOND
     1     1     2    1
     2     2     3   am
     3     3     4    2
     4     3     5    1
     5     5     6    1
     6     6     7   ar
     7     7     8   ar
     8     8     9   ar
     9     9    12    1
    10    12    13    1
    11    13    15    1
    12    15    16    2
    13    15    17    2
    14    15    18    1
    15    18    19   ar
    16    19    20   ar
    17    20    21   ar
    18    21    22   ar
    19    22    23   ar
    20     9    10   ar
    21    10    11   ar
    22     2    24    1
    23    24    31    1
    24    31    32    1
    25    32    33    1
    26    33    34    1
    27    34    35    1
    28    35    36    1
    29    35    37    1
    30    24    25    1
    31    25    26   ar
    32    26    27   ar
    33    27    28   ar
    34    28    29   ar
    35    29    30   ar
    36    11     6   ar
    37    37    32    1
    38    30    25   ar
    39    23    18   ar
    40    13    14    1
    41    36    38    1
@<TRIPOS>MOLECULE
*****
 38 41 0 0 0
SMALL
GASTEIGER

@<TRIPOS>ATOM
      1 C           5.5472    0.3459   17.6542 C.3     1  UNL1        0.1152
      2 N           5.0698   -0.7946   18.5035 N.am    1  UNL1       -0.2740
      3 C           5.7537   -2.1272   18.4231 C.2     1  UNL1        0.2303
      4 O           6.9152   -2.3192   17.4935 O.2     1  UNL1       -0.2745
      5 C           5.2763   -3.2677   19.2724 C.3     1  UNL1        0.1116
      6 C           5.7404   -3.3901   20.6936 C.ar    1  UNL1       -0.0131
      7 C           7.1658   -3.0839   21.0461 C.ar    1  UNL1       -0.0041
      8 C           7.6299   -3.2064   22.4672 C.ar    1  UNL1       -0.0032
      9 C           6.6684   -3.6350   23.5358 C.ar    1  UNL1       -0.0048
     10 C           5.2430   -3.9411   23.1833 C.ar    1  UNL1       -0.0032
     11 C           4.7790   -3.8187   21.7622 C.ar    1  UNL1       -0.0041
     12 C           7.1325   -3.7574   24.9570 C.3     1  UNL1        0.1177
     13 N           6.5234   -4.7899   25.8586 N.3     1  UNL1       -0.1749
     14 H           6.9738   -5.6776   25.6362 H       1  UNL1        0.1492
     15 S           6.6018   -4.6256   27.3476 S.O2    1  UNL1        0.0605
     16 O           7.0467   -6.0518   27.4814 O.2     1  UNL1       -0.1530
     17 O           6.1570   -3.1994   27.2137 O.2     1  UNL1       -0.1530
     18 C           6.6803   -4.4614   28.8365 C.ar    1  UNL1        0.1220
     19 C           6.9558   -5.6503   29.7086 C.ar    1  UNL1        0.0199
     20 C           7.0343   -5.4861   31.1976 C.ar    1  UNL1        0.0014
     21 C           6.8372   -4.1331   31.8143 C.ar    1  UNL1        0.0001
     22 C           6.5617   -2.9442   30.9421 C.ar    1  UNL1        0.0014
     23 C           6.4832   -3.1084   29.4532 C.ar    1  UNL1        0.0199
     24 C           3.9084   -0.6025   19.4331 C.3     1  UNL1        0.1138
     25 C           4.1450   -0.4403   20.9054 C.ar    1  UNL1       -0.0029
     26 C           5.4248    0.1685   21.3967 C.ar    1  UNL1       -0.0026
     27 C           5.6615    0.3307   22.8690 C.ar    1  UNL1       -0.0003
     28 C           4.6184   -0.1158   23.8500 C.ar    1  UNL1       -0.0000
     29 C           3.3385   -0.7247   23.3587 C.ar    1  UNL1       -0.0003
     30 C           3.1019   -0.8869   21.8864 C.ar    1  UNL1       -0.0026
     31 C           2.5102   -0.5727   18.8905 C.3     1  UNL1        0.0968
     32 N           1.6172    0.5966   19.1823 N.3     1  UNL1       -0.2689
     33 C           1.7861    1.9892   18.6510 C.3     1  UNL1        0.0748
     34 C           0.6718    2.8320   19.1969 C.3     1  UNL1        0.0480
     35 C          -0.1857    1.9603   20.0657 C.3     1  UNL1        0.1278
     36 O          -1.4123    2.3939   20.8124 O.3     1  UNL1       -0.3830
     37 C           0.3985    0.5788   20.0566 C.3     1  UNL1        0.1017
     38 H          -1.7796    1.6384   21.2973 H       1  UNL1        0.2104
@<TRIPOS>BOND
     1     1     2    1
     2     2     3   am
     3     3     4    2
     4     3     5    1
     5     5     6    1
     6     6     7   ar
     7     7     8   ar
     8     8     9   ar
     9     9    12    1
    10    12    13    1
    11    13    15    1
    12    15    16    2
    13    15    17    2
    14    15    18    1
    15    18    19   ar
    16    19    20   ar
    17    20    21   ar
    18    21    22   ar
    19    22    23   ar
    20     9    10   ar
    21    10    11   ar
    22     2    24    1
    23    24    31    1
    24    31    32    1
    25    32    33    1
    26    33    34    1
    27    34    35    1
    28    35    36    1
    29    35    37    1
    30    24    25    1
    31    25    26   ar
    32    26    27   ar
    33    27    28   ar
    34    28    29   ar
    35    29    30   ar
    36    11     6   ar
    37    37    32    1
    38    30    25   ar
    39    23    18   ar
    40    13    14    1
    41    36    38    1
@<TRIPOS>MOLECULE
*****
 38 41 0 0 0
SMALL
GASTEIGER

@<TRIPOS>ATOM
      1 C           7.5434    0.1946   25.6620 C.3     1  UNL1        0.1152
      2 N           6.9457   -1.0503   25.0766 N.am    1  UNL1       -0.2740
      3 C           5.4555   -1.2161   25.0288 C.2     1  UNL1        0.2303
      4 O           4.5633   -0.1368   25.5664 O.2     1  UNL1       -0.2745
      5 C           4.8578   -2.4610   24.4434 C.3     1  UNL1        0.1116
      6 C           4.5571   -2.5300   22.9754 C.ar    1  UNL1       -0.0131
      7 C           4.7444   -3.8188   22.2313 C.ar    1  UNL1       -0.0041
      8 C           4.4437   -3.8878   20.7634 C.ar    1  UNL1       -0.0032
      9 C           3.9557   -2.6679   20.0396 C.ar    1  UNL1       -0.0048
     10 C           3.7684   -1.3791   20.7838 C.ar    1  UNL1       -0.0032
     11 C           4.0691   -1.3102   22.2517 C.ar    1  UNL1       -0.0041
     12 C           3.6550   -2.7370   18.5716 C.3     1  UNL1        0.1177
     13 N           4.7070   -2.3575   17.5719 N.3     1  UNL1       -0.1749
     14 H           4.3835   -2.6901   16.6636 H       1  UNL1        0.1492
     15 S           5.0890   -0.9178   17.3950 S.O2    1  UNL1        0.0605
     16 O           6.5381   -1.3045   17.3770 O.2     1  UNL1       -0.1530
     17 O           3.6398   -0.5310   17.4130 O.2     1  UNL1       -0.1530
     18 C           5.4710    0.5219   17.2180 C.ar    1  UNL1        0.1220
     19 C           4.7640    1.5873   18.0023 C.ar    1  UNL1        0.0199
     20 C           5.1460    3.0270   17.8254 C.ar    1  UNL1        0.0014
     21 C           6.2350    3.4014   16.8642 C.ar    1  UNL1        0.0001
     22 C           6.9421    2.3359   16.0799 C.ar    1  UNL1        0.0014
     23 C           6.5601    0.8962   16.2569 C.ar    1  UNL1        0.0199
     24 C           7.8379   -2.1296   24.5390 C.3     1  UNL1        0.1138
     25 C           7.9728   -2.3226   23.0576 C.ar    1  UNL1       -0.0029
     26 C           8.2953   -3.6789   22.5043 C.ar    1  UNL1       -0.0026
     27 C           8.4302   -3.8719   21.0228 C.ar    1  UNL1       -0.0003
     28 C           8.2425   -2.7085   20.0948 C.ar    1  UNL1       -0.0000
     29 C           7.9199   -1.3521   20.6482 C.ar    1  UNL1       -0.0003
     30 C           7.7851   -1.1592   22.1296 C.ar    1  UNL1       -0.0026
     31 C           8.5953   -3.0160   25.4828 C.3     1  UNL1        0.0968
     32 N           7.8739   -4.0829   26.2517 N.3     1  UNL1       -0.2689
     33 C           7.1661   -5.2675   25.6638 C.3     1  UNL1        0.0748
     34 C           6.5884   -6.0694   26.7922 C.3     1  UNL1        0.0480
     35 C           6.9392   -5.3803   28.0776 C.3     1  UNL1        0.1278
     36 O           6.5618   -5.8385   29.4551 O.3     1  UNL1       -0.3830
     37 C           7.7337   -4.1527   27.7435 C.3     1  UNL1        0.1017
     38 H           6.9120   -5.2150   30.1105 H       1  UNL1        0.2104
@<TRIPOS>BOND
     1     1     2    1
     2     2     3   am
     3     3     4    2
     4     3     5    1
     5     5     6    1
     6     6     7   ar
     7     7     8   ar
     8     8     9   ar
     9     9    12    1
    10    12    13    1
    11    13    15    1
    12    15    16    2
    13    15    17    2
    14    15    18    1
    15    18    19   ar
    16    19    20   ar
    17    20    21   ar
    18    21    22   ar
    19    22    23   ar
    20     9    10   ar
    21    10    11   ar
    22     2    24    1
    23    24    31    1
    24    31    32    1
    25    32    33    1
    26    33    34    1
    27    34    35    1
    28    35    36    1
    29    35    37    1
    30    24    25    1
    31    25    26   ar
    32    26    27   ar
    33    27    28   ar
    34    28    29   ar
    35    29    30   ar
    36    11     6   ar
    37    37    32    1
    38    30    25   ar
    39    23    18   ar
    40    13    14    1
    41    36    38    1
@<TRIPOS>MOLECULE
*****
 38 41 0 0 0
SMALL
GASTEIGER

@<TRIPOS>ATOM
      1 C           7.7947   -1.3257   19.3441 C.3     1  UNL1        0.1152
      2 N           6.3063   -1.3267   19.1586 N.am    1  UNL1       -0.2740
      3 C           5.7130   -0.8903   17.8518 C.2     1  UNL1        0.2303
      4 O           6.6082   -0.4528   16.7305 O.2     1  UNL1       -0.2745
      5 C           4.2245   -0.8913   17.6663 C.3     1  UNL1        0.1116
      6 C           3.4266    0.3351   17.9969 C.ar    1  UNL1       -0.0131
      7 C           4.1106    1.6644   18.1192 C.ar    1  UNL1       -0.0041
      8 C           3.3127    2.8908   18.4498 C.ar    1  UNL1       -0.0032
      9 C           1.8308    2.7878   18.6581 C.ar    1  UNL1       -0.0048
     10 C           1.1468    1.4585   18.5358 C.ar    1  UNL1       -0.0032
     11 C           1.9447    0.2321   18.2052 C.ar    1  UNL1       -0.0041
     12 C           1.0329    4.0143   18.9887 C.3     1  UNL1        0.1177
     13 N          -0.0755    4.4556   18.0795 N.3     1  UNL1       -0.1749
     14 H           0.0889    4.0097   17.1770 H       1  UNL1        0.1492
     15 S          -1.5029    4.1766   18.4468 S.O2    1  UNL1        0.0605
     16 O          -1.8541    4.0603   16.9931 O.2     1  UNL1       -0.1530
     17 O          -1.1517    4.2929   19.9004 O.2     1  UNL1       -0.1530
     18 C          -2.9302    3.8976   18.8140 C.ar    1  UNL1        0.1220
     19 C          -3.9978    3.9416   17.7612 C.ar    1  UNL1        0.0199
     20 C          -5.4252    3.6626   18.1284 C.ar    1  UNL1        0.0014
     21 C          -5.7849    3.3397   19.5483 C.ar    1  UNL1        0.0001
     22 C          -4.7173    3.2957   20.6011 C.ar    1  UNL1        0.0014
     23 C          -3.2900    3.5747   20.2339 C.ar    1  UNL1        0.0199
     24 C           5.4110   -1.7642   20.2798 C.3     1  UNL1        0.1138
     25 C           4.5381   -0.7631   20.9767 C.ar    1  UNL1       -0.0029
     26 C           5.0846    0.5865   21.3368 C.ar    1  UNL1       -0.0026
     27 C           4.2116    1.5877   22.0337 C.ar    1  UNL1       -0.0003
     28 C           2.7921    1.2391   22.3706 C.ar    1  UNL1       -0.0000
     29 C           2.2456   -0.1107   22.0105 C.ar    1  UNL1       -0.0003
     30 C           3.1186   -1.1117   21.3136 C.ar    1  UNL1       -0.0026
     31 C           5.3888   -3.2028   20.7041 C.3     1  UNL1        0.0968
     32 N           6.0288   -3.6133   21.9971 N.3     1  UNL1       -0.2689
     33 C           7.3949   -4.2129   22.1534 C.3     1  UNL1        0.0748
     34 C           7.6255   -4.4665   23.6137 C.3     1  UNL1        0.0480
     35 C           6.4020   -4.0236   24.3600 C.3     1  UNL1        0.1278
     36 O           6.2006   -4.0954   25.8447 O.3     1  UNL1       -0.3830
     37 C           5.4152   -3.4963   23.3609 C.3     1  UNL1        0.1017
     38 H           5.3244   -3.7453   26.0694 H       1  UNL1        0.2104
@<TRIPOS>BOND
     1     1     2    1
     2     2     3   am
     3     3     4    2
     4     3     5    1
     5     5     6    1
     6     6     7   ar
     7     7     8   ar
     8     8     9   ar
     9     9    12    1
    10    12    13    1
    11    13    15    1
    12    15    16    2
    13    15    17    2
    14    15    18    1
    15    18    19   ar
    16    19    20   ar
    17    20    21   ar
    18    21    22   ar
    19    22    23   ar
    20     9    10   ar
    21    10    11   ar
    22     2    24    1
    23    24    31    1
    24    31    32    1
    25    32    33    1
    26    33    34    1
    27    34    35    1
    28    35    36    1
    29    35    37    1
    30    24    25    1
    31    25    26   ar
    32    26    27   ar
    33    27    28   ar
    34    28    29   ar
    35    29    30   ar
    36    11     6   ar
    37    37    32    1
    38    30    25   ar
    39    23    18   ar
    40    13    14    1
    41    36    38    1
@<TRIPOS>MOLECULE
*****
 38 41 0 0 0
SMALL
GASTEIGER

@<TRIPOS>ATOM
      1 C           1.5664    4.1823   23.7661 C.3     1  UNL1        0.1152
      2 N           1.1735    3.0095   22.9176 N.am    1  UNL1       -0.2740
      3 C           0.3761    3.2236   21.6652 C.2     1  UNL1        0.2303
      4 O          -0.0284    4.6104   21.2614 O.2     1  UNL1       -0.2745
      5 C          -0.0169    2.0508   20.8166 C.3     1  UNL1        0.1116
      6 C           0.9914    1.4102   19.9093 C.ar    1  UNL1       -0.0131
      7 C           1.9732    2.2611   19.1597 C.ar    1  UNL1       -0.0041
      8 C           2.9814    1.6205   18.2524 C.ar    1  UNL1       -0.0032
      9 C           3.0077    0.1290   18.0948 C.ar    1  UNL1       -0.0048
     10 C           2.0259   -0.7219   18.8444 C.ar    1  UNL1       -0.0032
     11 C           1.0177   -0.0813   19.7516 C.ar    1  UNL1       -0.0041
     12 C           4.0160   -0.5116   17.1874 C.3     1  UNL1        0.1177
     13 N           4.3593   -1.9623   17.3532 N.3     1  UNL1       -0.1749
     14 H           4.5650   -2.3244   16.4221 H       1  UNL1        0.1492
     15 S           5.5019   -2.3664   18.2371 S.O2    1  UNL1        0.0605
     16 O           4.5449   -3.0723   19.1513 O.2     1  UNL1       -0.1530
     17 O           6.4589   -1.6605   17.3229 O.2     1  UNL1       -0.1530
     18 C           6.6443   -2.7705   19.1211 C.ar    1  UNL1        0.1220
     19 C           6.4010   -3.6683   20.2978 C.ar    1  UNL1        0.0199
     20 C           7.5435   -4.0724   21.1818 C.ar    1  UNL1        0.0014
     21 C           8.9293   -3.5788   20.8890 C.ar    1  UNL1        0.0001
     22 C           9.1727   -2.6809   19.7122 C.ar    1  UNL1        0.0014
     23 C           8.0302   -2.2768   18.8283 C.ar    1  UNL1        0.0199
     24 C           1.5779    1.6227   23.3213 C.3     1  UNL1        0.1138
     25 C           2.8038    0.9957   22.7262 C.ar    1  UNL1       -0.0029
     26 C           3.8884    1.8619   22.1576 C.ar    1  UNL1       -0.0026
     27 C           5.1143    1.2350   21.5624 C.ar    1  UNL1       -0.0003
     28 C           5.2556   -0.2581   21.5359 C.ar    1  UNL1       -0.0000
     29 C           4.1709   -1.1243   22.1046 C.ar    1  UNL1       -0.0003
     30 C           2.9450   -0.4974   22.6997 C.ar    1  UNL1       -0.0026
     31 C           0.7565    0.8627   24.3203 C.3     1  UNL1        0.0968
     32 N           0.2704    1.5441   25.5651 N.3     1  UNL1       -0.2689
     33 C          -1.0477    2.2403   25.7317 C.3     1  UNL1        0.0748
     34 C          -1.1157    2.7753   27.1314 C.3     1  UNL1        0.0480
     35 C           0.1605    2.4097   27.8299 C.3     1  UNL1        0.1278
     36 O           0.5174    2.7460   29.2474 O.3     1  UNL1       -0.3830
     37 C           1.0171    1.6488   26.8618 C.3     1  UNL1        0.1017
     38 H           1.3979    2.3940   29.4514 H       1  UNL1        0.2104
@<TRIPOS>BOND
     1     1     2    1
     2     2     3   am
     3     3     4    2
     4     3     5    1
     5     5     6    1
     6     6     7   ar
     7     7     8   ar
     8     8     9   ar
     9     9    12    1
    10    12    13    1
    11    13    15    1
    12    15    16    2
    13    15    17    2
    14    15    18    1
    15    18    19   ar
    16    19    20   ar
    17    20    21   ar
    18    21    22   ar
    19    22    23   ar
    20     9    10   ar
    21    10    11   ar
    22     2    24    1
    23    24    31    1
    24    31    32    1
    25    32    33    1
    26    33    34    1
    27    34    35    1
    28    35    36    1
    29    35    37    1
    30    24    25    1
    31    25    26   ar
    32    26    27   ar
    33    27    28   ar
    34    28    29   ar
    35    29    30   ar
    36    11     6   ar
    37    37    32    1
    38    30    25   ar
    39    23    18   ar
    40    13    14    1
    41    36    38    1
@<TRIPOS>MOLECULE
*****
 38 41 0 0 0
SMALL
GASTEIGER

@<TRIPOS>ATOM
      1 C           8.2293   -0.4353   25.7783 C.3     1  UNL1        0.1152
      2 N           7.2889   -1.5088   25.3166 N.am    1  UNL1       -0.2740
      3 C           7.8306   -2.8010   24.7810 C.2     1  UNL1        0.2303
      4 O           9.3128   -3.0196   24.7071 O.2     1  UNL1       -0.2745
      5 C           6.8902   -3.8745   24.3194 C.3     1  UNL1        0.1116
      6 C           6.3904   -3.8765   22.9050 C.ar    1  UNL1       -0.0131
      7 C           7.3650   -3.8532   21.7651 C.ar    1  UNL1       -0.0041
      8 C           6.8652   -3.8551   20.3509 C.ar    1  UNL1       -0.0032
      9 C           5.3907   -3.8803   20.0766 C.ar    1  UNL1       -0.0048
     10 C           4.4161   -3.9036   21.2165 C.ar    1  UNL1       -0.0032
     11 C           4.9159   -3.9016   22.6307 C.ar    1  UNL1       -0.0041
     12 C           4.8909   -3.8823   18.6622 C.3     1  UNL1        0.1177
     13 N           5.3107   -2.7959   17.7169 N.3     1  UNL1       -0.1749
     14 H           5.0350   -3.0964   16.7820 H       1  UNL1        0.1492
     15 S           4.7864   -1.4019   17.8960 S.O2    1  UNL1        0.0605
     16 O           6.0616   -0.8499   17.3310 O.2     1  UNL1       -0.1530
     17 O           3.5113   -1.9540   18.4610 O.2     1  UNL1       -0.1530
     18 C           4.2622   -0.0080   18.0750 C.ar    1  UNL1        0.1220
     19 C           5.2134    1.1510   18.1190 C.ar    1  UNL1        0.0199
     20 C           4.6892    2.5451   18.2980 C.ar    1  UNL1        0.0014
     21 C           3.2139    2.7800   18.4329 C.ar    1  UNL1        0.0001
     22 C           2.2627    1.6209   18.3889 C.ar    1  UNL1        0.0014
     23 C           2.7869    0.2269   18.2099 C.ar    1  UNL1        0.0199
     24 C           5.8068   -1.2902   25.3906 C.3     1  UNL1        0.1138
     25 C           5.0559   -0.8248   24.1783 C.ar    1  UNL1       -0.0029
     26 C           3.5567   -0.8687   24.1621 C.ar    1  UNL1       -0.0026
     27 C           2.8057   -0.4033   22.9499 C.ar    1  UNL1       -0.0003
     28 C           3.5541    0.1059   21.7538 C.ar    1  UNL1       -0.0000
     29 C           5.0534    0.1498   21.7700 C.ar    1  UNL1       -0.0003
     30 C           5.8043   -0.3155   22.9823 C.ar    1  UNL1       -0.0026
     31 C           5.0755   -1.5369   26.6768 C.3     1  UNL1        0.0968
     32 N           5.7727   -2.2177   27.8172 N.3     1  UNL1       -0.2689
     33 C           6.3630   -1.5421   29.0193 C.3     1  UNL1        0.0748
     34 C           6.9571   -2.6005   29.9008 C.3     1  UNL1        0.0480
     35 C           6.7340   -3.9302   29.2435 C.3     1  UNL1        0.1278
     36 O           7.1669   -5.2625   29.7796 O.3     1  UNL1       -0.3830
     37 C           6.0020   -3.6936   27.9557 C.3     1  UNL1        0.1017
     38 H           6.9002   -5.9616   29.1623 H       1  UNL1        0.2104
@<TRIPOS>BOND
     1     1     2    1
     2     2     3   am
     3     3     4    2
     4     3     5    1
     5     5     6    1
     6     6     7   ar
     7     7     8   ar
     8     8     9   ar
     9     9    12    1
    10    12    13    1
    11    13    15    1
    12    15    16    2
    13    15    17    2
    14    15    18    1
    15    18    19   ar
    16    19    20   ar
    17    20    21   ar
    18    21    22   ar
    19    22    23   ar
    20     9    10   ar
    21    10    11   ar
    22     2    24    1
    23    24    31    1
    24    31    32    1
    25    32    33    1
    26    33    34    1
    27    34    35    1
    28    35    36    1
    29    35    37    1
    30    24    25    1
    31    25    26   ar
    32    26    27   ar
    33    27    28   ar
    34    28    29   ar
    35    29    30   ar
    36    11     6   ar
    37    37    32    1
    38    30    25   ar
    39    23    18   ar
    40    13    14    1
    41    36    38    1
