@<TRIPOS>MOLECULE
*****
 31 35 0 0 0
SMALL
GASTEIGER

@<TRIPOS>ATOM
      1 C           6.7486   -4.2419   23.2914 C.ar    1  UNL1        0.1845
      2 N           7.5858   -5.0615   22.3548 N.ar    1  UNL1       -0.1274
      3 N           7.1883   -4.7120   20.9513 N.ar    1  UNL1       -0.1316
      4 C           6.1054   -3.6764   21.0205 C.ar    1  UNL1        0.1615
      5 N           5.8336   -3.3858   22.4668 N.ar    1  UNL1       -0.2944
      6 C           4.7882   -2.3792   22.8459 C.3     1  UNL1        0.1302
      7 C           4.0145   -1.6631   21.7788 C.3     1  UNL1        0.1186
      8 N           4.2862   -1.9537   20.3325 N.am    1  UNL1       -0.2688
      9 C           3.5126   -1.2377   19.2654 C.2     1  UNL1        0.2493
     10 O           3.7844   -1.5283   17.8191 O.2     1  UNL1       -0.2699
     11 C           5.3318   -2.9604   19.9534 C.3     1  UNL1        0.1343
     12 C           5.6035   -3.2510   18.5071 C.3     1  UNL1        0.0298
     13 C           2.4671   -0.2312   19.6446 C.ar    1  UNL1        0.0536
     14 C           2.7513    1.2349   19.5031 C.ar    1  UNL1        0.0045
     15 C           1.7057    2.2415   19.8823 C.ar    1  UNL1        0.0006
     16 C           0.3762    1.7820   20.4030 C.ar    1  UNL1        0.0060
     17 C           0.0920    0.3160   20.5444 C.ar    1  UNL1        0.0006
     18 C           1.1375   -0.6906   20.1653 C.ar    1  UNL1        0.0045
     19 C          -0.6694    2.7886   20.7822 C.ar    1  UNL1        0.0295
     20 C          -1.5967    3.4949   19.8382 C.ar    1  UNL1        0.0070
     21 C          -2.4715    4.4084   20.6445 C.ar    1  UNL1        0.0075
     22 C          -2.0849    4.2666   22.0869 C.ar    1  UNL1        0.0354
     23 S          -0.9710    3.2655   22.1720 S.2     1  UNL1       -0.0864
     24 C           7.0951   -5.0484   27.0723 C.ar    1  UNL1        0.0879
     25 N           7.1428   -5.4689   25.6332 N.ar    1  UNL1       -0.2396
     26 C           6.8146   -4.2728   24.7896 C.ar    1  UNL1        0.1237
     27 C           6.5641   -3.1130   25.7073 C.ar    1  UNL1        0.0588
     28 S           6.7375   -3.5923   27.1181 S.2     1  UNL1       -0.0701
     29 C           8.1580   -7.1880   28.0934 C.3     1  UNL1        0.0069
     30 C           7.3587   -5.9292   28.2574 C.3     1  UNL1        0.0466
     31 C           6.8231   -5.5514   29.6066 C.3     1  UNL1        0.0069
@<TRIPOS>BOND
     1    29    30    1
     2    30    31    1
     3    30    24    1
     4    24    25   ar
     5    25    26   ar
     6    26     1    1
     7     1     2   ar
     8     2     3   ar
     9     3     4   ar
    10     4     5   ar
    11     5     6    1
    12     6     7    1
    13     7     8    1
    14     8     9   am
    15     9    10    2
    16     9    13    1
    17    13    14   ar
    18    14    15   ar
    19    15    16   ar
    20    16    19    1
    21    19    20   ar
    22    20    21   ar
    23    21    22   ar
    24    22    23   ar
    25    16    17   ar
    26    17    18   ar
    27     8    11    1
    28    11    12    1
    29    26    27   ar
    30    27    28   ar
    31    28    24   ar
    32     5     1   ar
    33    18    13   ar
    34    11     4    1
    35    23    19   ar
@<TRIPOS>MOLECULE
*****
 31 35 0 0 0
SMALL
GASTEIGER

@<TRIPOS>ATOM
      1 C           7.3198   -4.8275   23.5305 C.ar    1  UNL1        0.1845
      2 N           8.0578   -6.0434   23.0541 N.ar    1  UNL1       -0.1274
      3 N           8.6892   -6.6991   24.2463 N.ar    1  UNL1       -0.1316
      4 C           8.3415   -5.8884   25.4596 C.ar    1  UNL1        0.1615
      5 N           7.4951   -4.7317   25.0171 N.ar    1  UNL1       -0.2944
      6 C           6.9935   -3.7406   26.0251 C.3     1  UNL1        0.1302
      7 C           7.3381   -3.9062   27.4756 C.3     1  UNL1        0.1186
      8 N           8.1845   -5.0629   27.9180 N.am    1  UNL1       -0.2688
      9 C           8.5291   -5.2286   29.3684 C.2     1  UNL1        0.2493
     10 O           9.3755   -6.3853   29.8108 O.2     1  UNL1       -0.2699
     11 C           8.6861   -6.0540   26.9100 C.3     1  UNL1        0.1343
     12 C           9.5325   -7.2107   27.3524 C.3     1  UNL1        0.0298
     13 C           8.0275   -4.2375   30.3764 C.ar    1  UNL1        0.0536
     14 C           6.8242   -4.5609   31.2116 C.ar    1  UNL1        0.0045
     15 C           6.3225   -3.5697   32.2196 C.ar    1  UNL1        0.0006
     16 C           7.0242   -2.2553   32.3924 C.ar    1  UNL1        0.0060
     17 C           8.2275   -1.9319   31.5573 C.ar    1  UNL1        0.0006
     18 C           8.7291   -2.9230   30.5493 C.ar    1  UNL1        0.0045
     19 C           6.5225   -1.2642   33.4005 C.ar    1  UNL1        0.0295
     20 C           5.1598   -1.2571   34.0274 C.ar    1  UNL1        0.0070
     21 C           5.0906   -0.0947   34.9729 C.ar    1  UNL1        0.0075
     22 C           6.4106    0.6167   34.9303 C.ar    1  UNL1        0.0354
     23 S           7.2956   -0.1061   33.9584 S.2     1  UNL1       -0.0864
     24 C           4.9207   -2.9753   21.1057 C.ar    1  UNL1        0.0879
     25 N           5.3959   -4.2320   21.7729 N.ar    1  UNL1       -0.2396
     26 C           6.5429   -3.8747   22.6711 C.ar    1  UNL1        0.1237
     27 C           6.7766   -2.3972   22.5592 C.ar    1  UNL1        0.0588
     28 S           5.7740   -1.8414   21.5917 S.2     1  UNL1       -0.0701
     29 C           2.9568   -1.6252   20.0712 C.3     1  UNL1        0.0069
     30 C           3.7907   -2.8710   20.1249 C.3     1  UNL1        0.0466
     31 C           3.4944   -4.0123   19.1978 C.3     1  UNL1        0.0069
@<TRIPOS>BOND
     1    29    30    1
     2    30    31    1
     3    30    24    1
     4    24    25   ar
     5    25    26   ar
     6    26     1    1
     7     1     2   ar
     8     2     3   ar
     9     3     4   ar
    10     4     5   ar
    11     5     6    1
    12     6     7    1
    13     7     8    1
    14     8     9   am
    15     9    10    2
    16     9    13    1
    17    13    14   ar
    18    14    15   ar
    19    15    16   ar
    20    16    19    1
    21    19    20   ar
    22    20    21   ar
    23    21    22   ar
    24    22    23   ar
    25    16    17   ar
    26    17    18   ar
    27     8    11    1
    28    11    12    1
    29    26    27   ar
    30    27    28   ar
    31    28    24   ar
    32     5     1   ar
    33    18    13   ar
    34    11     4    1
    35    23    19   ar
@<TRIPOS>MOLECULE
*****
 31 35 0 0 0
SMALL
GASTEIGER

@<TRIPOS>ATOM
      1 C          -0.1126    2.6121   20.6206 C.ar    1  UNL1        0.1845
      2 N          -1.3330    3.2733   20.0520 N.ar    1  UNL1       -0.1274
      3 N          -2.2325    3.6459   21.1931 N.ar    1  UNL1       -0.1316
      4 C          -1.5681    3.2150   22.4669 C.ar    1  UNL1        0.1615
      5 N          -0.2579    2.5760   22.1132 N.ar    1  UNL1       -0.2944
      6 C           0.6336    2.0439   23.1958 C.3     1  UNL1        0.1302
      7 C           0.2149    2.1508   24.6322 C.3     1  UNL1        0.1186
      8 N          -1.0953    2.7897   24.9860 N.am    1  UNL1       -0.2688
      9 C          -1.5140    2.8965   26.4224 C.2     1  UNL1        0.2493
     10 O          -2.8242    3.5354   26.7762 O.2     1  UNL1       -0.2699
     11 C          -1.9868    3.3218   23.9033 C.3     1  UNL1        0.1343
     12 C          -3.2970    3.9607   24.2571 C.3     1  UNL1        0.0298
     13 C          -0.6225    2.3644   27.5050 C.ar    1  UNL1        0.0536
     14 C          -0.7482    0.9361   27.9457 C.ar    1  UNL1        0.0045
     15 C           0.1434    0.4041   29.0283 C.ar    1  UNL1        0.0006
     16 C           1.1606    1.3003   29.6703 C.ar    1  UNL1        0.0060
     17 C           1.2863    2.7286   29.2296 C.ar    1  UNL1        0.0006
     18 C           0.3948    3.2606   28.1470 C.ar    1  UNL1        0.0045
     19 C           2.0522    0.7682   30.7529 C.ar    1  UNL1        0.0295
     20 C           2.7920   -0.5364   30.7242 C.ar    1  UNL1        0.0070
     21 C           3.5574   -0.6635   32.0079 C.ar    1  UNL1        0.0075
     22 C           3.2907    0.5625   32.8300 C.ar    1  UNL1        0.0354
     23 S           2.3604    1.4474   32.0544 S.2     1  UNL1       -0.0864
     24 C           2.6322    0.5612   18.7971 C.ar    1  UNL1        0.0879
     25 N           1.4008    0.6338   19.6506 N.ar    1  UNL1       -0.2396
     26 C           1.0491    2.0803   19.8348 C.ar    1  UNL1        0.1237
     27 C           2.0631    2.9018   19.0951 C.ar    1  UNL1        0.0588
     28 S           3.0415    1.9629   18.4538 S.2     1  UNL1       -0.0701
     29 C           3.4557   -1.8487   19.3111 C.3     1  UNL1        0.0069
     30 C           3.3314   -0.6928   18.3631 C.3     1  UNL1        0.0466
     31 C           3.9065   -0.7910   16.9812 C.3     1  UNL1        0.0069
@<TRIPOS>BOND
     1    29    30    1
     2    30    31    1
     3    30    24    1
     4    24    25   ar
     5    25    26   ar
     6    26     1    1
     7     1     2   ar
     8     2     3   ar
     9     3     4   ar
    10     4     5   ar
    11     5     6    1
    12     6     7    1
    13     7     8    1
    14     8     9   am
    15     9    10    2
    16     9    13    1
    17    13    14   ar
    18    14    15   ar
    19    15    16   ar
    20    16    19    1
    21    19    20   ar
    22    20    21   ar
    23    21    22   ar
    24    22    23   ar
    25    16    17   ar
    26    17    18   ar
    27     8    11    1
    28    11    12    1
    29    26    27   ar
    30    27    28   ar
    31    28    24   ar
    32     5     1   ar
    33    18    13   ar
    34    11     4    1
    35    23    19   ar
@<TRIPOS>MOLECULE
*****
 31 35 0 0 0
SMALL
GASTEIGER

@<TRIPOS>ATOM
      1 C           1.3630    0.7117   19.5478 C.ar    1  UNL1        0.1845
      2 N           0.5565    1.4380   18.5124 N.ar    1  UNL1       -0.1274
      3 N          -0.3210    2.4282   19.2191 N.ar    1  UNL1       -0.1316
      4 C          -0.0569    2.3139   20.6912 C.ar    1  UNL1        0.1615
      5 N           0.9839    1.2530   20.8943 N.ar    1  UNL1       -0.2944
      6 C           1.4520    0.9169   22.2792 C.3     1  UNL1        0.1302
      7 C           0.8793    1.6418   23.4611 C.3     1  UNL1        0.1186
      8 N          -0.1615    2.7027   23.2579 N.am    1  UNL1       -0.2688
      9 C          -0.7342    3.4276   24.4396 C.2     1  UNL1        0.2493
     10 O          -1.7750    4.4885   24.2365 O.2     1  UNL1       -0.2699
     11 C          -0.6296    3.0388   21.8729 C.3     1  UNL1        0.1343
     12 C          -1.6703    4.0997   21.6698 C.3     1  UNL1        0.0298
     13 C          -0.2661    3.0915   25.8245 C.ar    1  UNL1        0.0536
     14 C           0.9140    3.8074   26.4117 C.ar    1  UNL1        0.0045
     15 C           1.3821    3.4713   27.7967 C.ar    1  UNL1        0.0006
     16 C           0.6700    2.4194   28.5944 C.ar    1  UNL1        0.0060
     17 C          -0.5102    1.7035   28.0072 C.ar    1  UNL1        0.0006
     18 C          -0.9782    2.0396   26.6223 C.ar    1  UNL1        0.0045
     19 C           1.1380    2.0833   29.9793 C.ar    1  UNL1        0.0295
     20 C           0.6064    2.6657   31.2553 C.ar    1  UNL1        0.0070
     21 C           1.3597    2.0481   32.3960 C.ar    1  UNL1        0.0075
     22 C           2.3569    1.0840   31.8249 C.ar    1  UNL1        0.0354
     23 S           2.2199    1.1057   30.3313 S.2     1  UNL1       -0.0864
     24 C           3.6500   -2.4230   19.4504 C.ar    1  UNL1        0.0879
     25 N           2.5217   -1.6426   20.0573 N.ar    1  UNL1       -0.2396
     26 C           2.3715   -0.3667   19.2831 C.ar    1  UNL1        0.1237
     27 C           3.4068   -0.3584   18.1976 C.ar    1  UNL1        0.0588
     28 S           4.1969   -1.6292   18.3010 S.2     1  UNL1       -0.0701
     29 C           4.5459   -3.9605   21.3433 C.3     1  UNL1        0.0069
     30 C           4.1444   -3.7618   19.9117 C.3     1  UNL1        0.0466
     31 C           4.2373   -4.9021   18.9416 C.3     1  UNL1        0.0069
@<TRIPOS>BOND
     1    29    30    1
     2    30    31    1
     3    30    24    1
     4    24    25   ar
     5    25    26   ar
     6    26     1    1
     7     1     2   ar
     8     2     3   ar
     9     3     4   ar
    10     4     5   ar
    11     5     6    1
    12     6     7    1
    13     7     8    1
    14     8     9   am
    15     9    10    2
    16     9    13    1
    17    13    14   ar
    18    14    15   ar
    19    15    16   ar
    20    16    19    1
    21    19    20   ar
    22    20    21   ar
    23    21    22   ar
    24    22    23   ar
    25    16    17   ar
    26    17    18   ar
    27     8    11    1
    28    11    12    1
    29    26    27   ar
    30    27    28   ar
    31    28    24   ar
    32     5     1   ar
    33    18    13   ar
    34    11     4    1
    35    23    19   ar
@<TRIPOS>MOLECULE
*****
 31 35 0 0 0
SMALL
GASTEIGER

@<TRIPOS>ATOM
      1 C           0.9911    1.4096   19.9953 C.ar    1  UNL1        0.1845
      2 N          -0.0609    2.1780   19.2517 N.ar    1  UNL1       -0.1274
      3 N          -0.9408    2.8546   20.2606 N.ar    1  UNL1       -0.1316
      4 C          -0.4327    2.5044   21.6278 C.ar    1  UNL1        0.1615
      5 N           0.7613    1.6113   21.4639 N.ar    1  UNL1       -0.2944
      6 C           1.4850    1.0972   22.6729 C.3     1  UNL1        0.1302
      7 C           1.0147    1.4761   24.0460 C.3     1  UNL1        0.1186
      8 N          -0.1793    2.3692   24.2100 N.am    1  UNL1       -0.2688
      9 C          -0.6496    2.7481   25.5830 C.2     1  UNL1        0.2493
     10 O          -1.8435    3.6411   25.7469 O.2     1  UNL1       -0.2699
     11 C          -0.9030    2.8833   23.0008 C.3     1  UNL1        0.1343
     12 C          -2.0970    3.7763   23.1647 C.3     1  UNL1        0.0298
     13 C           0.0741    2.2340   26.7920 C.ar    1  UNL1        0.0536
     14 C           1.2479    2.9894   27.3412 C.ar    1  UNL1        0.0045
     15 C           1.9716    2.4753   28.5503 C.ar    1  UNL1        0.0006
     16 C           1.5216    1.2057   29.2103 C.ar    1  UNL1        0.0060
     17 C           0.3478    0.4502   28.6611 C.ar    1  UNL1        0.0006
     18 C          -0.3759    0.9643   27.4521 C.ar    1  UNL1        0.0045
     19 C           2.2453    0.6915   30.4194 C.ar    1  UNL1        0.0295
     20 C           2.3611    1.3909   31.7413 C.ar    1  UNL1        0.0070
     21 C           3.1676    0.5193   32.6577 C.ar    1  UNL1        0.0075
     22 C           3.5502   -0.7188   31.9022 C.ar    1  UNL1        0.0354
     23 S           2.9802   -0.6124   30.5188 S.2     1  UNL1       -0.0864
     24 C           3.5275   -1.2829   18.8196 C.ar    1  UNL1        0.0879
     25 N           2.3472   -0.8673   19.6468 N.ar    1  UNL1       -0.2396
     26 C           2.0814    0.5844   19.3788 C.ar    1  UNL1        0.1237
     27 C           3.0974    1.0661   18.3859 C.ar    1  UNL1        0.0588
     28 S           3.9911   -0.0880   18.0403 S.2     1  UNL1       -0.0701
     29 C           5.5133   -2.8449   18.2137 C.3     1  UNL1        0.0069
     30 C           4.1371   -2.6528   18.7788 C.3     1  UNL1        0.0466
     31 C           3.3706   -3.8307   19.3030 C.3     1  UNL1        0.0069
@<TRIPOS>BOND
     1    29    30    1
     2    30    31    1
     3    30    24    1
     4    24    25   ar
     5    25    26   ar
     6    26     1    1
     7     1     2   ar
     8     2     3   ar
     9     3     4   ar
    10     4     5   ar
    11     5     6    1
    12     6     7    1
    13     7     8    1
    14     8     9   am
    15     9    10    2
    16     9    13    1
    17    13    14   ar
    18    14    15   ar
    19    15    16   ar
    20    16    19    1
    21    19    20   ar
    22    20    21   ar
    23    21    22   ar
    24    22    23   ar
    25    16    17   ar
    26    17    18   ar
    27     8    11    1
    28    11    12    1
    29    26    27   ar
    30    27    28   ar
    31    28    24   ar
    32     5     1   ar
    33    18    13   ar
    34    11     4    1
    35    23    19   ar
@<TRIPOS>MOLECULE
*****
 31 35 0 0 0
SMALL
GASTEIGER

@<TRIPOS>ATOM
      1 C           6.9380   -3.1785   29.3456 C.ar    1  UNL1        0.1845
      2 N           7.7325   -4.3245   29.8984 N.ar    1  UNL1       -0.1274
      3 N           8.1254   -5.2108   28.7539 N.ar    1  UNL1       -0.1316
      4 C           7.5738   -4.6127   27.4938 C.ar    1  UNL1        0.1615
      5 N           6.8399   -3.3566   27.8595 N.ar    1  UNL1       -0.2944
      6 C           6.1772   -2.5374   26.7920 C.3     1  UNL1        0.1302
      7 C           6.2483   -2.9742   25.3587 C.3     1  UNL1        0.1186
      8 N           6.9821   -4.2303   24.9930 N.am    1  UNL1       -0.2688
      9 C           7.0533   -4.6671   23.5598 C.2     1  UNL1        0.2493
     10 O           7.7871   -5.9232   23.1941 O.2     1  UNL1       -0.2699
     11 C           7.6449   -5.0495   26.0606 C.3     1  UNL1        0.1343
     12 C           8.3787   -6.3056   25.6949 C.3     1  UNL1        0.0298
     13 C           6.3905   -3.8478   22.4923 C.ar    1  UNL1        0.0536
     14 C           4.8957   -3.8465   22.3675 C.ar    1  UNL1        0.0045
     15 C           4.2330   -3.0272   21.2999 C.ar    1  UNL1        0.0006
     16 C           5.0651   -2.2093   20.3573 C.ar    1  UNL1        0.0060
     17 C           6.5599   -2.2106   20.4822 C.ar    1  UNL1        0.0006
     18 C           7.2226   -3.0298   21.5496 C.ar    1  UNL1        0.0045
     19 C           4.4023   -1.3900   19.2897 C.ar    1  UNL1        0.0295
     20 C           4.5867   -1.5544   17.8102 C.ar    1  UNL1        0.0070
     21 C           3.7372   -0.5285   17.1204 C.ar    1  UNL1        0.0075
     22 C           3.0278    0.2701   18.1737 C.ar    1  UNL1        0.0354
     23 S           3.4390   -0.2624   19.5144 S.2     1  UNL1       -0.0864
     24 C           5.1280   -0.8134   31.8348 C.ar    1  UNL1        0.0879
     25 N           5.5023   -2.1904   31.3723 N.ar    1  UNL1       -0.2396
     26 C           6.3456   -2.0521   30.1396 C.ar    1  UNL1        0.1237
     27 C           6.4926   -0.5897   29.8401 C.ar    1  UNL1        0.0588
     28 S           5.7401    0.1759   30.8878 S.2     1  UNL1       -0.0701
     29 C           3.2508    0.5956   32.9487 C.3     1  UNL1        0.0069
     30 C           4.2891   -0.4837   33.0337 C.3     1  UNL1        0.0466
     31 C           4.4884   -1.2331   34.3176 C.3     1  UNL1        0.0069
@<TRIPOS>BOND
     1    29    30    1
     2    30    31    1
     3    30    24    1
     4    24    25   ar
     5    25    26   ar
     6    26     1    1
     7     1     2   ar
     8     2     3   ar
     9     3     4   ar
    10     4     5   ar
    11     5     6    1
    12     6     7    1
    13     7     8    1
    14     8     9   am
    15     9    10    2
    16     9    13    1
    17    13    14   ar
    18    14    15   ar
    19    15    16   ar
    20    16    19    1
    21    19    20   ar
    22    20    21   ar
    23    21    22   ar
    24    22    23   ar
    25    16    17   ar
    26    17    18   ar
    27     8    11    1
    28    11    12    1
    29    26    27   ar
    30    27    28   ar
    31    28    24   ar
    32     5     1   ar
    33    18    13   ar
    34    11     4    1
    35    23    19   ar
@<TRIPOS>MOLECULE
*****
 31 35 0 0 0
SMALL
GASTEIGER

@<TRIPOS>ATOM
      1 C           6.1188   -3.5636   21.5662 C.ar    1  UNL1        0.1845
      2 N           6.9717   -4.4922   20.7537 N.ar    1  UNL1       -0.1274
      3 N           7.8830   -5.2255   21.6928 N.ar    1  UNL1       -0.1316
      4 C           7.5933   -4.7500   23.0857 C.ar    1  UNL1        0.1615
      5 N           6.5029   -3.7229   23.0074 N.ar    1  UNL1       -0.2944
      6 C           6.0007   -3.0654   24.2585 C.3     1  UNL1        0.1302
      7 C           6.5889   -3.4350   25.5881 C.3     1  UNL1        0.1186
      8 N           7.6793   -4.4621   25.6663 N.am    1  UNL1       -0.2688
      9 C           8.2674   -4.8317   26.9957 C.2     1  UNL1        0.2493
     10 O           9.3578   -5.8588   27.0740 O.2     1  UNL1       -0.2699
     11 C           8.1815   -5.1196   24.4151 C.3     1  UNL1        0.1343
     12 C           9.2719   -6.1467   24.4933 C.3     1  UNL1        0.0298
     13 C           7.7652   -4.1742   28.2469 C.ar    1  UNL1        0.0536
     14 C           7.1061   -4.9970   29.3139 C.ar    1  UNL1        0.0045
     15 C           6.6039   -4.3394   30.5651 C.ar    1  UNL1        0.0006
     16 C           6.7608   -2.8591   30.7492 C.ar    1  UNL1        0.0060
     17 C           7.4199   -2.0363   29.6822 C.ar    1  UNL1        0.0006
     18 C           7.9221   -2.6938   28.4311 C.ar    1  UNL1        0.0045
     19 C           6.2585   -2.2015   32.0004 C.ar    1  UNL1        0.0295
     20 C           4.9440   -2.4702   32.6710 C.ar    1  UNL1        0.0070
     21 C           4.8557   -1.5945   33.8857 C.ar    1  UNL1        0.0075
     22 C           6.1158   -0.7847   33.9659 C.ar    1  UNL1        0.0354
     23 S           6.9828   -1.1598   32.8006 S.2     1  UNL1       -0.0864
     24 C           3.7739   -1.2321   19.5336 C.ar    1  UNL1        0.0879
     25 N           4.9769   -2.1235   19.6252 N.ar    1  UNL1       -0.2396
     26 C           5.0664   -2.6382   21.0313 C.ar    1  UNL1        0.1237
     27 C           3.9188   -2.0648   21.8088 C.ar    1  UNL1        0.0588
     28 S           3.1200   -1.1959   20.8831 S.2     1  UNL1       -0.0701
     29 C           2.3033    0.6034   18.4299 C.3     1  UNL1        0.0069
     30 C           3.3069   -0.5048   18.3078 C.3     1  UNL1        0.0466
     31 C           3.8433   -0.8855   16.9598 C.3     1  UNL1        0.0069
@<TRIPOS>BOND
     1    29    30    1
     2    30    31    1
     3    30    24    1
     4    24    25   ar
     5    25    26   ar
     6    26     1    1
     7     1     2   ar
     8     2     3   ar
     9     3     4   ar
    10     4     5   ar
    11     5     6    1
    12     6     7    1
    13     7     8    1
    14     8     9   am
    15     9    10    2
    16     9    13    1
    17    13    14   ar
    18    14    15   ar
    19    15    16   ar
    20    16    19    1
    21    19    20   ar
    22    20    21   ar
    23    21    22   ar
    24    22    23   ar
    25    16    17   ar
    26    17    18   ar
    27     8    11    1
    28    11    12    1
    29    26    27   ar
    30    27    28   ar
    31    28    24   ar
    32     5     1   ar
    33    18    13   ar
    34    11     4    1
    35    23    19   ar
@<TRIPOS>MOLECULE
*****
 31 35 0 0 0
SMALL
GASTEIGER

@<TRIPOS>ATOM
      1 C           8.1002   -5.2761   28.0950 C.ar    1  UNL1        0.1845
      2 N           9.1824   -6.3104   28.0011 N.ar    1  UNL1       -0.1274
      3 N           9.4459   -6.5749   26.5482 N.ar    1  UNL1       -0.1316
      4 C           8.5264   -5.7040   25.7444 C.ar    1  UNL1        0.1615
      5 N           7.6948   -4.9013   26.7004 N.ar    1  UNL1       -0.2944
      6 C           6.6758   -3.9328   26.1774 C.3     1  UNL1        0.1302
      7 C           6.4884   -3.7669   24.6983 C.3     1  UNL1        0.1186
      8 N           7.3201   -4.5697   23.7424 N.am    1  UNL1       -0.2688
      9 C           7.1327   -4.4039   22.2634 C.2     1  UNL1        0.2493
     10 O           7.9644   -5.2067   21.3074 O.2     1  UNL1       -0.2699
     11 C           8.3391   -5.5382   24.2654 C.3     1  UNL1        0.1343
     12 C           9.1708   -6.3410   23.3094 C.3     1  UNL1        0.0298
     13 C           6.1137   -3.4354   21.7404 C.ar    1  UNL1        0.0536
     14 C           6.5195   -2.0331   21.3955 C.ar    1  UNL1        0.0045
     15 C           5.5004   -1.0646   20.8725 C.ar    1  UNL1        0.0006
     16 C           4.0756   -1.4983   20.6945 C.ar    1  UNL1        0.0060
     17 C           3.6698   -2.9006   21.0394 C.ar    1  UNL1        0.0006
     18 C           4.6888   -3.8691   21.5624 C.ar    1  UNL1        0.0045
     19 C           3.0565   -0.5298   20.1715 C.ar    1  UNL1        0.0295
     20 C           3.3472    0.7870   19.5146 C.ar    1  UNL1        0.0070
     21 C           2.0382    1.4225   19.1507 C.ar    1  UNL1        0.0075
     22 C           0.9383    0.4985   19.5827 C.ar    1  UNL1        0.0354
     23 S           1.5677   -0.7082   20.2136 S.2     1  UNL1       -0.0864
     24 C           6.3659   -3.2670   30.9273 C.ar    1  UNL1        0.0879
     25 N           6.7451   -3.4394   29.4863 N.ar    1  UNL1       -0.2396
     26 C           7.5245   -4.7150   29.3614 C.ar    1  UNL1        0.1237
     27 C           7.6270   -5.3310   30.7253 C.ar    1  UNL1        0.0588
     28 S           6.9110   -4.4361   31.6930 S.2     1  UNL1       -0.0701
     29 C           5.5717   -0.7962   30.8077 C.3     1  UNL1        0.0069
     30 C           5.5798   -2.1261   31.5017 C.3     1  UNL1        0.0466
     31 C           4.8017   -2.3148   32.7702 C.3     1  UNL1        0.0069
@<TRIPOS>BOND
     1    29    30    1
     2    30    31    1
     3    30    24    1
     4    24    25   ar
     5    25    26   ar
     6    26     1    1
     7     1     2   ar
     8     2     3   ar
     9     3     4   ar
    10     4     5   ar
    11     5     6    1
    12     6     7    1
    13     7     8    1
    14     8     9   am
    15     9    10    2
    16     9    13    1
    17    13    14   ar
    18    14    15   ar
    19    15    16   ar
    20    16    19    1
    21    19    20   ar
    22    20    21   ar
    23    21    22   ar
    24    22    23   ar
    25    16    17   ar
    26    17    18   ar
    27     8    11    1
    28    11    12    1
    29    26    27   ar
    30    27    28   ar
    31    28    24   ar
    32     5     1   ar
    33    18    13   ar
    34    11     4    1
    35    23    19   ar
@<TRIPOS>MOLECULE
*****
 31 35 0 0 0
SMALL
GASTEIGER

@<TRIPOS>ATOM
      1 C         -15.3154   -3.5744   17.8553 C.ar    1  UNL1        0.1845
      2 N         -16.2416   -3.8815   16.7161 N.ar    1  UNL1       -0.1274
      3 N         -17.2728   -2.7941   16.6510 N.ar    1  UNL1       -0.1316
      4 C         -16.9839   -1.8150   17.7500 C.ar    1  UNL1        0.1615
      5 N         -15.7742   -2.2972   18.4943 N.ar    1  UNL1       -0.2944
      6 C         -15.2467   -1.5110   19.6578 C.3     1  UNL1        0.1302
      7 C         -15.9290   -0.2426   20.0770 C.3     1  UNL1        0.1186
      8 N         -17.1387    0.2396   19.3327 N.am    1  UNL1       -0.2688
      9 C         -17.8210    1.5080   19.7519 C.2     1  UNL1        0.2493
     10 O         -19.0307    1.9902   19.0076 O.2     1  UNL1       -0.2699
     11 C         -17.6662   -0.5466   18.1692 C.3     1  UNL1        0.1343
     12 C         -18.8759   -0.0644   17.4249 C.3     1  UNL1        0.0298
     13 C         -17.2935    2.2941   20.9153 C.ar    1  UNL1        0.0536
     14 C         -17.7854    2.0029   22.3021 C.ar    1  UNL1        0.0045
     15 C         -17.2578    2.7891   23.4656 C.ar    1  UNL1        0.0006
     16 C         -16.2384    3.8665   23.2423 C.ar    1  UNL1        0.0060
     17 C         -15.7465    4.1578   21.8555 C.ar    1  UNL1        0.0006
     18 C         -16.2740    3.3716   20.6920 C.ar    1  UNL1        0.0045
     19 C         -15.7108    4.6527   24.4057 C.ar    1  UNL1        0.0295
     20 C         -14.2713    4.7696   24.8108 C.ar    1  UNL1        0.0070
     21 C         -14.2010    5.6492   26.0238 C.ar    1  UNL1        0.0075
     22 C         -15.5972    6.0760   26.3684 C.ar    1  UNL1        0.0354
     23 S         -16.5303    5.4601   25.3684 S.2     1  UNL1       -0.0864
     24 C         -11.8780   -5.2608   18.4925 C.ar    1  UNL1        0.0879
     25 N         -12.7227   -4.2234   17.8138 N.ar    1  UNL1       -0.2396
     26 C         -14.1372   -4.3995   18.2808 C.ar    1  UNL1        0.1237
     27 C         -14.1668   -5.5456   19.2481 C.ar    1  UNL1        0.0588
     28 S         -12.7705   -6.0779   19.3789 S.2     1  UNL1       -0.0701
     29 C          -9.6241   -4.5069   17.4428 C.3     1  UNL1        0.0069
     30 C         -10.4003   -5.4480   18.3157 C.3     1  UNL1        0.0466
     31 C          -9.6987   -6.5764   19.0118 C.3     1  UNL1        0.0069
@<TRIPOS>BOND
     1    29    30    1
     2    30    31    1
     3    30    24    1
     4    24    25   ar
     5    25    26   ar
     6    26     1    1
     7     1     2   ar
     8     2     3   ar
     9     3     4   ar
    10     4     5   ar
    11     5     6    1
    12     6     7    1
    13     7     8    1
    14     8     9   am
    15     9    10    2
    16     9    13    1
    17    13    14   ar
    18    14    15   ar
    19    15    16   ar
    20    16    19    1
    21    19    20   ar
    22    20    21   ar
    23    21    22   ar
    24    22    23   ar
    25    16    17   ar
    26    17    18   ar
    27     8    11    1
    28    11    12    1
    29    26    27   ar
    30    27    28   ar
    31    28    24   ar
    32     5     1   ar
    33    18    13   ar
    34    11     4    1
    35    23    19   ar
