@<TRIPOS>MOLECULE
*****
 15 16 0 0 0
SMALL
GASTEIGER

@<TRIPOS>ATOM
      1 C         -11.5788  -17.6126   22.7976 C.ar    1  UNL1        0.0230
      2 C         -11.4741  -18.7376   23.7843 C.ar    1  UNL1        0.0040
      3 C         -10.3110  -18.4546   24.6882 C.ar    1  UNL1        0.0067
      4 C          -9.6968  -17.1547   24.2602 C.ar    1  UNL1        0.0307
      5 S         -10.4803  -16.6344   23.0917 S.2     1  UNL1       -0.0899
      6 C          -8.5078  -16.4917   24.8901 C.ar    1  UNL1        0.0252
      7 C          -8.4514  -16.3096   26.3779 C.ar    1  UNL1        0.0036
      8 C          -7.2624  -15.6465   27.0077 C.ar    1  UNL1        0.0207
      9 C          -6.1299  -15.1656   26.1497 C.ar    1  UNL1        0.0989
     10 N          -6.1864  -15.3477   24.6619 N.ar    1  UNL1       -0.2423
     11 C          -7.3753  -16.0107   24.0321 C.ar    1  UNL1        0.0993
     12 N         -12.2958  -16.6831   20.4799 N.3     1  UNL1       -0.3170
     13 C         -12.6022  -17.4878   21.7081 C.3     1  UNL1        0.0987
     14 H         -13.0974  -16.7061   19.8495 H       1  UNL1        0.1192
     15 H         -11.4816  -17.0778   20.0091 H       1  UNL1        0.1192
@<TRIPOS>BOND
     1    12    13    1
     2    13     1    1
     3     1     2   ar
     4     2     3   ar
     5     3     4   ar
     6     4     6    1
     7     6     7   ar
     8     7     8   ar
     9     8     9   ar
    10     9    10   ar
    11    10    11   ar
    12     4     5   ar
    13     5     1   ar
    14    11     6   ar
    15    12    14    1
    16    12    15    1
@<TRIPOS>MOLECULE
*****
 15 16 0 0 0
SMALL
GASTEIGER

@<TRIPOS>ATOM
      1 C          -7.2208  -19.3507   20.3055 C.ar    1  UNL1        0.0230
      2 C          -8.1126  -19.7181   19.1567 C.ar    1  UNL1        0.0040
      3 C          -9.5334  -19.4966   19.5837 C.ar    1  UNL1        0.0067
      4 C          -9.5197  -18.9924   20.9963 C.ar    1  UNL1        0.0307
      5 S          -8.0904  -18.9022   21.4425 S.2     1  UNL1       -0.0899
      6 C         -10.7239  -18.6402   21.8185 C.ar    1  UNL1        0.0252
      7 C         -11.9281  -18.0321   21.1627 C.ar    1  UNL1        0.0036
      8 C         -13.1322  -17.6799   21.9849 C.ar    1  UNL1        0.0207
      9 C         -13.1321  -17.9358   23.4629 C.ar    1  UNL1        0.0989
     10 N         -11.9280  -18.5439   24.1187 N.ar    1  UNL1       -0.2423
     11 C         -10.7238  -18.8960   23.2965 C.ar    1  UNL1        0.0993
     12 N          -4.9221  -18.4669   19.4780 N.3     1  UNL1       -0.3170
     13 C          -5.7224  -19.4197   20.3156 C.3     1  UNL1        0.0987
     14 H          -3.9277  -18.6548   19.6056 H       1  UNL1        0.1192
     15 H          -5.1266  -17.5092   19.7632 H       1  UNL1        0.1192
@<TRIPOS>BOND
     1    12    13    1
     2    13     1    1
     3     1     2   ar
     4     2     3   ar
     5     3     4   ar
     6     4     6    1
     7     6     7   ar
     8     7     8   ar
     9     8     9   ar
    10     9    10   ar
    11    10    11   ar
    12     4     5   ar
    13     5     1   ar
    14    11     6   ar
    15    12    14    1
    16    12    15    1
@<TRIPOS>MOLECULE
*****
 15 16 0 0 0
SMALL
GASTEIGER

@<TRIPOS>ATOM
      1 C          -4.4945  -19.6481   21.3835 C.ar    1  UNL1        0.0230
      2 C          -4.7933  -20.6312   20.2906 C.ar    1  UNL1        0.0040
      3 C          -6.2752  -20.6294   20.0580 C.ar    1  UNL1        0.0067
      4 C          -6.8922  -19.6453   21.0072 C.ar    1  UNL1        0.0307
      5 S          -5.7916  -19.0388   21.8264 S.2     1  UNL1       -0.0899
      6 C          -8.3532  -19.3240   21.1177 C.ar    1  UNL1        0.0252
      7 C          -9.2303  -19.3930   19.9029 C.ar    1  UNL1        0.0036
      8 C         -10.6913  -19.0718   20.0135 C.ar    1  UNL1        0.0207
      9 C         -11.2752  -18.6816   21.3389 C.ar    1  UNL1        0.0989
     10 N         -10.3981  -18.6126   22.5538 N.ar    1  UNL1       -0.2423
     11 C          -8.9371  -18.9338   22.4432 C.ar    1  UNL1        0.0993
     12 N          -1.9428  -20.1241   21.4958 N.3     1  UNL1       -0.3170
     13 C          -3.1368  -19.3302   21.9364 C.3     1  UNL1        0.0987
     14 H          -1.1091  -19.7748   21.9684 H       1  UNL1        0.1192
     15 H          -1.8260  -20.0308   20.4868 H       1  UNL1        0.1192
@<TRIPOS>BOND
     1    12    13    1
     2    13     1    1
     3     1     2   ar
     4     2     3   ar
     5     3     4   ar
     6     4     6    1
     7     6     7   ar
     8     7     8   ar
     9     8     9   ar
    10     9    10   ar
    11    10    11   ar
    12     4     5   ar
    13     5     1   ar
    14    11     6   ar
    15    12    14    1
    16    12    15    1
@<TRIPOS>MOLECULE
*****
 15 16 0 0 0
SMALL
GASTEIGER

@<TRIPOS>ATOM
      1 C          -3.6093  -19.7319   21.1646 C.ar    1  UNL1        0.0230
      2 C          -4.3909  -20.5060   20.1447 C.ar    1  UNL1        0.0040
      3 C          -5.8492  -20.3383   20.4534 C.ar    1  UNL1        0.0067
      4 C          -5.9688  -19.4606   21.6640 C.ar    1  UNL1        0.0307
      5 S          -4.5845  -19.0859   22.1035 S.2     1  UNL1       -0.0899
      6 C          -7.2483  -19.0329   22.3198 C.ar    1  UNL1        0.0252
      7 C          -8.2677  -20.0594   22.7160 C.ar    1  UNL1        0.0036
      8 C          -9.5471  -19.6315   23.3719 C.ar    1  UNL1        0.0207
      9 C          -9.8070  -18.1772   23.6315 C.ar    1  UNL1        0.0989
     10 N          -8.7875  -17.1507   23.2354 N.ar    1  UNL1       -0.2423
     11 C          -7.5082  -17.5785   22.5795 C.ar    1  UNL1        0.0993
     12 N          -1.4770  -18.6305   22.1596 N.3     1  UNL1       -0.3170
     13 C          -2.1148  -19.6231   21.2334 C.3     1  UNL1        0.0987
     14 H          -0.4621  -18.6923   22.0777 H       1  UNL1        0.1192
     15 H          -1.7536  -18.8350   23.1199 H       1  UNL1        0.1192
@<TRIPOS>BOND
     1    12    13    1
     2    13     1    1
     3     1     2   ar
     4     2     3   ar
     5     3     4   ar
     6     4     6    1
     7     6     7   ar
     8     7     8   ar
     9     8     9   ar
    10     9    10   ar
    11    10    11   ar
    12     4     5   ar
    13     5     1   ar
    14    11     6   ar
    15    12    14    1
    16    12    15    1
@<TRIPOS>MOLECULE
*****
 15 16 0 0 0
SMALL
GASTEIGER

@<TRIPOS>ATOM
      1 C          -9.2483  -18.0471   22.5123 C.ar    1  UNL1        0.0230
      2 C          -9.3882  -19.4758   22.9474 C.ar    1  UNL1        0.0040
      3 C          -8.0830  -20.1687   22.6896 C.ar    1  UNL1        0.0067
      4 C          -7.1365  -19.1682   22.0952 C.ar    1  UNL1        0.0307
      5 S          -7.8567  -17.8570   21.9856 S.2     1  UNL1       -0.0899
      6 C          -5.7187  -19.4326   21.6828 C.ar    1  UNL1        0.0252
      7 C          -5.4339  -20.1995   20.4256 C.ar    1  UNL1        0.0036
      8 C          -4.0162  -20.4639   20.0132 C.ar    1  UNL1        0.0207
      9 C          -2.8832  -19.9613   20.8581 C.ar    1  UNL1        0.0989
     10 N          -3.1680  -19.1944   22.1154 N.ar    1  UNL1       -0.2423
     11 C          -4.5858  -18.9301   22.5277 C.ar    1  UNL1        0.0993
     12 N         -10.1502  -15.8301   23.5229 N.3     1  UNL1       -0.3170
     13 C         -10.3131  -16.9935   22.5902 C.3     1  UNL1        0.0987
     14 H         -10.9619  -15.2170   23.4467 H       1  UNL1        0.1192
     15 H          -9.3077  -15.3112   23.2753 H       1  UNL1        0.1192
@<TRIPOS>BOND
     1    12    13    1
     2    13     1    1
     3     1     2   ar
     4     2     3   ar
     5     3     4   ar
     6     4     6    1
     7     6     7   ar
     8     7     8   ar
     9     8     9   ar
    10     9    10   ar
    11    10    11   ar
    12     4     5   ar
    13     5     1   ar
    14    11     6   ar
    15    12    14    1
    16    12    15    1
@<TRIPOS>MOLECULE
*****
 15 16 0 0 0
SMALL
GASTEIGER

@<TRIPOS>ATOM
      1 C          -9.8074  -17.8921   21.5044 C.ar    1  UNL1        0.0230
      2 C         -10.9537  -17.3054   22.2738 C.ar    1  UNL1        0.0040
      3 C         -10.3929  -16.5868   23.4651 C.ar    1  UNL1        0.0067
      4 C          -8.9000  -16.7294   23.4319 C.ar    1  UNL1        0.0307
      5 S          -8.5382  -17.5361   22.2202 S.2     1  UNL1       -0.0899
      6 C          -7.9379  -16.1644   24.4346 C.ar    1  UNL1        0.0252
      7 C          -8.3138  -16.1078   25.8855 C.ar    1  UNL1        0.0036
      8 C          -7.3517  -15.5429   26.8881 C.ar    1  UNL1        0.0207
      9 C          -6.0136  -15.0345   26.4396 C.ar    1  UNL1        0.0989
     10 N          -5.6377  -15.0910   24.9886 N.ar    1  UNL1       -0.2423
     11 C          -6.5998  -15.6560   23.9861 C.ar    1  UNL1        0.0993
     12 N          -8.6731  -19.0508   19.4745 N.3     1  UNL1       -0.3170
     13 C          -9.9120  -18.6940   20.2411 C.3     1  UNL1        0.0987
     14 H          -8.9284  -19.5933   18.6492 H       1  UNL1        0.1192
     15 H          -8.0542  -19.6042   20.0670 H       1  UNL1        0.1192
@<TRIPOS>BOND
     1    12    13    1
     2    13     1    1
     3     1     2   ar
     4     2     3   ar
     5     3     4   ar
     6     4     6    1
     7     6     7   ar
     8     7     8   ar
     9     8     9   ar
    10     9    10   ar
    11    10    11   ar
    12     4     5   ar
    13     5     1   ar
    14    11     6   ar
    15    12    14    1
    16    12    15    1
@<TRIPOS>MOLECULE
*****
 15 16 0 0 0
SMALL
GASTEIGER

@<TRIPOS>ATOM
      1 C         -11.6672   -5.4088   19.0856 C.ar    1  UNL1        0.0230
      2 C         -12.7182   -4.4311   19.5208 C.ar    1  UNL1        0.0040
      3 C         -14.0367   -5.1460   19.5403 C.ar    1  UNL1        0.0067
      4 C         -13.8006   -6.5656   19.1171 C.ar    1  UNL1        0.0307
      5 S         -12.3361   -6.7280   18.8361 S.2     1  UNL1       -0.0899
      6 C         -14.8455   -7.6350   18.9962 C.ar    1  UNL1        0.0252
      7 C         -16.2413   -7.3780   19.4816 C.ar    1  UNL1        0.0036
      8 C         -17.2862   -8.4474   19.3606 C.ar    1  UNL1        0.0207
      9 C         -16.9352   -9.7738   18.7544 C.ar    1  UNL1        0.0989
     10 N         -15.5394  -10.0308   18.2691 N.ar    1  UNL1       -0.2423
     11 C         -14.4945   -8.9614   18.3900 C.ar    1  UNL1        0.0993
     12 N          -9.6680   -3.7598   19.2693 N.3     1  UNL1       -0.3170
     13 C         -10.2041   -5.1184   18.9276 C.3     1  UNL1        0.0987
     14 H          -8.6618   -3.7397   19.1033 H       1  UNL1        0.1192
     15 H          -9.8546   -3.5578   20.2516 H       1  UNL1        0.1192
@<TRIPOS>BOND
     1    12    13    1
     2    13     1    1
     3     1     2   ar
     4     2     3   ar
     5     3     4   ar
     6     4     6    1
     7     6     7   ar
     8     7     8   ar
     9     8     9   ar
    10     9    10   ar
    11    10    11   ar
    12     4     5   ar
    13     5     1   ar
    14    11     6   ar
    15    12    14    1
    16    12    15    1
@<TRIPOS>MOLECULE
*****
 15 16 0 0 0
SMALL
GASTEIGER

@<TRIPOS>ATOM
      1 C         -10.1860   -6.3774   18.8872 C.ar    1  UNL1        0.0230
      2 C          -9.5746   -5.0108   18.7941 C.ar    1  UNL1        0.0040
      3 C         -10.6756   -4.0006   18.9260 C.ar    1  UNL1        0.0067
      4 C         -11.9673   -4.7429   19.1007 C.ar    1  UNL1        0.0307
      5 S         -11.6647   -6.2118   19.0767 S.2     1  UNL1       -0.0899
      6 C         -13.3235   -4.1246   19.2697 C.ar    1  UNL1        0.0252
      7 C         -13.4473   -2.6672   19.6021 C.ar    1  UNL1        0.0036
      8 C         -14.8035   -2.0490   19.7711 C.ar    1  UNL1        0.0207
      9 C         -16.0359   -2.8883   19.6077 C.ar    1  UNL1        0.0989
     10 N         -15.9122   -4.3457   19.2752 N.ar    1  UNL1       -0.2423
     11 C         -14.5560   -4.9639   19.1062 C.ar    1  UNL1        0.0993
     12 N          -9.8842   -8.7292   17.8250 N.3     1  UNL1       -0.3170
     13 C          -9.4481   -7.6809   18.8052 C.3     1  UNL1        0.0987
     14 H          -9.2754   -9.5437   17.9049 H       1  UNL1        0.1192
     15 H          -9.8276   -8.3540   16.8782 H       1  UNL1        0.1192
@<TRIPOS>BOND
     1    12    13    1
     2    13     1    1
     3     1     2   ar
     4     2     3   ar
     5     3     4   ar
     6     4     6    1
     7     6     7   ar
     8     7     8   ar
     9     8     9   ar
    10     9    10   ar
    11    10    11   ar
    12     4     5   ar
    13     5     1   ar
    14    11     6   ar
    15    12    14    1
    16    12    15    1
@<TRIPOS>MOLECULE
*****
 15 16 0 0 0
SMALL
GASTEIGER

@<TRIPOS>ATOM
      1 C          -7.9769  -16.7050   23.6060 C.ar    1  UNL1        0.0230
      2 C          -8.8280  -17.8759   23.2128 C.ar    1  UNL1        0.0040
      3 C          -7.9594  -18.8548   22.4798 C.ar    1  UNL1        0.0067
      4 C          -6.5715  -18.2889   22.4201 C.ar    1  UNL1        0.0307
      5 S          -6.5824  -16.9602   23.1161 S.2     1  UNL1       -0.0899
      6 C          -5.3817  -18.9378   21.7771 C.ar    1  UNL1        0.0252
      7 C          -4.0530  -18.9248   22.4730 C.ar    1  UNL1        0.0036
      8 C          -2.8633  -19.5737   21.8300 C.ar    1  UNL1        0.0207
      9 C          -3.0023  -20.2356   20.4912 C.ar    1  UNL1        0.0989
     10 N          -4.3310  -20.2486   19.7953 N.ar    1  UNL1       -0.2423
     11 C          -5.5207  -19.5998   20.4382 C.ar    1  UNL1        0.0993
     12 N          -7.6857  -14.2007   24.2336 N.3     1  UNL1       -0.3170
     13 C          -8.4392  -15.4917   24.3573 C.3     1  UNL1        0.0987
     14 H          -8.1361  -13.4878   24.8075 H       1  UNL1        0.1192
     15 H          -7.6831  -13.9006   23.2587 H       1  UNL1        0.1192
@<TRIPOS>BOND
     1    12    13    1
     2    13     1    1
     3     1     2   ar
     4     2     3   ar
     5     3     4   ar
     6     4     6    1
     7     6     7   ar
     8     7     8   ar
     9     8     9   ar
    10     9    10   ar
    11    10    11   ar
    12     4     5   ar
    13     5     1   ar
    14    11     6   ar
    15    12    14    1
    16    12    15    1
