@<TRIPOS>MOLECULE
*****
 22 22 0 0 0
SMALL
GASTEIGER

@<TRIPOS>ATOM
      1 C         -10.3274  -19.6613   22.2709 C.ar    1  UNL1        0.1383
      2 C         -11.0679  -19.7891   20.9728 C.ar    1  UNL1        0.0369
      3 C         -10.3294  -19.6675   19.6729 C.ar    1  UNL1        0.0029
      4 C          -8.8503  -19.4181   19.6711 C.ar    1  UNL1       -0.0014
      5 C          -8.1098  -19.2904   20.9692 C.ar    1  UNL1        0.0142
      6 C          -8.8483  -19.4120   22.2691 C.ar    1  UNL1        0.0353
      7 C          -6.6306  -19.0410   20.9675 C.3     1  UNL1        0.1990
      8 F          -5.9005  -18.8691   19.6684 F       1  UNL1       -0.2309
      9 C          -5.8815  -18.9634   22.2647 C.3     1  UNL1        0.1093
     10 N          -5.1642  -17.7013   22.6423 N.3     1  UNL1       -0.2872
     11 H          -5.6240  -17.3401   23.4782 H       1  UNL1        0.1238
     12 C          -3.6938  -17.7337   22.9368 C.3     1  UNL1        0.1552
     13 C          -2.7154  -17.2070   21.9291 C.2     1  UNL1        0.2419
     14 O          -2.5013  -15.7286   21.7934 O.2     1  UNL1       -0.2734
     15 N          -1.9512  -18.1587   21.0572 N.am    1  UNL1       -0.2749
     16 C          -0.9728  -17.6321   20.0496 C.3     1  UNL1        0.1149
     17 C          -2.1654  -19.6372   21.1930 C.3     1  UNL1        0.1149
     18 O         -11.0659  -19.7829   23.5709 O.3     1  UNL1       -0.4755
     19 C         -11.7504  -18.5851   24.1595 C.3     1  UNL1        0.2054
     20 C         -12.8455  -17.8979   23.3988 C.3     1  UNL1        0.0473
     21 C         -11.1460  -16.1758   22.4519 C.3     1  UNL1        0.0001
     22 C         -12.5628  -16.6183   22.6689 C.3     1  UNL1        0.0038
@<TRIPOS>BOND
     1    21    22    1
     2    22    20    1
     3    20    19    1
     4    19    18    1
     5    18     1    1
     6     1     2   ar
     7     2     3   ar
     8     3     4   ar
     9     4     5   ar
    10     5     7    1
    11     7     8    1
    12     7     9    1
    13     9    10    1
    14    10    12    1
    15    12    13    1
    16    13    14    2
    17    13    15   am
    18    15    16    1
    19    15    17    1
    20     5     6   ar
    21     6     1   ar
    22    10    11    1
@<TRIPOS>MOLECULE
*****
 22 22 0 0 0
SMALL
GASTEIGER

@<TRIPOS>ATOM
      1 C          -9.7164  -18.0756   21.2370 C.ar    1  UNL1        0.1383
      2 C         -10.5888  -18.5461   20.1112 C.ar    1  UNL1        0.0369
      3 C         -10.0532  -19.5199   19.1038 C.ar    1  UNL1        0.0029
      4 C          -8.6452  -20.0232   19.2223 C.ar    1  UNL1       -0.0014
      5 C          -7.7727  -19.5527   20.3480 C.ar    1  UNL1        0.0142
      6 C          -8.3084  -18.5788   21.3554 C.ar    1  UNL1        0.0353
      7 C          -6.3646  -20.0560   20.4665 C.3     1  UNL1        0.1990
      8 F          -6.0515  -21.4890   20.1530 F       1  UNL1       -0.2309
      9 C          -5.2697  -19.1262   20.8985 C.3     1  UNL1        0.1093
     10 N          -4.8997  -19.0257   22.3487 N.3     1  UNL1       -0.2872
     11 H          -5.1900  -19.8994   22.7879 H       1  UNL1        0.1238
     12 C          -3.4711  -18.7960   22.7441 C.3     1  UNL1        0.1552
     13 C          -2.3744  -18.9906   21.7396 C.2     1  UNL1        0.2419
     14 O          -1.9449  -20.3760   21.3569 O.2     1  UNL1       -0.2734
     15 N          -1.7070  -17.7999   21.1176 N.am    1  UNL1       -0.2749
     16 C          -0.6103  -17.9945   20.1130 C.3     1  UNL1        0.1149
     17 C          -2.1365  -16.4145   21.5003 C.3     1  UNL1        0.1149
     18 O         -10.2521  -17.1017   22.2443 O.3     1  UNL1       -0.4755
     19 C         -11.2938  -17.5397   23.2306 C.3     1  UNL1        0.2054
     20 C         -10.9447  -18.5331   24.2989 C.3     1  UNL1        0.0473
     21 C          -9.4504  -20.6573   24.2262 C.3     1  UNL1        0.0001
     22 C         -10.7589  -19.9793   23.9465 C.3     1  UNL1        0.0038
@<TRIPOS>BOND
     1    21    22    1
     2    22    20    1
     3    20    19    1
     4    19    18    1
     5    18     1    1
     6     1     2   ar
     7     2     3   ar
     8     3     4   ar
     9     4     5   ar
    10     5     7    1
    11     7     8    1
    12     7     9    1
    13     9    10    1
    14    10    12    1
    15    12    13    1
    16    13    14    2
    17    13    15   am
    18    15    16    1
    19    15    17    1
    20     5     6   ar
    21     6     1   ar
    22    10    11    1
@<TRIPOS>MOLECULE
*****
 22 22 0 0 0
SMALL
GASTEIGER

@<TRIPOS>ATOM
      1 C          -9.6647  -17.0704   23.3230 C.ar    1  UNL1        0.1383
      2 C         -10.9531  -17.6493   22.8182 C.ar    1  UNL1        0.0369
      3 C         -10.9372  -18.6679   21.7172 C.ar    1  UNL1        0.0029
      4 C          -9.6330  -19.1075   21.1210 C.ar    1  UNL1       -0.0014
      5 C          -8.3446  -18.5286   21.6258 C.ar    1  UNL1        0.0142
      6 C          -8.3604  -17.5100   22.7268 C.ar    1  UNL1        0.0353
      7 C          -7.0402  -18.9683   21.0295 C.3     1  UNL1        0.1990
      8 F          -6.9028  -19.1018   19.5418 F       1  UNL1       -0.2309
      9 C          -5.8734  -19.2744   21.9210 C.3     1  UNL1        0.1093
     10 N          -4.8664  -18.2068   22.2315 N.3     1  UNL1       -0.2872
     11 H          -5.2804  -17.6113   22.9487 H       1  UNL1        0.1238
     12 C          -3.4989  -18.5845   22.7186 C.3     1  UNL1        0.1552
     13 C          -2.4013  -18.8588   21.7337 C.2     1  UNL1        0.2419
     14 O          -2.0589  -20.2724   21.3669 O.2     1  UNL1       -0.2734
     15 N          -1.6461  -17.7196   21.1157 N.am    1  UNL1       -0.2749
     16 C          -0.5485  -17.9940   20.1308 C.3     1  UNL1        0.1149
     17 C          -1.9885  -16.3060   21.4825 C.3     1  UNL1        0.1149
     18 O          -9.6806  -16.0518   24.4240 O.3     1  UNL1       -0.4755
     19 C          -8.3907  -15.5738   25.0222 C.3     1  UNL1        0.2054
     20 C          -8.0645  -15.8897   26.4518 C.3     1  UNL1        0.0473
     21 C          -5.5293  -15.3992   26.1645 C.3     1  UNL1        0.0001
     22 C          -6.7503  -15.4602   27.0337 C.3     1  UNL1        0.0038
@<TRIPOS>BOND
     1    21    22    1
     2    22    20    1
     3    20    19    1
     4    19    18    1
     5    18     1    1
     6     1     2   ar
     7     2     3   ar
     8     3     4   ar
     9     4     5   ar
    10     5     7    1
    11     7     8    1
    12     7     9    1
    13     9    10    1
    14    10    12    1
    15    12    13    1
    16    13    14    2
    17    13    15   am
    18    15    16    1
    19    15    17    1
    20     5     6   ar
    21     6     1   ar
    22    10    11    1
@<TRIPOS>MOLECULE
*****
 22 22 0 0 0
SMALL
GASTEIGER

@<TRIPOS>ATOM
      1 C          -8.1316  -19.2567   20.4823 C.ar    1  UNL1        0.1383
      2 C          -9.3530  -19.4370   19.6305 C.ar    1  UNL1        0.0369
      3 C         -10.6828  -19.7008   20.2723 C.ar    1  UNL1        0.0029
      4 C         -10.7913  -19.7844   21.7660 C.ar    1  UNL1       -0.0014
      5 C          -9.5699  -19.6042   22.6179 C.ar    1  UNL1        0.0142
      6 C          -8.2401  -19.3403   21.9761 C.ar    1  UNL1        0.0353
      7 C          -9.6783  -19.6877   24.1117 C.3     1  UNL1        0.1990
      8 F          -9.6468  -21.0241   24.7923 F       1  UNL1       -0.2309
      9 C          -9.8183  -18.4351   24.9248 C.3     1  UNL1        0.1093
     10 N          -9.9588  -17.1080   24.2397 N.3     1  UNL1       -0.2872
     11 H         -10.9074  -16.7810   24.4230 H       1  UNL1        0.1238
     12 C          -9.0358  -15.9798   24.5936 C.3     1  UNL1        0.1552
     13 C          -7.7161  -15.8429   23.8940 C.2     1  UNL1        0.2419
     14 O          -7.6465  -15.9375   22.3986 O.2     1  UNL1       -0.2734
     15 N          -6.4658  -15.6114   24.6898 N.am    1  UNL1       -0.2749
     16 C          -5.1460  -15.4746   23.9902 C.3     1  UNL1        0.1149
     17 C          -6.5353  -15.5169   26.1852 C.3     1  UNL1        0.1149
     18 O          -6.8018  -18.9929   19.8405 O.3     1  UNL1       -0.4755
     19 C          -5.5982  -19.7860   20.2556 C.3     1  UNL1        0.2054
     20 C          -4.2936  -19.0910   20.5106 C.3     1  UNL1        0.0473
     21 C          -2.4487  -17.9109   19.1129 C.3     1  UNL1        0.0001
     22 C          -3.1973  -19.1552   19.4888 C.3     1  UNL1        0.0038
@<TRIPOS>BOND
     1    21    22    1
     2    22    20    1
     3    20    19    1
     4    19    18    1
     5    18     1    1
     6     1     2   ar
     7     2     3   ar
     8     3     4   ar
     9     4     5   ar
    10     5     7    1
    11     7     8    1
    12     7     9    1
    13     9    10    1
    14    10    12    1
    15    12    13    1
    16    13    14    2
    17    13    15   am
    18    15    16    1
    19    15    17    1
    20     5     6   ar
    21     6     1   ar
    22    10    11    1
@<TRIPOS>MOLECULE
*****
 22 22 0 0 0
SMALL
GASTEIGER

@<TRIPOS>ATOM
      1 C          -6.2304  -20.0112   21.1212 C.ar    1  UNL1        0.1383
      2 C          -5.4019  -20.7816   20.1363 C.ar    1  UNL1        0.0369
      3 C          -3.9111  -20.6162   20.1188 C.ar    1  UNL1        0.0029
      4 C          -3.2489  -19.6805   21.0863 C.ar    1  UNL1       -0.0014
      5 C          -4.0775  -18.9102   22.0712 C.ar    1  UNL1        0.0142
      6 C          -5.5682  -19.0756   22.0886 C.ar    1  UNL1        0.0353
      7 C          -3.4152  -17.9745   23.0386 C.3     1  UNL1        0.1990
      8 F          -1.9194  -17.9405   23.1448 F       1  UNL1       -0.2309
      9 C          -4.2489  -17.0728   23.8999 C.3     1  UNL1        0.1093
     10 N          -4.7982  -15.7953   23.3372 N.3     1  UNL1       -0.2872
     11 H          -4.8272  -15.9085   22.3239 H       1  UNL1        0.1238
     12 C          -6.1545  -15.3125   23.7580 C.3     1  UNL1        0.1552
     13 C          -6.4816  -15.1715   25.2150 C.2     1  UNL1        0.2419
     14 O          -5.4538  -14.6335   26.1658 O.2     1  UNL1       -0.2734
     15 N          -7.8367  -15.5684   25.7213 N.am    1  UNL1       -0.2749
     16 C          -8.1639  -15.4274   27.1784 C.3     1  UNL1        0.1149
     17 C          -8.8646  -16.1063   24.7705 C.3     1  UNL1        0.1149
     18 O          -7.7212  -20.1766   21.1387 O.3     1  UNL1       -0.4755
     19 C          -8.6066  -19.0426   20.7144 C.3     1  UNL1        0.2054
     20 C          -9.9344  -19.3259   20.0768 C.3     1  UNL1        0.0473
     21 C         -10.8995  -20.0190   22.3873 C.3     1  UNL1        0.0001
     22 C         -11.0929  -19.7677   20.9212 C.3     1  UNL1        0.0038
@<TRIPOS>BOND
     1    21    22    1
     2    22    20    1
     3    20    19    1
     4    19    18    1
     5    18     1    1
     6     1     2   ar
     7     2     3   ar
     8     3     4   ar
     9     4     5   ar
    10     5     7    1
    11     7     8    1
    12     7     9    1
    13     9    10    1
    14    10    12    1
    15    12    13    1
    16    13    14    2
    17    13    15   am
    18    15    16    1
    19    15    17    1
    20     5     6   ar
    21     6     1   ar
    22    10    11    1
@<TRIPOS>MOLECULE
*****
 22 22 0 0 0
SMALL
GASTEIGER

@<TRIPOS>ATOM
      1 C          -8.0494  -19.4291   20.7654 C.ar    1  UNL1        0.1383
      2 C          -8.8076  -19.5471   19.4766 C.ar    1  UNL1        0.0369
      3 C         -10.3072  -19.5791   19.4888 C.ar    1  UNL1        0.0029
      4 C         -11.0486  -19.4931   20.7899 C.ar    1  UNL1       -0.0014
      5 C         -10.2905  -19.3751   22.0787 C.ar    1  UNL1        0.0142
      6 C          -8.7908  -19.3431   22.0665 C.ar    1  UNL1        0.0353
      7 C         -11.0319  -19.2890   23.3799 C.3     1  UNL1        0.1990
      8 F         -12.4255  -18.7352   23.4138 F       1  UNL1       -0.2309
      9 C         -10.3797  -19.7568   24.6471 C.3     1  UNL1        0.1093
     10 N          -9.8001  -18.7586   25.6051 N.3     1  UNL1       -0.2872
     11 H          -8.9100  -19.1402   25.9252 H       1  UNL1        0.1238
     12 C          -9.5315  -17.3538   25.1532 C.3     1  UNL1        0.1552
     13 C          -8.4209  -16.5638   25.7796 C.2     1  UNL1        0.2419
     14 O          -8.3945  -16.3546   27.2647 O.2     1  UNL1       -0.2734
     15 N          -7.3367  -15.9831   24.9210 N.am    1  UNL1       -0.2749
     16 C          -6.2261  -15.1931   25.5474 C.3     1  UNL1        0.1149
     17 C          -7.3631  -16.1923   23.4359 C.3     1  UNL1        0.1149
     18 O          -6.5498  -19.3971   20.7532 O.3     1  UNL1       -0.4755
     19 C          -5.7804  -19.8342   21.9643 C.3     1  UNL1        0.2054
     20 C          -4.5960  -19.0390   22.4277 C.3     1  UNL1        0.0473
     21 C          -2.9285  -19.8013   20.5869 C.3     1  UNL1        0.0001
     22 C          -3.2120  -19.4460   22.0164 C.3     1  UNL1        0.0038
@<TRIPOS>BOND
     1    21    22    1
     2    22    20    1
     3    20    19    1
     4    19    18    1
     5    18     1    1
     6     1     2   ar
     7     2     3   ar
     8     3     4   ar
     9     4     5   ar
    10     5     7    1
    11     7     8    1
    12     7     9    1
    13     9    10    1
    14    10    12    1
    15    12    13    1
    16    13    14    2
    17    13    15   am
    18    15    16    1
    19    15    17    1
    20     5     6   ar
    21     6     1   ar
    22    10    11    1
@<TRIPOS>MOLECULE
*****
 22 22 0 0 0
SMALL
GASTEIGER

@<TRIPOS>ATOM
      1 C         -10.9145   -2.5022   18.0513 C.ar    1  UNL1        0.1383
      2 C         -10.1940   -2.3172   16.7488 C.ar    1  UNL1        0.0369
      3 C          -9.3218   -3.4130   16.2118 C.ar    1  UNL1        0.0029
      4 C          -9.1700   -4.6940   16.9774 C.ar    1  UNL1       -0.0014
      5 C          -9.8905   -4.8790   18.2799 C.ar    1  UNL1        0.0142
      6 C         -10.7627   -3.7832   18.8168 C.ar    1  UNL1        0.0353
      7 C          -9.7388   -6.1600   19.0455 C.3     1  UNL1        0.1990
      8 F          -8.6422   -6.3027   20.0590 F       1  UNL1       -0.2309
      9 C         -10.6837   -7.2983   18.7978 C.3     1  UNL1        0.1093
     10 N         -10.6126   -8.0655   17.5107 N.3     1  UNL1       -0.2872
     11 H         -10.5724   -9.0540   17.7591 H       1  UNL1        0.1238
     12 C         -11.7014   -7.9196   16.4894 C.3     1  UNL1        0.1552
     13 C         -12.7329   -6.8413   16.6417 C.2     1  UNL1        0.2419
     14 O         -12.4890   -5.4820   16.0563 O.2     1  UNL1       -0.2734
     15 N         -14.0084   -7.1224   17.3795 N.am    1  UNL1       -0.2749
     16 C         -15.0399   -6.0441   17.5319 C.3     1  UNL1        0.1149
     17 C         -14.2522   -8.4817   17.9649 C.3     1  UNL1        0.1149
     18 O         -11.7867   -1.4064   18.5882 O.3     1  UNL1       -0.4755
     19 C         -13.2177   -1.3042   18.1503 C.3     1  UNL1        0.2054
     20 C         -14.3221   -1.4681   19.1520 C.3     1  UNL1        0.0473
     21 C         -13.7905   -3.1889   21.0246 C.3     1  UNL1        0.0001
     22 C         -14.5588   -2.8022   19.7957 C.3     1  UNL1        0.0038
@<TRIPOS>BOND
     1    21    22    1
     2    22    20    1
     3    20    19    1
     4    19    18    1
     5    18     1    1
     6     1     2   ar
     7     2     3   ar
     8     3     4   ar
     9     4     5   ar
    10     5     7    1
    11     7     8    1
    12     7     9    1
    13     9    10    1
    14    10    12    1
    15    12    13    1
    16    13    14    2
    17    13    15   am
    18    15    16    1
    19    15    17    1
    20     5     6   ar
    21     6     1   ar
    22    10    11    1
@<TRIPOS>MOLECULE
*****
 22 22 0 0 0
SMALL
GASTEIGER

@<TRIPOS>ATOM
      1 C         -12.3662   -2.8293   19.5158 C.ar    1  UNL1        0.1383
      2 C         -13.5787   -2.7814   20.3976 C.ar    1  UNL1        0.0369
      3 C         -14.2910   -4.0500   20.7627 C.ar    1  UNL1        0.0029
      4 C         -13.7910   -5.3664   20.2461 C.ar    1  UNL1       -0.0014
      5 C         -12.5785   -5.4142   19.3643 C.ar    1  UNL1        0.0142
      6 C         -11.8661   -4.1457   18.9991 C.ar    1  UNL1        0.0353
      7 C         -12.0784   -6.7307   18.8476 C.3     1  UNL1        0.1990
      8 F         -10.6535   -7.1362   19.0828 F       1  UNL1       -0.2309
      9 C         -13.0031   -7.6415   18.0957 C.3     1  UNL1        0.1093
     10 N         -13.8411   -8.6393   18.8388 N.3     1  UNL1       -0.2872
     11 H         -14.0699   -8.2190   19.7396 H       1  UNL1        0.1238
     12 C         -15.1313   -9.1240   18.2470 C.3     1  UNL1        0.1552
     13 C         -16.3500   -9.2562   19.1113 C.2     1  UNL1        0.2419
     14 O         -16.7104  -10.5874   19.7013 O.2     1  UNL1       -0.2734
     15 N         -17.2085   -8.0571   19.3858 N.am    1  UNL1       -0.2749
     16 C         -18.4273   -8.1892   20.2501 C.3     1  UNL1        0.1149
     17 C         -16.8482   -6.7258   18.7958 C.3     1  UNL1        0.1149
     18 O         -11.6538   -1.5607   19.1507 O.3     1  UNL1       -0.4755
     19 C         -11.9307   -0.8973   17.8342 C.3     1  UNL1        0.2054
     20 C         -13.3079   -0.3895   17.5252 C.3     1  UNL1        0.0473
     21 C         -15.4885    0.3744   18.7133 C.3     1  UNL1        0.0001
     22 C         -14.0105    0.5117   18.4970 C.3     1  UNL1        0.0038
@<TRIPOS>BOND
     1    21    22    1
     2    22    20    1
     3    20    19    1
     4    19    18    1
     5    18     1    1
     6     1     2   ar
     7     2     3   ar
     8     3     4   ar
     9     4     5   ar
    10     5     7    1
    11     7     8    1
    12     7     9    1
    13     9    10    1
    14    10    12    1
    15    12    13    1
    16    13    14    2
    17    13    15   am
    18    15    16    1
    19    15    17    1
    20     5     6   ar
    21     6     1   ar
    22    10    11    1
@<TRIPOS>MOLECULE
*****
 22 22 0 0 0
SMALL
GASTEIGER

@<TRIPOS>ATOM
      1 C          -7.3350  -20.0413   20.7986 C.ar    1  UNL1        0.1383
      2 C          -7.8975  -19.8733   19.4183 C.ar    1  UNL1        0.0369
      3 C          -9.3167  -19.4228   19.2364 C.ar    1  UNL1        0.0029
      4 C         -10.1733  -19.1403   20.4349 C.ar    1  UNL1       -0.0014
      5 C          -9.6108  -19.3084   21.8152 C.ar    1  UNL1        0.0142
      6 C          -8.1917  -19.7589   21.9970 C.ar    1  UNL1        0.0353
      7 C         -10.4675  -19.0259   23.0137 C.3     1  UNL1        0.1990
      8 F         -11.9502  -18.8640   22.8544 F       1  UNL1       -0.2309
      9 C          -9.8414  -18.9053   24.3714 C.3     1  UNL1        0.1093
     10 N          -9.5481  -17.5504   24.9444 N.3     1  UNL1       -0.2872
     11 H          -8.6933  -17.6417   25.4934 H       1  UNL1        0.1238
     12 C          -9.3531  -16.3762   24.0316 C.3     1  UNL1        0.1552
     13 C          -7.9901  -16.0682   23.4866 C.2     1  UNL1        0.2419
     14 O          -7.7085  -16.2491   22.0244 O.2     1  UNL1       -0.2734
     15 N          -6.9084  -15.5793   24.4038 N.am    1  UNL1       -0.2749
     16 C          -5.5454  -15.2712   23.8587 C.3     1  UNL1        0.1149
     17 C          -7.1900  -15.3984   25.8660 C.3     1  UNL1        0.1149
     18 O          -5.9159  -20.4918   20.9805 O.3     1  UNL1       -0.4755
     19 C          -4.8038  -19.4852   20.9819 C.3     1  UNL1        0.2054
     20 C          -4.6901  -18.4948   22.1027 C.3     1  UNL1        0.0473
     21 C          -3.2231  -17.9215   24.1689 C.3     1  UNL1        0.0001
     22 C          -3.3482  -18.1864   22.6978 C.3     1  UNL1        0.0038
@<TRIPOS>BOND
     1    21    22    1
     2    22    20    1
     3    20    19    1
     4    19    18    1
     5    18     1    1
     6     1     2   ar
     7     2     3   ar
     8     3     4   ar
     9     4     5   ar
    10     5     7    1
    11     7     8    1
    12     7     9    1
    13     9    10    1
    14    10    12    1
    15    12    13    1
    16    13    14    2
    17    13    15   am
    18    15    16    1
    19    15    17    1
    20     5     6   ar
    21     6     1   ar
    22    10    11    1
