@<TRIPOS>MOLECULE
*****
 27 30 0 0 0
SMALL
GASTEIGER

@<TRIPOS>ATOM
      1 C         -11.2804  -18.8597   24.0075 C.ar    1  UNL1        0.1384
      2 C         -10.3109  -18.2003   24.9430 C.ar    1  UNL1        0.0400
      3 C          -8.8782  -18.0230   24.5358 C.ar    1  UNL1        0.0397
      4 C          -8.4149  -18.5051   23.1930 C.ar    1  UNL1        0.1344
      5 C          -9.3845  -19.1646   22.2575 C.ar    1  UNL1        0.0149
      6 C         -10.8172  -19.3419   22.6648 C.ar    1  UNL1        0.0356
      7 C          -8.9213  -19.6467   20.9147 C.3     1  UNL1        0.0331
      8 C          -7.4885  -19.4694   20.5074 C.3     1  UNL1        0.0449
      9 C          -6.5190  -18.8099   21.4429 C.3     1  UNL1        0.1361
     10 C          -6.0558  -19.2921   20.1002 C.3     1  UNL1        0.0574
     11 C          -4.6231  -19.1147   19.6929 C.3     1  UNL1        0.0756
     12 N          -3.6536  -18.4553   20.6284 N.3     1  UNL1       -0.2737
     13 C          -4.1168  -17.9732   21.9712 C.3     1  UNL1        0.0756
     14 C          -5.5495  -18.1505   22.3784 C.3     1  UNL1        0.0574
     15 O          -6.9822  -18.3278   22.7857 O.3     1  UNL1       -0.4828
     16 C          -2.2208  -18.2780   20.2211 C.3     1  UNL1        0.0575
     17 C          -0.8959  -18.4383   20.9058 C.3     1  UNL1        0.0160
     18 C          -0.1947  -18.0272   19.6451 C.3     1  UNL1        0.0028
     19 C          -1.5197  -17.8670   18.9604 C.3     1  UNL1        0.0160
     20 O         -12.7131  -19.0371   24.4147 O.3     1  UNL1       -0.4754
     21 C         -13.7682  -18.1249   23.8625 C.3     1  UNL1        0.2072
     22 C         -13.3748  -16.9376   23.0346 C.3     1  UNL1        0.0726
     23 C         -13.0340  -17.1142   21.5846 C.3     1  UNL1        0.1547
     24 C         -10.6785  -15.6737   20.4111 C.3     1  UNL1        0.1760
     25 S         -11.8562  -16.3940   20.9978 S.O2    1  UNL1       -0.0081
     26 O         -11.6027  -15.7318   22.3196 O.2     1  UNL1       -0.1729
     27 O         -12.1098  -17.0561   19.6760 O.2     1  UNL1       -0.1729
@<TRIPOS>BOND
     1    24    25    1
     2    25    26    2
     3    25    27    2
     4    25    23    1
     5    23    22    1
     6    22    21    1
     7    21    20    1
     8    20     1    1
     9     1     2   ar
    10     2     3   ar
    11     3     4   ar
    12     4     5   ar
    13     5     6   ar
    14     5     7    1
    15     7     8    1
    16     8     9    1
    17     9    10    1
    18    10    11    1
    19    11    12    1
    20    12    16    1
    21    16    17    1
    22    17    18    1
    23    18    19    1
    24    12    13    1
    25    13    14    1
    26     9    15    1
    27     6     1   ar
    28    14     9    1
    29    15     4    1
    30    19    16    1
@<TRIPOS>MOLECULE
*****
 27 30 0 0 0
SMALL
GASTEIGER

@<TRIPOS>ATOM
      1 C         -16.7161    1.8847   19.5024 C.ar    1  UNL1        0.1384
      2 C         -17.3166    0.6296   20.0627 C.ar    1  UNL1        0.0400
      3 C         -16.5309   -0.6480   20.0508 C.ar    1  UNL1        0.0397
      4 C         -15.1445   -0.6706   19.4785 C.ar    1  UNL1        0.1344
      5 C         -14.5439    0.5845   18.9182 C.ar    1  UNL1        0.0149
      6 C         -15.3297    1.8622   18.9301 C.ar    1  UNL1        0.0356
      7 C         -13.1576    0.5620   18.3459 C.3     1  UNL1        0.0331
      8 C         -12.3717   -0.7156   18.3340 C.3     1  UNL1        0.0449
      9 C         -12.9723   -1.9708   18.8943 C.3     1  UNL1        0.1361
     10 C         -11.5860   -1.9933   18.3220 C.3     1  UNL1        0.0574
     11 C         -10.8002   -3.2709   18.3101 C.3     1  UNL1        0.0756
     12 N         -11.4008   -4.5260   18.8704 N.3     1  UNL1       -0.2737
     13 C         -12.7871   -4.5035   19.4427 C.3     1  UNL1        0.0756
     14 C         -13.5729   -3.2259   19.4546 C.3     1  UNL1        0.0574
     15 O         -14.3587   -1.9482   19.4666 O.3     1  UNL1       -0.4828
     16 C         -10.6149   -5.8037   18.8585 C.3     1  UNL1        0.0575
     17 C          -9.2560   -6.2177   19.3400 C.3     1  UNL1        0.0160
     18 C          -9.5037   -7.6106   18.8415 C.3     1  UNL1        0.0028
     19 C         -10.8626   -7.1966   18.3600 C.3     1  UNL1        0.0160
     20 O         -17.5018    3.1623   19.5143 O.3     1  UNL1       -0.4754
     21 C         -17.5163    4.0225   20.7432 C.3     1  UNL1        0.2072
     22 C         -16.5319    3.7707   21.8466 C.3     1  UNL1        0.0726
     23 C         -15.4049    4.7325   22.0801 C.3     1  UNL1        0.1547
     24 C         -14.1575    4.9498   24.7999 C.3     1  UNL1        0.1760
     25 S         -14.7812    4.8412   23.4400 S.O2    1  UNL1       -0.0081
     26 O         -13.4179    4.8446   22.8145 O.2     1  UNL1       -0.1729
     27 O         -16.1445    4.8377   24.0656 O.2     1  UNL1       -0.1729
@<TRIPOS>BOND
     1    24    25    1
     2    25    26    2
     3    25    27    2
     4    25    23    1
     5    23    22    1
     6    22    21    1
     7    21    20    1
     8    20     1    1
     9     1     2   ar
    10     2     3   ar
    11     3     4   ar
    12     4     5   ar
    13     5     6   ar
    14     5     7    1
    15     7     8    1
    16     8     9    1
    17     9    10    1
    18    10    11    1
    19    11    12    1
    20    12    16    1
    21    16    17    1
    22    17    18    1
    23    18    19    1
    24    12    13    1
    25    13    14    1
    26     9    15    1
    27     6     1   ar
    28    14     9    1
    29    15     4    1
    30    19    16    1
@<TRIPOS>MOLECULE
*****
 27 30 0 0 0
SMALL
GASTEIGER

@<TRIPOS>ATOM
      1 C           5.0020   -0.4984   33.1836 C.ar    1  UNL1        0.1384
      2 C           4.7627    0.1315   31.8434 C.ar    1  UNL1        0.0400
      3 C           5.1302   -0.6076   30.5910 C.ar    1  UNL1        0.0397
      4 C           5.7371   -1.9766   30.6787 C.ar    1  UNL1        0.1344
      5 C           5.9764   -2.6064   32.0188 C.ar    1  UNL1        0.0149
      6 C           5.6088   -1.8673   33.2713 C.ar    1  UNL1        0.0356
      7 C           6.5833   -3.9753   32.1066 C.3     1  UNL1        0.0331
      8 C           6.9509   -4.7145   30.8541 C.3     1  UNL1        0.0449
      9 C           6.7116   -4.0846   29.5139 C.3     1  UNL1        0.1361
     10 C           7.3185   -5.4535   29.6017 C.3     1  UNL1        0.0574
     11 C           7.6860   -6.1926   28.3492 C.3     1  UNL1        0.0756
     12 N           7.4467   -5.5627   27.0091 N.3     1  UNL1       -0.2737
     13 C           6.8399   -4.1938   26.9213 C.3     1  UNL1        0.0756
     14 C           6.4723   -3.4547   28.1738 C.3     1  UNL1        0.0574
     15 O           6.1047   -2.7156   29.4263 O.3     1  UNL1       -0.4828
     16 C           7.8144   -6.3019   25.7566 C.3     1  UNL1        0.0575
     17 C           8.0243   -7.7433   25.3985 C.3     1  UNL1        0.0160
     18 C           8.3342   -7.3470   23.9853 C.3     1  UNL1        0.0028
     19 C           8.1242   -5.9056   24.3434 C.3     1  UNL1        0.0160
     20 O           4.6344    0.2407   34.4360 O.3     1  UNL1       -0.4754
     21 C           4.7504   -0.4379   35.7688 C.3     1  UNL1        0.2072
     22 C           4.8783    0.3812   37.0188 C.3     1  UNL1        0.0726
     23 C           4.0931    1.6506   37.1672 C.3     1  UNL1        0.1547
     24 C           1.6664    1.7161   38.9298 C.3     1  UNL1        0.1760
     25 S           2.8797    1.6834   38.0486 S.O2    1  UNL1       -0.0081
     26 O           2.0575    2.1833   36.8980 O.2     1  UNL1       -0.1729
     27 O           3.7019    1.1834   39.1992 O.2     1  UNL1       -0.1729
@<TRIPOS>BOND
     1    24    25    1
     2    25    26    2
     3    25    27    2
     4    25    23    1
     5    23    22    1
     6    22    21    1
     7    21    20    1
     8    20     1    1
     9     1     2   ar
    10     2     3   ar
    11     3     4   ar
    12     4     5   ar
    13     5     6   ar
    14     5     7    1
    15     7     8    1
    16     8     9    1
    17     9    10    1
    18    10    11    1
    19    11    12    1
    20    12    16    1
    21    16    17    1
    22    17    18    1
    23    18    19    1
    24    12    13    1
    25    13    14    1
    26     9    15    1
    27     6     1   ar
    28    14     9    1
    29    15     4    1
    30    19    16    1
@<TRIPOS>MOLECULE
*****
 27 30 0 0 0
SMALL
GASTEIGER

@<TRIPOS>ATOM
      1 C           5.1867   -0.4088   34.7917 C.ar    1  UNL1        0.1384
      2 C           4.1343   -1.3152   34.2253 C.ar    1  UNL1        0.0400
      3 C           4.5078   -2.3579   33.2138 C.ar    1  UNL1        0.0397
      4 C           5.9338   -2.4943   32.7686 C.ar    1  UNL1        0.1344
      5 C           6.9862   -1.5878   33.3350 C.ar    1  UNL1        0.0149
      6 C           6.6126   -0.5451   34.3465 C.ar    1  UNL1        0.0356
      7 C           8.4121   -1.7241   32.8898 C.3     1  UNL1        0.0331
      8 C           8.7856   -2.7669   31.8783 C.3     1  UNL1        0.0449
      9 C           7.7332   -3.6733   31.3119 C.3     1  UNL1        0.1361
     10 C           9.1591   -3.8096   30.8668 C.3     1  UNL1        0.0574
     11 C           9.5326   -4.8523   29.8552 C.3     1  UNL1        0.0756
     12 N           8.4801   -5.7587   29.2889 N.3     1  UNL1       -0.2737
     13 C           7.0542   -5.6224   29.7340 C.3     1  UNL1        0.0756
     14 C           6.6808   -4.5797   30.7455 C.3     1  UNL1        0.0574
     15 O           6.3072   -3.5370   31.7571 O.3     1  UNL1       -0.4828
     16 C           8.8537   -6.8015   28.2773 C.3     1  UNL1        0.0575
     17 C           9.1494   -8.2712   28.3285 C.3     1  UNL1        0.0160
     18 C           9.3819   -8.2761   26.8467 C.3     1  UNL1        0.0028
     19 C           9.0862   -6.8064   26.7954 C.3     1  UNL1        0.0160
     20 O           4.8133    0.6339   35.8032 O.3     1  UNL1       -0.4754
     21 C           3.9044    1.7628   35.4161 C.3     1  UNL1        0.2072
     22 C           2.9140    2.3012   36.4056 C.3     1  UNL1        0.0726
     23 C           3.1307    2.0896   37.8746 C.3     1  UNL1        0.1547
     24 C           0.7992    1.4851   39.6631 C.3     1  UNL1        0.1760
     25 S           1.9649    1.7873   38.7689 S.O2    1  UNL1       -0.0081
     26 O           1.1402    2.8047   38.0376 O.2     1  UNL1       -0.1729
     27 O           2.7897    0.7700   39.5002 O.2     1  UNL1       -0.1729
@<TRIPOS>BOND
     1    24    25    1
     2    25    26    2
     3    25    27    2
     4    25    23    1
     5    23    22    1
     6    22    21    1
     7    21    20    1
     8    20     1    1
     9     1     2   ar
    10     2     3   ar
    11     3     4   ar
    12     4     5   ar
    13     5     6   ar
    14     5     7    1
    15     7     8    1
    16     8     9    1
    17     9    10    1
    18    10    11    1
    19    11    12    1
    20    12    16    1
    21    16    17    1
    22    17    18    1
    23    18    19    1
    24    12    13    1
    25    13    14    1
    26     9    15    1
    27     6     1   ar
    28    14     9    1
    29    15     4    1
    30    19    16    1
@<TRIPOS>MOLECULE
*****
 27 30 0 0 0
SMALL
GASTEIGER

@<TRIPOS>ATOM
      1 C           1.2363    0.6531   18.7983 C.ar    1  UNL1        0.1384
      2 C           0.8312    0.2796   20.1935 C.ar    1  UNL1        0.0400
      3 C           1.7036   -0.6263   21.0107 C.ar    1  UNL1        0.0397
      4 C           2.9814   -1.1589   20.4329 C.ar    1  UNL1        0.1344
      5 C           3.3866   -0.7854   19.0378 C.ar    1  UNL1        0.0149
      6 C           2.5140    0.1206   18.2205 C.ar    1  UNL1        0.0356
      7 C           4.6642   -1.3180   18.4599 C.3     1  UNL1        0.0331
      8 C           5.5368   -2.2240   19.2772 C.3     1  UNL1        0.0449
      9 C           5.1316   -2.5974   20.6723 C.3     1  UNL1        0.1361
     10 C           6.4093   -3.1299   20.0945 C.3     1  UNL1        0.0574
     11 C           7.2817   -4.0359   20.9117 C.3     1  UNL1        0.0756
     12 N           6.8766   -4.4093   22.3069 N.3     1  UNL1       -0.2737
     13 C           5.5989   -3.8768   22.8847 C.3     1  UNL1        0.0756
     14 C           4.7264   -2.9708   22.0674 C.3     1  UNL1        0.0574
     15 O           3.8539   -2.0648   21.2502 O.3     1  UNL1       -0.4828
     16 C           7.7491   -5.3153   23.1241 C.3     1  UNL1        0.0575
     17 C           8.8684   -6.2668   22.8212 C.3     1  UNL1        0.0160
     18 C           8.9830   -6.5965   24.2800 C.3     1  UNL1        0.0028
     19 C           7.8637   -5.6451   24.5830 C.3     1  UNL1        0.0160
     20 O           0.3639    1.5590   17.9811 O.3     1  UNL1       -0.4754
     21 C           0.4256    3.0439   18.1846 C.3     1  UNL1        0.2072
     22 C          -0.8414    3.8371   18.3095 C.3     1  UNL1        0.0726
     23 C          -1.4373    4.0904   19.6626 C.3     1  UNL1        0.1547
     24 C          -4.3209    3.4421   20.1768 C.3     1  UNL1        0.1760
     25 S          -2.8792    3.7662   19.9197 S.O2    1  UNL1       -0.0081
     26 O          -2.4659    2.5944   20.7599 O.2     1  UNL1       -0.1729
     27 O          -3.2924    4.9381   19.0795 O.2     1  UNL1       -0.1729
@<TRIPOS>BOND
     1    24    25    1
     2    25    26    2
     3    25    27    2
     4    25    23    1
     5    23    22    1
     6    22    21    1
     7    21    20    1
     8    20     1    1
     9     1     2   ar
    10     2     3   ar
    11     3     4   ar
    12     4     5   ar
    13     5     6   ar
    14     5     7    1
    15     7     8    1
    16     8     9    1
    17     9    10    1
    18    10    11    1
    19    11    12    1
    20    12    16    1
    21    16    17    1
    22    17    18    1
    23    18    19    1
    24    12    13    1
    25    13    14    1
    26     9    15    1
    27     6     1   ar
    28    14     9    1
    29    15     4    1
    30    19    16    1
@<TRIPOS>MOLECULE
*****
 27 30 0 0 0
SMALL
GASTEIGER

@<TRIPOS>ATOM
      1 C           8.4238   -8.0312   27.1226 C.ar    1  UNL1        0.1384
      2 C           7.3785   -7.0032   27.4395 C.ar    1  UNL1        0.0400
      3 C           6.9959   -5.9808   26.4108 C.ar    1  UNL1        0.0397
      4 C           7.6587   -5.9863   25.0652 C.ar    1  UNL1        0.1344
      5 C           8.7041   -7.0144   24.7483 C.ar    1  UNL1        0.0149
      6 C           9.0866   -8.0368   25.7771 C.ar    1  UNL1        0.0356
      7 C           9.3668   -7.0200   23.4027 C.3     1  UNL1        0.0331
      8 C           8.9843   -5.9975   22.3739 C.3     1  UNL1        0.0449
      9 C           7.9390   -4.9695   22.6908 C.3     1  UNL1        0.1361
     10 C           8.6017   -4.9751   21.3452 C.3     1  UNL1        0.0574
     11 C           8.2192   -3.9527   20.3165 C.3     1  UNL1        0.0756
     12 N           7.1738   -2.9247   20.6334 N.3     1  UNL1       -0.2737
     13 C           6.5111   -2.9191   21.9790 C.3     1  UNL1        0.0756
     14 C           6.8936   -3.9415   23.0077 C.3     1  UNL1        0.0574
     15 O           7.2762   -4.9639   24.0365 O.3     1  UNL1       -0.4828
     16 C           6.7913   -1.9022   19.6046 C.3     1  UNL1        0.0575
     17 C           6.7820   -1.8581   18.1053 C.3     1  UNL1        0.0160
     18 C           6.2503   -0.4562   18.1498 C.3     1  UNL1        0.0028
     19 C           6.2596   -0.5003   19.6491 C.3     1  UNL1        0.0160
     20 O           8.8064   -9.0536   28.1513 O.3     1  UNL1       -0.4754
     21 C           8.4879  -10.5018   27.9241 C.3     1  UNL1        0.2072
     22 C           7.0627  -10.9689   27.9471 C.3     1  UNL1        0.0726
     23 C           6.7451  -12.3904   28.3054 C.3     1  UNL1        0.1547
     24 C           3.9981  -13.4862   27.8021 C.3     1  UNL1        0.1760
     25 S           5.3716  -12.9383   28.0538 S.O2    1  UNL1       -0.0081
     26 O           5.7638  -13.2749   26.6457 O.2     1  UNL1       -0.1729
     27 O           4.9793  -12.6017   29.4619 O.2     1  UNL1       -0.1729
@<TRIPOS>BOND
     1    24    25    1
     2    25    26    2
     3    25    27    2
     4    25    23    1
     5    23    22    1
     6    22    21    1
     7    21    20    1
     8    20     1    1
     9     1     2   ar
    10     2     3   ar
    11     3     4   ar
    12     4     5   ar
    13     5     6   ar
    14     5     7    1
    15     7     8    1
    16     8     9    1
    17     9    10    1
    18    10    11    1
    19    11    12    1
    20    12    16    1
    21    16    17    1
    22    17    18    1
    23    18    19    1
    24    12    13    1
    25    13    14    1
    26     9    15    1
    27     6     1   ar
    28    14     9    1
    29    15     4    1
    30    19    16    1
@<TRIPOS>MOLECULE
*****
 27 30 0 0 0
SMALL
GASTEIGER

@<TRIPOS>ATOM
      1 C         -10.7911   -5.4703   18.8995 C.ar    1  UNL1        0.1384
      2 C         -10.1085   -4.3141   18.2307 C.ar    1  UNL1        0.0400
      3 C         -10.7959   -2.9835   18.1473 C.ar    1  UNL1        0.0397
      4 C         -12.1659   -2.8091   18.7327 C.ar    1  UNL1        0.1344
      5 C         -12.8486   -3.9652   19.4015 C.ar    1  UNL1        0.0149
      6 C         -12.1611   -5.2959   19.4849 C.ar    1  UNL1        0.0356
      7 C         -14.2185   -3.7908   19.9868 C.3     1  UNL1        0.0331
      8 C         -14.9060   -2.4602   19.9034 C.3     1  UNL1        0.0449
      9 C         -14.2233   -1.3040   19.2346 C.3     1  UNL1        0.1361
     10 C         -15.5933   -1.1296   19.8200 C.3     1  UNL1        0.0574
     11 C         -16.2807    0.2010   19.7365 C.3     1  UNL1        0.0756
     12 N         -15.5981    1.3572   19.0678 N.3     1  UNL1       -0.2737
     13 C         -14.2281    1.1828   18.4824 C.3     1  UNL1        0.0756
     14 C         -13.5407   -0.1478   18.5658 C.3     1  UNL1        0.0574
     15 O         -12.8533   -1.4785   18.6492 O.3     1  UNL1       -0.4828
     16 C         -16.2855    2.6879   18.9843 C.3     1  UNL1        0.0575
     17 C         -16.8478    3.5234   17.8727 C.3     1  UNL1        0.0160
     18 C         -17.2576    4.5696   18.8665 C.3     1  UNL1        0.0028
     19 C         -16.6953    3.7341   19.9781 C.3     1  UNL1        0.0160
     20 O         -10.1038   -6.8009   18.9830 O.3     1  UNL1       -0.4754
     21 C         -10.3542   -7.8416   17.9321 C.3     1  UNL1        0.2072
     22 C         -11.0873   -7.4772   16.6753 C.3     1  UNL1        0.0726
     23 C         -12.4617   -8.0229   16.4238 C.3     1  UNL1        0.1547
     24 C         -14.8690   -6.2897   16.8720 C.3     1  UNL1        0.1760
     25 S         -13.6654   -7.1563   16.6479 S.O2    1  UNL1       -0.0081
     26 O         -12.9202   -5.9781   16.0942 O.2     1  UNL1       -0.1729
     27 O         -14.4106   -8.3344   17.2016 O.2     1  UNL1       -0.1729
@<TRIPOS>BOND
     1    24    25    1
     2    25    26    2
     3    25    27    2
     4    25    23    1
     5    23    22    1
     6    22    21    1
     7    21    20    1
     8    20     1    1
     9     1     2   ar
    10     2     3   ar
    11     3     4   ar
    12     4     5   ar
    13     5     6   ar
    14     5     7    1
    15     7     8    1
    16     8     9    1
    17     9    10    1
    18    10    11    1
    19    11    12    1
    20    12    16    1
    21    16    17    1
    22    17    18    1
    23    18    19    1
    24    12    13    1
    25    13    14    1
    26     9    15    1
    27     6     1   ar
    28    14     9    1
    29    15     4    1
    30    19    16    1
@<TRIPOS>MOLECULE
*****
 27 30 0 0 0
SMALL
GASTEIGER

@<TRIPOS>ATOM
      1 C           4.8178   -3.1405   21.6639 C.ar    1  UNL1        0.1384
      2 C           4.7777   -2.5302   23.0336 C.ar    1  UNL1        0.0400
      3 C           3.8284   -1.4063   23.3264 C.ar    1  UNL1        0.0397
      4 C           2.9193   -0.8926   22.2495 C.ar    1  UNL1        0.1344
      5 C           2.9594   -1.5029   20.8798 C.ar    1  UNL1        0.0149
      6 C           3.9087   -2.6269   20.5871 C.ar    1  UNL1        0.0356
      7 C           2.0503   -0.9893   19.8030 C.3     1  UNL1        0.0331
      8 C           1.1010    0.1347   20.0957 C.3     1  UNL1        0.0449
      9 C           1.0608    0.7449   21.4654 C.3     1  UNL1        0.1361
     10 C           0.1517    1.2585   20.3885 C.3     1  UNL1        0.0574
     11 C          -0.7975    2.3824   20.6813 C.3     1  UNL1        0.0756
     12 N          -0.8376    2.9927   22.0510 N.3     1  UNL1       -0.2737
     13 C           0.0715    2.4791   23.1278 C.3     1  UNL1        0.0756
     14 C           1.0207    1.3552   22.8350 C.3     1  UNL1        0.0574
     15 O           1.9700    0.2313   22.5423 O.3     1  UNL1       -0.4828
     16 C          -1.7869    4.1167   22.3437 C.3     1  UNL1        0.0575
     17 C          -1.9605    5.5178   21.8369 C.3     1  UNL1        0.0160
     18 C          -3.1294    5.7061   22.7578 C.3     1  UNL1        0.0028
     19 C          -2.9559    4.3050   23.2646 C.3     1  UNL1        0.0160
     20 O           5.7670   -4.2644   21.3712 O.3     1  UNL1       -0.4754
     21 C           7.0803   -3.9822   20.7034 C.3     1  UNL1        0.2072
     22 C           7.5551   -2.5677   20.5500 C.3     1  UNL1        0.0726
     23 C           7.7858   -1.9982   19.1817 C.3     1  UNL1        0.1547
     24 C           5.5419   -0.6427   17.7231 C.3     1  UNL1        0.1760
     25 S           6.6638   -1.3205   18.4524 S.O2    1  UNL1       -0.0081
     26 O           6.8552   -2.2520   17.2924 O.2     1  UNL1       -0.1729
     27 O           6.4725   -0.3889   19.6124 O.2     1  UNL1       -0.1729
@<TRIPOS>BOND
     1    24    25    1
     2    25    26    2
     3    25    27    2
     4    25    23    1
     5    23    22    1
     6    22    21    1
     7    21    20    1
     8    20     1    1
     9     1     2   ar
    10     2     3   ar
    11     3     4   ar
    12     4     5   ar
    13     5     6   ar
    14     5     7    1
    15     7     8    1
    16     8     9    1
    17     9    10    1
    18    10    11    1
    19    11    12    1
    20    12    16    1
    21    16    17    1
    22    17    18    1
    23    18    19    1
    24    12    13    1
    25    13    14    1
    26     9    15    1
    27     6     1   ar
    28    14     9    1
    29    15     4    1
    30    19    16    1
@<TRIPOS>MOLECULE
*****
 27 30 0 0 0
SMALL
GASTEIGER

@<TRIPOS>ATOM
      1 C           5.1666   -2.5626   18.5397 C.ar    1  UNL1        0.1384
      2 C           4.1044   -3.0772   19.4654 C.ar    1  UNL1        0.0400
      3 C           4.4785   -3.5926   20.8234 C.ar    1  UNL1        0.0397
      4 C           5.9149   -3.5935   21.2558 C.ar    1  UNL1        0.1344
      5 C           6.9771   -3.0789   20.3301 C.ar    1  UNL1        0.0149
      6 C           6.6029   -2.5635   18.9720 C.ar    1  UNL1        0.0356
      7 C           8.4134   -3.0798   20.7624 C.3     1  UNL1        0.0331
      8 C           8.7876   -3.5953   22.1205 C.3     1  UNL1        0.0449
      9 C           7.7254   -4.1098   23.0462 C.3     1  UNL1        0.1361
     10 C           9.1617   -4.1107   23.4785 C.3     1  UNL1        0.0574
     11 C           9.5358   -4.6261   24.8366 C.3     1  UNL1        0.0756
     12 N           8.4736   -5.1407   25.7623 N.3     1  UNL1       -0.2737
     13 C           7.0373   -5.1398   25.3300 C.3     1  UNL1        0.0756
     14 C           6.6632   -4.6244   23.9720 C.3     1  UNL1        0.0574
     15 O           6.2890   -4.1089   22.6139 O.3     1  UNL1       -0.4828
     16 C           8.8478   -5.6561   27.1204 C.3     1  UNL1        0.0575
     17 C           8.9323   -5.0608   28.4946 C.3     1  UNL1        0.0160
     18 C           9.3770   -6.3851   29.0410 C.3     1  UNL1        0.0028
     19 C           9.2925   -6.9804   27.6668 C.3     1  UNL1        0.0160
     20 O           4.7925   -2.0472   17.1816 O.3     1  UNL1       -0.4754
     21 C           3.8711   -0.8704   17.0537 C.3     1  UNL1        0.2072
     22 C           4.0981    0.3542   17.8896 C.3     1  UNL1        0.0726
     23 C           2.9302    1.0821   18.4861 C.3     1  UNL1        0.1547
     24 C           0.9333   -0.4037   20.1610 C.3     1  UNL1        0.1760
     25 S           1.9317    0.3392   19.3236 S.O2    1  UNL1       -0.0081
     26 O           2.9810    0.1091   20.3704 O.2     1  UNL1       -0.1729
     27 O           0.8824    0.5694   18.2767 O.2     1  UNL1       -0.1729
@<TRIPOS>BOND
     1    24    25    1
     2    25    26    2
     3    25    27    2
     4    25    23    1
     5    23    22    1
     6    22    21    1
     7    21    20    1
     8    20     1    1
     9     1     2   ar
    10     2     3   ar
    11     3     4   ar
    12     4     5   ar
    13     5     6   ar
    14     5     7    1
    15     7     8    1
    16     8     9    1
    17     9    10    1
    18    10    11    1
    19    11    12    1
    20    12    16    1
    21    16    17    1
    22    17    18    1
    23    18    19    1
    24    12    13    1
    25    13    14    1
    26     9    15    1
    27     6     1   ar
    28    14     9    1
    29    15     4    1
    30    19    16    1
