@<TRIPOS>MOLECULE
*****
 36 39 0 0 0
SMALL
GASTEIGER

@<TRIPOS>ATOM
      1 C          -1.5589  -16.8489   20.8431 C.3     1  UNL1        0.0914
      2 C          -0.1295  -17.1977   21.1353 C.3     1  UNL1        0.0885
      3 N           0.2473  -18.3675   20.2753 N.3     1  UNL1       -0.2960
      4 C          -0.9492  -18.7417   19.4516 C.3     1  UNL1        0.0717
      5 C          -2.0654  -17.8032   19.8025 C.3     1  UNL1        0.0511
      6 H           0.5229  -19.1545   20.8627 H       1  UNL1        0.1233
      7 N          -4.2463  -14.9528   23.0640 N.am    1  UNL1       -0.2485
      8 C          -3.4614  -16.0612   22.4274 C.2     1  UNL1        0.3059
      9 O          -3.7942  -17.4903   22.7384 O.2     1  UNL1       -0.2524
     10 N          -2.3438  -15.7405   21.4797 N.am    1  UNL1       -0.2888
     11 H          -4.0280  -14.0147   22.8599 H       1  UNL1        0.1583
     12 H          -2.1254  -14.8025   21.2755 H       1  UNL1        0.1510
     13 C          -7.4992  -16.0142   24.8964 C.ar    1  UNL1        0.0803
     14 S          -6.6929  -15.8619   23.6407 S.2     1  UNL1       -0.0488
     15 C          -5.3639  -15.2735   24.0116 C.ar    1  UNL1        0.1664
     16 N          -5.3488  -15.0621   25.4966 N.ar    1  UNL1       -0.2282
     17 C          -6.6684  -15.5199   26.0434 C.ar    1  UNL1        0.0701
     18 C          -7.0843  -15.4888   27.4843 C.3     1  UNL1        0.0528
     19 C          -9.9079  -16.2120   23.9434 C.3     1  UNL1        0.0779
     20 C          -8.8916  -16.5641   24.9889 C.2     1  UNL1        0.1807
     21 O          -9.2677  -17.4662   26.1268 O.2     1  UNL1       -0.2908
     22 C          -3.4459  -17.8165   19.2159 C.3     1  UNL1        0.0751
     23 N          -4.4052  -18.9105   19.5806 N.3     1  UNL1       -0.2726
     24 C          -3.8872  -20.2622   19.9733 C.3     1  UNL1        0.0721
     25 C          -4.8466  -21.3561   20.3380 C.3     1  UNL1        0.0174
     26 C          -6.3240  -21.0982   20.3100 C.3     1  UNL1        0.0031
     27 C          -6.8420  -19.7464   19.9172 C.3     1  UNL1        0.0204
     28 C          -5.8826  -18.6525   19.5525 C.3     1  UNL1        0.0724
     29 C          -8.3194  -19.4884   19.8891 C.3     1  UNL1        0.0277
     30 C          -9.1142  -19.5408   21.1601 C.ar    1  UNL1       -0.0220
     31 C         -10.5904  -19.2758   21.1331 C.ar    1  UNL1       -0.0020
     32 C         -11.3852  -19.3282   22.4041 C.ar    1  UNL1        0.0293
     33 C         -10.7038  -19.6455   23.7022 C.ar    1  UNL1        0.1401
     34 F         -11.4987  -19.6979   24.9733 F       1  UNL1       -0.2042
     35 C          -9.2277  -19.9105   23.7293 C.ar    1  UNL1        0.0293
     36 C          -8.4328  -19.8581   22.4582 C.ar    1  UNL1       -0.0020
@<TRIPOS>BOND
     1    19    20    1
     2    20    21    2
     3    20    13    1
     4    13    14   ar
     5    14    15   ar
     6    15     7    1
     7     7     8   am
     8     8     9    2
     9     8    10   am
    10     1    10    1
    11     1     2    1
    12     2     3    1
    13     3     4    1
    14     4     5    1
    15     5    22    1
    16    22    23    1
    17    23    24    1
    18    24    25    1
    19    25    26    1
    20    26    27    1
    21    27    29    1
    22    29    30    1
    23    30    31   ar
    24    31    32   ar
    25    32    33   ar
    26    33    34    1
    27    33    35   ar
    28    35    36   ar
    29    27    28    1
    30    15    16   ar
    31    16    17   ar
    32    17    18    1
    33    17    13   ar
    34     5     1    1
    35    28    23    1
    36    36    30   ar
    37     7    11    1
    38    10    12    1
    39     3     6    1
@<TRIPOS>MOLECULE
*****
 36 39 0 0 0
SMALL
GASTEIGER

@<TRIPOS>ATOM
      1 C          -4.8067  -16.2081   24.3435 C.3     1  UNL1        0.0914
      2 C          -4.9878  -16.6661   25.7603 C.3     1  UNL1        0.0885
      3 N          -3.8367  -17.5629   26.1083 N.3     1  UNL1       -0.2960
      4 C          -2.9444  -17.6591   24.9064 C.3     1  UNL1        0.0717
      5 C          -3.5438  -16.8218   23.8157 C.3     1  UNL1        0.0511
      6 H          -4.1828  -18.4895   26.3575 H       1  UNL1        0.1233
      7 N          -7.9744  -14.8908   22.3482 N.am    1  UNL1       -0.2485
      8 C          -7.0541  -15.8024   23.1045 C.2     1  UNL1        0.3059
      9 O          -7.4608  -17.2200   23.3781 O.2     1  UNL1       -0.2524
     10 N          -5.7270  -15.2965   23.5872 N.am    1  UNL1       -0.2888
     11 H          -7.7074  -13.9603   22.1687 H       1  UNL1        0.1583
     12 H          -5.4600  -14.3660   23.4077 H       1  UNL1        0.1510
     13 C         -11.4522  -16.5181   21.7809 C.ar    1  UNL1        0.0803
     14 S         -10.2573  -16.2488   22.6467 S.2     1  UNL1       -0.0488
     15 C          -9.3013  -15.3967   21.8656 C.ar    1  UNL1        0.1664
     16 N          -9.9055  -15.1395   20.5169 N.ar    1  UNL1       -0.2282
     17 C         -11.2348  -15.8325   20.4646 C.ar    1  UNL1        0.0701
     18 C         -12.1806  -15.8389   19.3004 C.3     1  UNL1        0.0528
     19 C         -12.8471  -17.7565   23.5893 C.3     1  UNL1        0.0779
     20 C         -12.6535  -17.3304   22.1641 C.2     1  UNL1        0.1807
     21 O         -13.6611  -17.7167   21.1223 O.2     1  UNL1       -0.2908
     22 C          -2.9795  -16.6315   22.4391 C.3     1  UNL1        0.0751
     23 N          -3.1807  -17.6881   21.3934 N.3     1  UNL1       -0.2726
     24 C          -2.2717  -17.7465   20.2017 C.3     1  UNL1        0.0721
     25 C          -2.4729  -18.8030   19.1561 C.3     1  UNL1        0.0174
     26 C          -3.5830  -19.8012   19.3023 C.3     1  UNL1        0.0031
     27 C          -4.4920  -19.7427   20.4940 C.3     1  UNL1        0.0204
     28 C          -4.2908  -18.6862   21.5396 C.3     1  UNL1        0.0724
     29 C          -5.6021  -20.7408   20.6402 C.3     1  UNL1        0.0277
     30 C          -7.0223  -20.3240   20.3969 C.ar    1  UNL1       -0.0220
     31 C          -7.6042  -20.4131   19.0172 C.ar    1  UNL1       -0.0020
     32 C          -9.0244  -19.9963   18.7738 C.ar    1  UNL1        0.0293
     33 C          -9.8628  -19.4904   19.9101 C.ar    1  UNL1        0.1401
     34 F         -11.2830  -19.0735   19.6667 F       1  UNL1       -0.2042
     35 C          -9.2809  -19.4013   21.2897 C.ar    1  UNL1        0.0293
     36 C          -7.8607  -19.8181   21.5332 C.ar    1  UNL1       -0.0020
@<TRIPOS>BOND
     1    19    20    1
     2    20    21    2
     3    20    13    1
     4    13    14   ar
     5    14    15   ar
     6    15     7    1
     7     7     8   am
     8     8     9    2
     9     8    10   am
    10     1    10    1
    11     1     2    1
    12     2     3    1
    13     3     4    1
    14     4     5    1
    15     5    22    1
    16    22    23    1
    17    23    24    1
    18    24    25    1
    19    25    26    1
    20    26    27    1
    21    27    29    1
    22    29    30    1
    23    30    31   ar
    24    31    32   ar
    25    32    33   ar
    26    33    34    1
    27    33    35   ar
    28    35    36   ar
    29    27    28    1
    30    15    16   ar
    31    16    17   ar
    32    17    18    1
    33    17    13   ar
    34     5     1    1
    35    28    23    1
    36    36    30   ar
    37     7    11    1
    38    10    12    1
    39     3     6    1
@<TRIPOS>MOLECULE
*****
 36 39 0 0 0
SMALL
GASTEIGER

@<TRIPOS>ATOM
      1 C           8.4663   -6.1980   27.0452 C.3     1  UNL1        0.0914
      2 C           8.2774   -7.6559   27.3430 C.3     1  UNL1        0.0885
      3 N           7.9892   -8.3596   26.0500 N.3     1  UNL1       -0.2960
      4 C           8.0001   -7.3365   24.9531 C.3     1  UNL1        0.0717
      5 C           8.2949   -6.0006   25.5682 C.3     1  UNL1        0.0511
      6 H           7.0742   -8.8078   26.0962 H       1  UNL1        0.1233
      7 N           7.9634   -3.3793   29.7934 N.am    1  UNL1       -0.2485
      8 C           7.6569   -4.4515   28.7902 C.2     1  UNL1        0.3059
      9 O           6.2345   -4.8496   28.5288 O.2     1  UNL1       -0.2524
     10 N           8.7728   -5.1257   28.0484 N.am    1  UNL1       -0.2888
     11 H           8.8970   -3.1180   29.9649 H       1  UNL1        0.1583
     12 H           9.7064   -4.8645   28.2199 H       1  UNL1        0.1510
     13 C           5.2804   -2.0848   32.2816 C.ar    1  UNL1        0.0803
     14 S           6.4344   -2.9838   31.9500 S.2     1  UNL1       -0.0488
     15 C           6.8476   -2.7051   30.5351 C.ar    1  UNL1        0.1664
     16 N           5.9488   -1.6338   29.9924 N.ar    1  UNL1       -0.2282
     17 C           4.9803   -1.2504   31.0717 C.ar    1  UNL1        0.0701
     18 C           3.9011   -0.2146   30.9608 C.3     1  UNL1        0.0528
     19 C           4.8011   -0.8931   34.5399 C.3     1  UNL1        0.0779
     20 C           4.5541   -2.0298   33.5928 C.2     1  UNL1        0.1807
     21 O           3.5809   -3.1115   33.9570 O.2     1  UNL1       -0.2908
     22 C           8.3999   -4.6962   24.8350 C.3     1  UNL1        0.0751
     23 N           7.1588   -3.9269   24.4915 N.3     1  UNL1       -0.2726
     24 C           6.7398   -2.7622   25.3388 C.3     1  UNL1        0.0721
     25 C           5.4988   -1.9929   24.9953 C.3     1  UNL1        0.0174
     26 C           4.6768   -2.3883   23.8045 C.3     1  UNL1        0.0031
     27 C           5.0958   -3.5530   22.9573 C.3     1  UNL1        0.0204
     28 C           6.3368   -4.3223   23.3007 C.3     1  UNL1        0.0724
     29 C           4.2738   -3.9484   21.7665 C.3     1  UNL1        0.0277
     30 C           4.3420   -3.1386   20.5057 C.ar    1  UNL1       -0.0220
     31 C           3.4085   -1.9815   20.3061 C.ar    1  UNL1       -0.0020
     32 C           3.4767   -1.1717   19.0454 C.ar    1  UNL1        0.0293
     33 C           4.4784   -1.5189   17.9842 C.ar    1  UNL1        0.1401
     34 F           4.5466   -0.7090   16.7234 F       1  UNL1       -0.2042
     35 C           5.4118   -2.6759   18.1838 C.ar    1  UNL1        0.0293
     36 C           5.3437   -3.4858   19.4446 C.ar    1  UNL1       -0.0020
@<TRIPOS>BOND
     1    19    20    1
     2    20    21    2
     3    20    13    1
     4    13    14   ar
     5    14    15   ar
     6    15     7    1
     7     7     8   am
     8     8     9    2
     9     8    10   am
    10     1    10    1
    11     1     2    1
    12     2     3    1
    13     3     4    1
    14     4     5    1
    15     5    22    1
    16    22    23    1
    17    23    24    1
    18    24    25    1
    19    25    26    1
    20    26    27    1
    21    27    29    1
    22    29    30    1
    23    30    31   ar
    24    31    32   ar
    25    32    33   ar
    26    33    34    1
    27    33    35   ar
    28    35    36   ar
    29    27    28    1
    30    15    16   ar
    31    16    17   ar
    32    17    18    1
    33    17    13   ar
    34     5     1    1
    35    28    23    1
    36    36    30   ar
    37     7    11    1
    38    10    12    1
    39     3     6    1
@<TRIPOS>MOLECULE
*****
 36 39 0 0 0
SMALL
GASTEIGER

@<TRIPOS>ATOM
      1 C          -2.8080  -18.1954   19.8248 C.3     1  UNL1        0.0914
      2 C          -1.8400  -19.2336   19.3402 C.3     1  UNL1        0.0885
      3 N          -0.5213  -18.9872   20.0114 N.3     1  UNL1       -0.2960
      4 C          -0.6744  -17.7966   20.9109 C.3     1  UNL1        0.0717
      5 C          -2.0877  -17.3072   20.7956 C.3     1  UNL1        0.0511
      6 H           0.1949  -18.8009   19.3095 H       1  UNL1        0.1233
      7 N          -6.7673  -18.4600   19.8913 N.am    1  UNL1       -0.2485
      8 C          -5.3311  -18.5877   20.3048 C.2     1  UNL1        0.3059
      9 O          -4.9817  -19.2354   21.6119 O.2     1  UNL1       -0.2524
     10 N          -4.2442  -18.0677   19.4113 N.am    1  UNL1       -0.2888
     11 H          -6.9966  -18.0349   19.0334 H       1  UNL1        0.1583
     12 H          -4.4735  -17.6426   18.5534 H       1  UNL1        0.1510
     13 C          -9.0394  -19.8211   22.7286 C.ar    1  UNL1        0.0803
     14 S          -7.7047  -19.3519   22.2303 S.2     1  UNL1       -0.0488
     15 C          -7.8541  -18.9800   20.7848 C.ar    1  UNL1        0.1664
     16 N          -9.2813  -19.2194   20.3897 N.ar    1  UNL1       -0.2282
     17 C         -10.0138  -19.7392   21.5910 C.ar    1  UNL1        0.0701
     18 C         -11.4658  -20.1118   21.6453 C.3     1  UNL1        0.0528
     19 C         -10.1267  -19.4118   25.0523 C.3     1  UNL1        0.0779
     20 C          -9.3459  -20.2899   24.1200 C.2     1  UNL1        0.1807
     21 O          -8.8717  -21.6369   24.5792 O.2     1  UNL1       -0.2908
     22 C          -2.6771  -16.1355   21.5232 C.3     1  UNL1        0.0751
     23 N          -3.4605  -16.3523   22.7839 N.3     1  UNL1       -0.2726
     24 C          -2.9573  -17.3081   23.8246 C.3     1  UNL1        0.0721
     25 C          -3.7407  -17.5249   25.0852 C.3     1  UNL1        0.0174
     26 C          -5.0274  -16.7859   25.3051 C.3     1  UNL1        0.0031
     27 C          -5.5306  -15.8301   24.2644 C.3     1  UNL1        0.0204
     28 C          -4.7472  -15.6133   23.0038 C.3     1  UNL1        0.0724
     29 C          -6.8173  -15.0911   24.4843 C.3     1  UNL1        0.0277
     30 C          -8.0491  -15.4878   23.7260 C.ar    1  UNL1       -0.0220
     31 C          -9.2433  -16.0207   24.4609 C.ar    1  UNL1       -0.0020
     32 C         -10.4751  -16.4175   23.7026 C.ar    1  UNL1        0.0293
     33 C         -10.5129  -16.2813   22.2092 C.ar    1  UNL1        0.1401
     34 F         -11.7448  -16.6781   21.4509 F       1  UNL1       -0.2042
     35 C          -9.3188  -15.7485   21.4743 C.ar    1  UNL1        0.0293
     36 C          -8.0869  -15.3517   22.2326 C.ar    1  UNL1       -0.0020
@<TRIPOS>BOND
     1    19    20    1
     2    20    21    2
     3    20    13    1
     4    13    14   ar
     5    14    15   ar
     6    15     7    1
     7     7     8   am
     8     8     9    2
     9     8    10   am
    10     1    10    1
    11     1     2    1
    12     2     3    1
    13     3     4    1
    14     4     5    1
    15     5    22    1
    16    22    23    1
    17    23    24    1
    18    24    25    1
    19    25    26    1
    20    26    27    1
    21    27    29    1
    22    29    30    1
    23    30    31   ar
    24    31    32   ar
    25    32    33   ar
    26    33    34    1
    27    33    35   ar
    28    35    36   ar
    29    27    28    1
    30    15    16   ar
    31    16    17   ar
    32    17    18    1
    33    17    13   ar
    34     5     1    1
    35    28    23    1
    36    36    30   ar
    37     7    11    1
    38    10    12    1
    39     3     6    1
@<TRIPOS>MOLECULE
*****
 36 39 0 0 0
SMALL
GASTEIGER

@<TRIPOS>ATOM
      1 C           7.3564   -4.6839   26.3204 C.3     1  UNL1        0.0914
      2 C           6.8786   -6.0080   26.8386 C.3     1  UNL1        0.0885
      3 N           6.3077   -5.7909   28.2087 N.3     1  UNL1       -0.2960
      4 C           6.4327   -4.3327   28.5372 C.3     1  UNL1        0.0717
      5 C           7.0808   -3.6485   27.3701 C.3     1  UNL1        0.0511
      6 H           6.8251   -6.3450   28.8911 H       1  UNL1        0.1233
      7 N           7.7911   -3.8311   22.4689 N.am    1  UNL1       -0.2485
      8 C           7.1502   -4.0766   23.8027 C.2     1  UNL1        0.3059
      9 O           5.6623   -3.9603   23.9526 O.2     1  UNL1       -0.2524
     10 N           7.9972   -4.4385   24.9866 N.am    1  UNL1       -0.2888
     11 H           8.7677   -3.9075   22.3705 H       1  UNL1        0.1583
     12 H           8.9738   -4.5148   24.8883 H       1  UNL1        0.1510
     13 C           6.0423   -2.2865   19.3671 C.ar    1  UNL1        0.0803
     14 S           7.0962   -2.2437   20.4336 S.2     1  UNL1       -0.0488
     15 C           6.9441   -3.4693   21.2851 C.ar    1  UNL1        0.1664
     16 N           5.7961   -4.2695   20.7447 N.ar    1  UNL1       -0.2282
     17 C           5.2389   -3.5385   19.5593 C.ar    1  UNL1        0.0701
     18 C           4.0813   -3.9816   18.7145 C.3     1  UNL1        0.0528
     19 C           4.6836   -0.2951   18.3986 C.3     1  UNL1        0.0779
     20 C           5.8294   -1.2579   18.2964 C.2     1  UNL1        0.1807
     21 O           6.7621   -1.1919   17.1235 O.2     1  UNL1       -0.2908
     22 C           7.3977   -2.1858   27.2704 C.3     1  UNL1        0.0751
     23 N           6.8482   -1.3751   26.1341 N.3     1  UNL1       -0.2726
     24 C           7.7821   -0.7048   25.1706 C.3     1  UNL1        0.0721
     25 C           7.2327    0.1058   24.0344 C.3     1  UNL1        0.0174
     26 C           5.7493    0.2461   23.8618 C.3     1  UNL1        0.0031
     27 C           4.8153   -0.4242   24.8253 C.3     1  UNL1        0.0204
     28 C           5.3648   -1.2348   25.9615 C.3     1  UNL1        0.0724
     29 C           3.3319   -0.2839   24.6526 C.3     1  UNL1        0.0277
     30 C           2.7363   -0.2571   23.2763 C.ar    1  UNL1       -0.0220
     31 C           3.1119   -1.3098   22.2758 C.ar    1  UNL1       -0.0020
     32 C           2.5162   -1.2831   20.8995 C.ar    1  UNL1        0.0293
     33 C           1.5449   -0.2036   20.5235 C.ar    1  UNL1        0.1401
     34 F           0.9493   -0.1769   19.1470 F       1  UNL1       -0.2042
     35 C           1.1693    0.8491   21.5238 C.ar    1  UNL1        0.0293
     36 C           1.7650    0.8223   22.9003 C.ar    1  UNL1       -0.0020
@<TRIPOS>BOND
     1    19    20    1
     2    20    21    2
     3    20    13    1
     4    13    14   ar
     5    14    15   ar
     6    15     7    1
     7     7     8   am
     8     8     9    2
     9     8    10   am
    10     1    10    1
    11     1     2    1
    12     2     3    1
    13     3     4    1
    14     4     5    1
    15     5    22    1
    16    22    23    1
    17    23    24    1
    18    24    25    1
    19    25    26    1
    20    26    27    1
    21    27    29    1
    22    29    30    1
    23    30    31   ar
    24    31    32   ar
    25    32    33   ar
    26    33    34    1
    27    33    35   ar
    28    35    36   ar
    29    27    28    1
    30    15    16   ar
    31    16    17   ar
    32    17    18    1
    33    17    13   ar
    34     5     1    1
    35    28    23    1
    36    36    30   ar
    37     7    11    1
    38    10    12    1
    39     3     6    1
@<TRIPOS>MOLECULE
*****
 36 39 0 0 0
SMALL
GASTEIGER

@<TRIPOS>ATOM
      1 C          -2.7117  -18.4164   21.2296 C.3     1  UNL1        0.0914
      2 C          -1.6694  -17.8414   20.3170 C.3     1  UNL1        0.0885
      3 N          -1.0679  -16.6461   20.9951 N.3     1  UNL1       -0.2960
      4 C          -1.7387  -16.4825   22.3268 C.3     1  UNL1        0.0717
      5 C          -2.7546  -17.5766   22.4717 C.3     1  UNL1        0.0511
      6 H          -1.2193  -15.8130   20.4266 H       1  UNL1        0.1233
      7 N          -5.8249  -20.6499   20.1952 N.am    1  UNL1       -0.2485
      8 C          -4.9747  -19.4464   20.4756 C.2     1  UNL1        0.3059
      9 O          -5.5371  -18.0694   20.2824 O.2     1  UNL1       -0.2524
     10 N          -3.5620  -19.6199   20.9492 N.am    1  UNL1       -0.2888
     11 H          -5.4558  -21.5538   20.3220 H       1  UNL1        0.1583
     12 H          -3.1928  -20.5237   21.0760 H       1  UNL1        0.1510
     13 C          -9.5751  -19.8312   19.6196 C.ar    1  UNL1        0.0803
     14 S          -8.3327  -19.7625   20.4573 S.2     1  UNL1       -0.0488
     15 C          -7.2375  -20.4764   19.7217 C.ar    1  UNL1        0.1664
     16 N          -7.8032  -20.9864   18.4294 N.ar    1  UNL1       -0.2282
     17 C          -9.2478  -20.5876   18.3663 C.ar    1  UNL1        0.0701
     18 C         -10.1984  -20.8918   17.2465 C.3     1  UNL1        0.0528
     19 C         -11.7627  -19.9013   21.0193 C.3     1  UNL1        0.0779
     20 C         -10.9102  -19.2462   19.9732 C.2     1  UNL1        0.1807
     21 O         -11.3930  -18.0063   19.2808 O.2     1  UNL1       -0.2908
     22 C          -3.6552  -17.7928   23.6515 C.3     1  UNL1        0.0751
     23 N          -4.8712  -16.9337   23.8343 N.3     1  UNL1       -0.2726
     24 C          -4.9016  -15.8979   24.9188 C.3     1  UNL1        0.0721
     25 C          -6.1176  -15.0389   25.1015 C.3     1  UNL1        0.0174
     26 C          -7.3032  -15.2157   24.1998 C.3     1  UNL1        0.0031
     27 C          -7.2728  -16.2515   23.1153 C.3     1  UNL1        0.0204
     28 C          -6.0568  -17.1105   22.9325 C.3     1  UNL1        0.0724
     29 C          -8.4584  -16.4282   22.2135 C.3     1  UNL1        0.0277
     30 C          -9.7601  -16.9197   22.7738 C.ar    1  UNL1       -0.0220
     31 C          -9.7689  -18.0049   23.8093 C.ar    1  UNL1       -0.0020
     32 C         -11.0707  -18.4964   24.3696 C.ar    1  UNL1        0.0293
     33 C         -12.3636  -17.9027   23.8943 C.ar    1  UNL1        0.1401
     34 F         -13.6654  -18.3943   24.4546 F       1  UNL1       -0.2042
     35 C         -12.3548  -16.8176   22.8588 C.ar    1  UNL1        0.0293
     36 C         -11.0530  -16.3261   22.2985 C.ar    1  UNL1       -0.0020
@<TRIPOS>BOND
     1    19    20    1
     2    20    21    2
     3    20    13    1
     4    13    14   ar
     5    14    15   ar
     6    15     7    1
     7     7     8   am
     8     8     9    2
     9     8    10   am
    10     1    10    1
    11     1     2    1
    12     2     3    1
    13     3     4    1
    14     4     5    1
    15     5    22    1
    16    22    23    1
    17    23    24    1
    18    24    25    1
    19    25    26    1
    20    26    27    1
    21    27    29    1
    22    29    30    1
    23    30    31   ar
    24    31    32   ar
    25    32    33   ar
    26    33    34    1
    27    33    35   ar
    28    35    36   ar
    29    27    28    1
    30    15    16   ar
    31    16    17   ar
    32    17    18    1
    33    17    13   ar
    34     5     1    1
    35    28    23    1
    36    36    30   ar
    37     7    11    1
    38    10    12    1
    39     3     6    1
@<TRIPOS>MOLECULE
*****
 36 39 0 0 0
SMALL
GASTEIGER

@<TRIPOS>ATOM
      1 C           3.6964   -0.1212   18.3986 C.3     1  UNL1        0.0914
      2 C           4.5655   -0.5803   17.2655 C.3     1  UNL1        0.0885
      3 N           4.7587   -2.0617   17.4002 N.3     1  UNL1       -0.2960
      4 C           4.0090   -2.5182   18.6165 C.3     1  UNL1        0.0717
      5 C           3.3525   -1.3189   19.2336 C.3     1  UNL1        0.0511
      6 H           5.7510   -2.2733   17.5055 H       1  UNL1        0.1233
      7 N           1.3607    3.0701   18.7305 N.am    1  UNL1       -0.2485
      8 C           1.8074    1.6608   18.4770 C.2     1  UNL1        0.3059
      9 O           0.8117    0.6241   18.0481 O.2     1  UNL1       -0.2524
     10 N           3.2498    1.2881   18.6522 N.am    1  UNL1       -0.2888
     11 H           2.0142    3.7505   19.0120 H       1  UNL1        0.1583
     12 H           3.9033    1.9685   18.9336 H       1  UNL1        0.1510
     13 C          -2.3881    4.0303   19.0304 C.ar    1  UNL1        0.0803
     14 S          -1.0700    3.6845   19.6574 S.2     1  UNL1       -0.0488
     15 C          -0.0816    3.4428   18.5553 C.ar    1  UNL1        0.1664
     16 N          -0.7889    3.6391   17.2471 N.ar    1  UNL1       -0.2282
     17 C          -2.2143    4.0022   17.5408 C.ar    1  UNL1        0.0701
     18 C          -3.2791    4.2873   16.5235 C.3     1  UNL1        0.0528
     19 C          -4.3229    3.2966   20.6014 C.3     1  UNL1        0.0779
     20 C          -3.6570    4.3482   19.7643 C.2     1  UNL1        0.1807
     21 O          -4.2601    5.7177   19.6610 O.2     1  UNL1       -0.2908
     22 C           2.5014   -1.3176   20.4687 C.3     1  UNL1        0.0751
     23 N           3.1456   -1.3195   21.8234 N.3     1  UNL1       -0.2726
     24 C           4.0405   -2.4536   22.2268 C.3     1  UNL1        0.0721
     25 C           4.6846   -2.4555   23.5814 C.3     1  UNL1        0.0174
     26 C           4.4338   -1.3231   24.5327 C.3     1  UNL1        0.0031
     27 C           3.5390   -0.1889   24.1293 C.3     1  UNL1        0.0204
     28 C           2.8948   -0.1871   22.7747 C.3     1  UNL1        0.0724
     29 C           3.2882    0.9434   25.0806 C.3     1  UNL1        0.0277
     30 C           2.0373    0.9648   25.9081 C.ar    1  UNL1       -0.0220
     31 C           2.0863    0.5618   27.3521 C.ar    1  UNL1       -0.0020
     32 C           0.8355    0.5832   28.1796 C.ar    1  UNL1        0.0293
     33 C          -0.4645    1.0074   27.5631 C.ar    1  UNL1        0.1401
     34 F          -1.7154    1.0288   28.3907 F       1  UNL1       -0.2042
     35 C          -0.5136    1.4104   26.1191 C.ar    1  UNL1        0.0293
     36 C           0.7374    1.3891   25.2915 C.ar    1  UNL1       -0.0020
@<TRIPOS>BOND
     1    19    20    1
     2    20    21    2
     3    20    13    1
     4    13    14   ar
     5    14    15   ar
     6    15     7    1
     7     7     8   am
     8     8     9    2
     9     8    10   am
    10     1    10    1
    11     1     2    1
    12     2     3    1
    13     3     4    1
    14     4     5    1
    15     5    22    1
    16    22    23    1
    17    23    24    1
    18    24    25    1
    19    25    26    1
    20    26    27    1
    21    27    29    1
    22    29    30    1
    23    30    31   ar
    24    31    32   ar
    25    32    33   ar
    26    33    34    1
    27    33    35   ar
    28    35    36   ar
    29    27    28    1
    30    15    16   ar
    31    16    17   ar
    32    17    18    1
    33    17    13   ar
    34     5     1    1
    35    28    23    1
    36    36    30   ar
    37     7    11    1
    38    10    12    1
    39     3     6    1
@<TRIPOS>MOLECULE
*****
 36 39 0 0 0
SMALL
GASTEIGER

@<TRIPOS>ATOM
      1 C          -2.6506  -18.5221   20.2488 C.3     1  UNL1        0.0914
      2 C          -2.3978  -19.1078   18.8912 C.3     1  UNL1        0.0885
      3 N          -1.4831  -18.1793   18.1488 N.3     1  UNL1       -0.2960
      4 C          -1.1705  -17.0197   19.0475 C.3     1  UNL1        0.0717
      5 C          -1.8921  -17.2316   20.3454 C.3     1  UNL1        0.0511
      6 H          -1.9418  -17.8462   17.3008 H       1  UNL1        0.1233
      7 N          -5.8646  -19.7009   22.2566 N.am    1  UNL1       -0.2485
      8 C          -5.0044  -19.1013   21.1839 C.2     1  UNL1        0.3059
      9 O          -5.6377  -18.4815   19.9737 O.2     1  UNL1       -0.2524
     10 N          -3.5108  -19.1216   21.3214 N.am    1  UNL1       -0.2888
     11 H          -5.4489  -20.1078   23.0509 H       1  UNL1        0.1583
     12 H          -3.0951  -19.5285   22.1157 H       1  UNL1        0.1510
     13 C          -9.5879  -19.4150   21.1982 C.ar    1  UNL1        0.0803
     14 S          -8.1251  -19.2895   20.8907 S.2     1  UNL1       -0.0488
     15 C          -7.3580  -19.6806   22.1190 C.ar    1  UNL1        0.1664
     16 N          -8.3468  -20.0478   23.1856 N.ar    1  UNL1       -0.2282
     17 C          -9.7249  -19.8836   22.6165 C.ar    1  UNL1        0.0701
     18 C         -11.0137  -20.1427   23.3389 C.3     1  UNL1        0.0528
     19 C         -10.6291  -19.5660   18.8227 C.3     1  UNL1        0.0779
     20 C         -10.7156  -19.1231   20.2533 C.2     1  UNL1        0.1807
     21 O         -11.9298  -18.3883   20.7387 O.2     1  UNL1       -0.2908
     22 C          -1.8606  -16.3141   21.5316 C.3     1  UNL1        0.0751
     23 N          -2.8204  -16.5212   22.6657 N.3     1  UNL1       -0.2726
     24 C          -2.5953  -17.6350   23.6448 C.3     1  UNL1        0.0721
     25 C          -3.5551  -17.8421   24.7788 C.3     1  UNL1        0.0174
     26 C          -4.7399  -16.9354   24.9336 C.3     1  UNL1        0.0031
     27 C          -4.9651  -15.8216   23.9545 C.3     1  UNL1        0.0204
     28 C          -4.0053  -15.6145   22.8205 C.3     1  UNL1        0.0724
     29 C          -6.1499  -14.9149   24.1093 C.3     1  UNL1        0.0277
     30 C          -7.5341  -15.4428   23.8741 C.ar    1  UNL1       -0.0220
     31 C          -8.0896  -15.4971   22.4818 C.ar    1  UNL1       -0.0020
     32 C          -9.4737  -16.0250   22.2466 C.ar    1  UNL1        0.0293
     33 C         -10.3025  -16.4986   23.4037 C.ar    1  UNL1        0.1401
     34 F         -11.6867  -17.0266   23.1684 F       1  UNL1       -0.2042
     35 C          -9.7471  -16.4443   24.7960 C.ar    1  UNL1        0.0293
     36 C          -8.3628  -15.9164   25.0312 C.ar    1  UNL1       -0.0020
@<TRIPOS>BOND
     1    19    20    1
     2    20    21    2
     3    20    13    1
     4    13    14   ar
     5    14    15   ar
     6    15     7    1
     7     7     8   am
     8     8     9    2
     9     8    10   am
    10     1    10    1
    11     1     2    1
    12     2     3    1
    13     3     4    1
    14     4     5    1
    15     5    22    1
    16    22    23    1
    17    23    24    1
    18    24    25    1
    19    25    26    1
    20    26    27    1
    21    27    29    1
    22    29    30    1
    23    30    31   ar
    24    31    32   ar
    25    32    33   ar
    26    33    34    1
    27    33    35   ar
    28    35    36   ar
    29    27    28    1
    30    15    16   ar
    31    16    17   ar
    32    17    18    1
    33    17    13   ar
    34     5     1    1
    35    28    23    1
    36    36    30   ar
    37     7    11    1
    38    10    12    1
    39     3     6    1
@<TRIPOS>MOLECULE
*****
 36 39 0 0 0
SMALL
GASTEIGER

@<TRIPOS>ATOM
      1 C           6.3995   -2.6728   28.3027 C.3     1  UNL1        0.0914
      2 C           6.7190   -2.8118   26.8437 C.3     1  UNL1        0.0885
      3 N           7.4379   -4.1138   26.6486 N.3     1  UNL1       -0.2960
      4 C           7.5627   -4.7794   27.9870 C.3     1  UNL1        0.0717
      5 C           6.9209   -3.8889   29.0093 C.3     1  UNL1        0.0511
      6 H           8.3651   -3.9423   26.2595 H       1  UNL1        0.1233
      7 N           3.5576   -0.0476   29.1871 N.am    1  UNL1       -0.2485
      8 C           4.2730   -1.2002   28.5471 C.2     1  UNL1        0.3059
      9 O           3.5772   -2.0330   27.5116 O.2     1  UNL1       -0.2524
     10 N           5.6841   -1.5202   28.9427 N.am    1  UNL1       -0.2888
     11 H           4.0142    0.4990   29.8668 H       1  UNL1        0.1583
     12 H           6.1408   -0.9736   29.6223 H       1  UNL1        0.1510
     13 C           0.2293    1.1959   27.6246 C.ar    1  UNL1        0.0803
     14 S           1.7285    1.1583   27.6556 S.2     1  UNL1       -0.0488
     15 C           2.1466    0.2723   28.7916 C.ar    1  UNL1        0.1664
     16 N           0.9056   -0.2376   29.4626 N.ar    1  UNL1       -0.2282
     17 C          -0.2792    0.3332   28.7413 C.ar    1  UNL1        0.0701
     18 C          -1.7198    0.0849   29.0777 C.3     1  UNL1        0.0528
     19 C          -0.4013    1.7842   25.1739 C.3     1  UNL1        0.0779
     20 C          -0.6133    1.9617   26.6482 C.2     1  UNL1        0.1807
     21 O          -1.6679    2.9051   27.1460 O.2     1  UNL1       -0.2908
     22 C           6.8185   -4.1658   30.4799 C.3     1  UNL1        0.0751
     23 N           6.9500   -3.0427   31.4655 N.3     1  UNL1       -0.2726
     24 C           8.2251   -2.2563   31.5408 C.3     1  UNL1        0.0721
     25 C           8.3565   -1.1333   32.5263 C.3     1  UNL1        0.0174
     26 C           7.2129   -0.7966   33.4367 C.3     1  UNL1        0.0031
     27 C           5.9378   -1.5829   33.3614 C.3     1  UNL1        0.0204
     28 C           5.8063   -2.7060   32.3758 C.3     1  UNL1        0.0724
     29 C           4.7941   -1.2463   34.2718 C.3     1  UNL1        0.0277
     30 C           3.9879   -0.0037   34.0352 C.ar    1  UNL1       -0.0220
     31 C           3.8732    1.0326   35.1136 C.ar    1  UNL1       -0.0020
     32 C           3.0670    2.2752   34.8770 C.ar    1  UNL1        0.0293
     33 C           2.3755    2.4815   33.5620 C.ar    1  UNL1        0.1401
     34 F           1.5692    3.7241   33.3255 F       1  UNL1       -0.2042
     35 C           2.4901    1.4452   32.4836 C.ar    1  UNL1        0.0293
     36 C           3.2964    0.2026   32.7202 C.ar    1  UNL1       -0.0020
@<TRIPOS>BOND
     1    19    20    1
     2    20    21    2
     3    20    13    1
     4    13    14   ar
     5    14    15   ar
     6    15     7    1
     7     7     8   am
     8     8     9    2
     9     8    10   am
    10     1    10    1
    11     1     2    1
    12     2     3    1
    13     3     4    1
    14     4     5    1
    15     5    22    1
    16    22    23    1
    17    23    24    1
    18    24    25    1
    19    25    26    1
    20    26    27    1
    21    27    29    1
    22    29    30    1
    23    30    31   ar
    24    31    32   ar
    25    32    33   ar
    26    33    34    1
    27    33    35   ar
    28    35    36   ar
    29    27    28    1
    30    15    16   ar
    31    16    17   ar
    32    17    18    1
    33    17    13   ar
    34     5     1    1
    35    28    23    1
    36    36    30   ar
    37     7    11    1
    38    10    12    1
    39     3     6    1
