@<TRIPOS>MOLECULE
*****
 35 38 0 0 0
SMALL
GASTEIGER

@<TRIPOS>ATOM
      1 C           5.6294    1.1448   17.4720 C.ar    1  UNL1        0.1059
      2 C           6.2092   -0.2380   17.5133 C.ar    1  UNL1        0.0215
      3 C           5.4172   -1.3660   18.1052 C.ar    1  UNL1        0.0384
      4 C           4.0453   -1.1110   18.6557 C.ar    1  UNL1        0.1432
      5 C           3.4655    0.2717   18.6144 C.ar    1  UNL1        0.0888
      6 C           4.2576    1.3997   18.0225 C.ar    1  UNL1        0.0259
      7 C           2.0936    0.5265   19.1649 C.2     1  UNL1        0.2525
      8 O           0.9182    0.6167   18.2375 O.2     1  UNL1       -0.2698
      9 N           1.8973    0.6912   20.6429 N.am    1  UNL1       -0.2660
     10 C           2.9717    0.6268   21.6876 C.3     1  UNL1        0.1236
     11 C           2.3304    0.8450   23.0260 C.ar    1  UNL1        0.0338
     12 C           2.5981    0.9400   24.4988 C.ar    1  UNL1        0.0990
     13 N           1.2928    1.1979   25.1915 N.ar    1  UNL1       -0.2287
     14 N           0.2184    1.2622   24.1467 N.ar    1  UNL1       -0.1680
     15 C           0.8597    1.0441   22.8084 C.ar    1  UNL1        0.0981
     16 C           0.5920    0.9491   21.3355 C.3     1  UNL1        0.1414
     17 C           1.0964    1.3625   26.6694 C.ar    1  UNL1        0.0828
     18 C           2.2008    1.9242   27.5148 C.ar    1  UNL1        0.0191
     19 C           2.0045    2.0889   28.9928 C.ar    1  UNL1        0.0015
     20 C           0.7036    1.6918   29.6253 C.ar    1  UNL1        0.0001
     21 C          -0.4009    1.1302   28.7799 C.ar    1  UNL1        0.0015
     22 C          -0.2045    0.9655   27.3020 C.ar    1  UNL1        0.0191
     23 S           6.4215    2.2728   16.8801 S.O2    1  UNL1        0.0070
     24 O           5.5858    3.2589   17.6412 O.2     1  UNL1       -0.1687
     25 O           7.2572    1.2867   16.1191 O.2     1  UNL1       -0.1687
     26 C           8.6747    3.2213   16.0009 C.3     1  UNL1        0.0257
     27 C           7.2135    3.4008   16.2883 C.3     1  UNL1        0.1339
     28 C           6.5443    4.7084   15.9838 C.3     1  UNL1        0.0257
     29 O           3.2532   -2.2390   19.2476 O.3     1  UNL1       -0.4702
     30 C           3.9523   -3.3333   19.9985 C.3     1  UNL1        0.2599
     31 C           4.3009   -3.1459   21.4453 C.3     1  UNL1        0.0566
     32 C           4.3029   -4.6150   19.3026 C.3     1  UNL1        0.4340
     33 F           4.6535   -5.8968   18.6066 F       1  UNL1       -0.1664
     34 F           5.7501   -4.3982   19.6322 F       1  UNL1       -0.1664
     35 F           2.8558   -4.8318   18.9729 F       1  UNL1       -0.1664
@<TRIPOS>BOND
     1    26    27    1
     2    27    28    1
     3    27    23    1
     4    23    24    2
     5    23    25    2
     6    23     1    1
     7     1     2   ar
     8     2     3   ar
     9     3     4   ar
    10     4    29    1
    11    29    30    1
    12    30    31    1
    13    30    32    1
    14    32    33    1
    15    32    34    1
    16    32    35    1
    17     4     5   ar
    18     5     7    1
    19     7     8    2
    20     7     9   am
    21     9    10    1
    22    10    11    1
    23    11    12   ar
    24    12    13   ar
    25    13    17    1
    26    17    18   ar
    27    18    19   ar
    28    19    20   ar
    29    20    21   ar
    30    21    22   ar
    31    13    14   ar
    32    14    15   ar
    33    15    16    1
    34     5     6   ar
    35     6     1   ar
    36    16     9    1
    37    15    11   ar
    38    22    17   ar
@<TRIPOS>MOLECULE
*****
 35 38 0 0 0
SMALL
GASTEIGER

@<TRIPOS>ATOM
      1 C          -3.5961    3.7212   23.2399 C.ar    1  UNL1        0.1059
      2 C          -4.9773    3.4257   22.7351 C.ar    1  UNL1        0.0215
      3 C          -5.2291    3.3144   21.2605 C.ar    1  UNL1        0.0384
      4 C          -4.0995    3.4987   20.2909 C.ar    1  UNL1        0.1432
      5 C          -2.7183    3.7942   20.7957 C.ar    1  UNL1        0.0888
      6 C          -2.4666    3.9055   22.2702 C.ar    1  UNL1        0.0259
      7 C          -1.5888    3.9784   19.8259 C.2     1  UNL1        0.2525
      8 O          -1.4795    5.2479   19.0344 O.2     1  UNL1       -0.2698
      9 N          -0.5687    2.8932   19.6478 N.am    1  UNL1       -0.2660
     10 C          -0.5478    1.5764   20.3657 C.3     1  UNL1        0.1236
     11 C           0.6434    0.8037   19.8820 C.ar    1  UNL1        0.0338
     12 C           1.3926   -0.4877   20.0268 C.ar    1  UNL1        0.0990
     13 N           2.5709   -0.4466   19.0994 N.ar    1  UNL1       -0.2287
     14 N           2.5499    0.8703   18.3814 N.ar    1  UNL1       -0.1680
     15 C           1.3587    1.6430   18.8651 C.ar    1  UNL1        0.0981
     16 C           0.6095    2.9344   18.7204 C.3     1  UNL1        0.1414
     17 C           3.5909   -1.5318   18.9212 C.ar    1  UNL1        0.0828
     18 C           4.8957   -1.2310   18.2451 C.ar    1  UNL1        0.0191
     19 C           5.9159   -2.3161   18.0669 C.ar    1  UNL1        0.0015
     20 C           5.6312   -3.7021   18.5648 C.ar    1  UNL1        0.0001
     21 C           4.3264   -4.0030   19.2409 C.ar    1  UNL1        0.0015
     22 C           3.3063   -2.9179   19.4191 C.ar    1  UNL1        0.0191
     23 S          -3.3443    3.8325   24.7144 S.O2    1  UNL1        0.0070
     24 O          -1.9121    4.1865   24.4431 O.2     1  UNL1       -0.1687
     25 O          -4.7765    3.4785   24.9857 O.2     1  UNL1       -0.1687
     26 C          -1.7364    3.6242   26.7445 C.3     1  UNL1        0.0257
     27 C          -3.0925    3.9438   26.1889 C.3     1  UNL1        0.1339
     28 C          -4.1970    4.3748   27.1080 C.3     1  UNL1        0.0257
     29 O          -4.3513    3.3874   18.8163 O.3     1  UNL1       -0.4702
     30 C          -5.1720    4.4287   18.1149 C.3     1  UNL1        0.2599
     31 C          -4.5228    5.3611   17.1356 C.3     1  UNL1        0.0566
     32 C          -6.6420    4.5377   18.3928 C.3     1  UNL1        0.4340
     33 F          -8.1121    4.6468   18.6706 F       1  UNL1       -0.1664
     34 F          -6.7529    3.0418   18.3935 F       1  UNL1       -0.1664
     35 F          -6.5312    6.0336   18.3921 F       1  UNL1       -0.1664
@<TRIPOS>BOND
     1    26    27    1
     2    27    28    1
     3    27    23    1
     4    23    24    2
     5    23    25    2
     6    23     1    1
     7     1     2   ar
     8     2     3   ar
     9     3     4   ar
    10     4    29    1
    11    29    30    1
    12    30    31    1
    13    30    32    1
    14    32    33    1
    15    32    34    1
    16    32    35    1
    17     4     5   ar
    18     5     7    1
    19     7     8    2
    20     7     9   am
    21     9    10    1
    22    10    11    1
    23    11    12   ar
    24    12    13   ar
    25    13    17    1
    26    17    18   ar
    27    18    19   ar
    28    19    20   ar
    29    20    21   ar
    30    21    22   ar
    31    13    14   ar
    32    14    15   ar
    33    15    16    1
    34     5     6   ar
    35     6     1   ar
    36    16     9    1
    37    15    11   ar
    38    22    17   ar
@<TRIPOS>MOLECULE
*****
 35 38 0 0 0
SMALL
GASTEIGER

@<TRIPOS>ATOM
      1 C           0.9125    1.4281   21.3119 C.ar    1  UNL1        0.1059
      2 C           0.3631    0.2899   20.5040 C.ar    1  UNL1        0.0215
      3 C           1.2118   -0.9174   20.2352 C.ar    1  UNL1        0.0384
      4 C           2.6100   -0.9863   20.7742 C.ar    1  UNL1        0.1432
      5 C           3.1594    0.1518   21.5821 C.ar    1  UNL1        0.0888
      6 C           2.3106    1.3591   21.8509 C.ar    1  UNL1        0.0259
      7 C           4.5575    0.0828   22.1211 C.2     1  UNL1        0.2525
      8 O           5.7185    0.4442   21.2429 O.2     1  UNL1       -0.2698
      9 N           4.7945   -0.3477   23.5383 N.am    1  UNL1       -0.2660
     10 C           3.7385   -0.7373   24.5298 C.3     1  UNL1        0.1236
     11 C           4.4205   -1.0946   25.8171 C.ar    1  UNL1        0.0338
     12 C           4.1894   -1.5561   27.2255 C.ar    1  UNL1        0.0990
     13 N           5.5241   -1.6726   27.9001 N.ar    1  UNL1       -0.2287
     14 N           6.5801   -1.2830   26.9085 N.ar    1  UNL1       -0.1680
     15 C           5.8981   -0.9258   25.6212 C.ar    1  UNL1        0.0981
     16 C           6.1292   -0.4642   24.2129 C.3     1  UNL1        0.1414
     17 C           5.7611   -2.1031   29.3172 C.ar    1  UNL1        0.0828
     18 C           6.5435   -3.3510   29.6011 C.ar    1  UNL1        0.0191
     19 C           6.7805   -3.7816   31.0183 C.ar    1  UNL1        0.0015
     20 C           6.2353   -2.9641   32.1517 C.ar    1  UNL1        0.0001
     21 C           5.4529   -1.7161   31.8677 C.ar    1  UNL1        0.0015
     22 C           5.2158   -1.2857   30.4506 C.ar    1  UNL1        0.0191
     23 S           0.0639    2.6353   21.5808 S.O2    1  UNL1        0.0070
     24 O           1.1771    3.2388   22.3849 O.2     1  UNL1       -0.1687
     25 O          -1.0493    2.0319   20.7767 O.2     1  UNL1       -0.1687
     26 C          -2.1144    3.6890   22.5268 C.3     1  UNL1        0.0257
     27 C          -0.7848    3.8426   21.8497 C.3     1  UNL1        0.1339
     28 C          -0.3038    5.2036   21.4414 C.3     1  UNL1        0.0257
     29 O           3.4586   -2.1936   20.5054 O.3     1  UNL1       -0.4702
     30 C           4.0010   -2.4375   19.1283 C.3     1  UNL1        0.2599
     31 C           4.2097   -1.2863   18.1896 C.3     1  UNL1        0.0566
     32 C           4.3347   -3.8326   18.6898 C.3     1  UNL1        0.4340
     33 F           4.6685   -5.2278   18.2513 F       1  UNL1       -0.1664
     34 F           3.0108   -4.3119   19.2071 F       1  UNL1       -0.1664
     35 F           5.6586   -3.3533   18.1725 F       1  UNL1       -0.1664
@<TRIPOS>BOND
     1    26    27    1
     2    27    28    1
     3    27    23    1
     4    23    24    2
     5    23    25    2
     6    23     1    1
     7     1     2   ar
     8     2     3   ar
     9     3     4   ar
    10     4    29    1
    11    29    30    1
    12    30    31    1
    13    30    32    1
    14    32    33    1
    15    32    34    1
    16    32    35    1
    17     4     5   ar
    18     5     7    1
    19     7     8    2
    20     7     9   am
    21     9    10    1
    22    10    11    1
    23    11    12   ar
    24    12    13   ar
    25    13    17    1
    26    17    18   ar
    27    18    19   ar
    28    19    20   ar
    29    20    21   ar
    30    21    22   ar
    31    13    14   ar
    32    14    15   ar
    33    15    16    1
    34     5     6   ar
    35     6     1   ar
    36    16     9    1
    37    15    11   ar
    38    22    17   ar
@<TRIPOS>MOLECULE
*****
 35 38 0 0 0
SMALL
GASTEIGER

@<TRIPOS>ATOM
      1 C           5.3244    3.2038   17.8905 C.ar    1  UNL1        0.1059
      2 C           4.0037    3.7342   18.3640 C.ar    1  UNL1        0.0215
      3 C           2.8566    2.7950   18.5926 C.ar    1  UNL1        0.0384
      4 C           3.0305    1.3253   18.3477 C.ar    1  UNL1        0.1432
      5 C           4.3513    0.7949   17.8742 C.ar    1  UNL1        0.0888
      6 C           5.4983    1.7342   17.6456 C.ar    1  UNL1        0.0259
      7 C           4.5250   -0.6747   17.6293 C.2     1  UNL1        0.2525
      8 O           4.0541   -1.2812   16.3408 O.2     1  UNL1       -0.2698
      9 N           5.1697   -1.5379   18.6730 N.am    1  UNL1       -0.2660
     10 C           5.6874   -1.0756   20.0028 C.3     1  UNL1        0.1236
     11 C           6.2475   -2.2669   20.7217 C.ar    1  UNL1        0.0338
     12 C           6.9137   -2.7175   21.9879 C.ar    1  UNL1        0.0990
     13 N           7.1538   -4.1946   21.8852 N.ar    1  UNL1       -0.2287
     14 N           6.6360   -4.6569   20.5554 N.ar    1  UNL1       -0.1680
     15 C           6.0759   -3.4656   19.8364 C.ar    1  UNL1        0.0981
     16 C           5.4098   -3.0150   18.5702 C.3     1  UNL1        0.1414
     17 C           7.7984   -5.0578   22.9288 C.ar    1  UNL1        0.0828
     18 C           7.4118   -4.9071   24.3702 C.ar    1  UNL1        0.0191
     19 C           8.0565   -5.7703   25.4140 C.ar    1  UNL1        0.0015
     20 C           9.0878   -6.7842   25.0162 C.ar    1  UNL1        0.0001
     21 C           9.4745   -6.9350   23.5746 C.ar    1  UNL1        0.0015
     22 C           8.8298   -6.0718   22.5310 C.ar    1  UNL1        0.0191
     23 S           6.4715    4.1430   17.6619 S.O2    1  UNL1        0.0070
     24 O           7.3748    3.2277   18.4342 O.2     1  UNL1       -0.1687
     25 O           5.5681    5.0582   16.8897 O.2     1  UNL1       -0.1687
     26 C           8.2999    5.7320   18.6010 C.3     1  UNL1        0.0257
     27 C           7.6185    5.0822   17.4333 C.3     1  UNL1        0.1339
     28 C           8.0841    5.3716   16.0370 C.3     1  UNL1        0.0257
     29 O           1.8835    0.3861   18.5763 O.3     1  UNL1       -0.4702
     30 C           1.3937    0.1257   19.9699 C.3     1  UNL1        0.2599
     31 C           0.1047    0.7337   20.4378 C.3     1  UNL1        0.0566
     32 C           2.1928   -0.7428   20.8957 C.3     1  UNL1        0.4340
     33 F           2.9919   -1.6114   21.8216 F       1  UNL1       -0.1664
     34 F           2.1864    0.3484   21.9250 F       1  UNL1       -0.1664
     35 F           2.1992   -1.8340   19.8666 F       1  UNL1       -0.1664
@<TRIPOS>BOND
     1    26    27    1
     2    27    28    1
     3    27    23    1
     4    23    24    2
     5    23    25    2
     6    23     1    1
     7     1     2   ar
     8     2     3   ar
     9     3     4   ar
    10     4    29    1
    11    29    30    1
    12    30    31    1
    13    30    32    1
    14    32    33    1
    15    32    34    1
    16    32    35    1
    17     4     5   ar
    18     5     7    1
    19     7     8    2
    20     7     9   am
    21     9    10    1
    22    10    11    1
    23    11    12   ar
    24    12    13   ar
    25    13    17    1
    26    17    18   ar
    27    18    19   ar
    28    19    20   ar
    29    20    21   ar
    30    21    22   ar
    31    13    14   ar
    32    14    15   ar
    33    15    16    1
    34     5     6   ar
    35     6     1   ar
    36    16     9    1
    37    15    11   ar
    38    22    17   ar
@<TRIPOS>MOLECULE
*****
 35 38 0 0 0
SMALL
GASTEIGER

@<TRIPOS>ATOM
      1 C           2.5623    0.0769   29.4561 C.ar    1  UNL1        0.1059
      2 C           3.8060    0.4515   28.7058 C.ar    1  UNL1        0.0215
      3 C           5.1527    0.2298   29.3280 C.ar    1  UNL1        0.0384
      4 C           5.2557   -0.3666   30.7005 C.ar    1  UNL1        0.1432
      5 C           4.0120   -0.7412   31.4508 C.ar    1  UNL1        0.0888
      6 C           2.6653   -0.5194   30.8285 C.ar    1  UNL1        0.0259
      7 C           4.1151   -1.3375   32.8233 C.2     1  UNL1        0.2525
      8 O           4.0679   -2.8264   32.9996 O.2     1  UNL1       -0.2698
      9 N           4.2652   -0.4450   34.0195 N.am    1  UNL1       -0.2660
     10 C           4.3274    1.0535   33.9992 C.3     1  UNL1        0.1236
     11 C           4.4802    1.5303   35.4132 C.ar    1  UNL1        0.0338
     12 C           4.6131    2.7511   36.2745 C.ar    1  UNL1        0.0990
     13 N           4.7275    2.3018   37.7011 N.ar    1  UNL1       -0.2287
     14 N           4.6653    0.8031   37.7213 N.ar    1  UNL1       -0.1680
     15 C           4.5125    0.3264   36.3074 C.ar    1  UNL1        0.0981
     16 C           4.3797   -0.8944   35.4460 C.3     1  UNL1        0.1414
     17 C           4.8777    3.1942   38.8972 C.ar    1  UNL1        0.0828
     18 C           5.9402    2.9092   39.9169 C.ar    1  UNL1        0.0191
     19 C           6.0905    3.8017   41.1132 C.ar    1  UNL1        0.0015
     20 C           5.1781    4.9792   41.2897 C.ar    1  UNL1        0.0001
     21 C           4.1155    5.2642   40.2699 C.ar    1  UNL1        0.0015
     22 C           3.9653    4.3717   39.0738 C.ar    1  UNL1        0.0191
     23 S           1.2155    0.2987   28.8339 S.O2    1  UNL1        0.0070
     24 O           0.5823    0.2670   30.1933 O.2     1  UNL1       -0.1687
     25 O           1.8488    0.3304   27.4745 O.2     1  UNL1       -0.1687
     26 C          -0.2790    1.4742   27.0635 C.3     1  UNL1        0.0257
     27 C          -0.1312    0.5204   28.2117 C.3     1  UNL1        0.1339
     28 C          -1.3302   -0.2117   28.7377 C.3     1  UNL1        0.0257
     29 O           6.6024   -0.5883   31.3227 O.3     1  UNL1       -0.4702
     30 C           7.4000   -1.8086   30.9696 C.3     1  UNL1        0.2599
     31 C           8.4910   -1.7206   29.9440 C.3     1  UNL1        0.0566
     32 C           7.1066   -3.1169   31.6420 C.3     1  UNL1        0.4340
     33 F           6.8133   -4.4253   32.3145 F       1  UNL1       -0.1664
     34 F           6.2502   -3.5226   30.4793 F       1  UNL1       -0.1664
     35 F           7.9630   -2.7114   32.8048 F       1  UNL1       -0.1664
@<TRIPOS>BOND
     1    26    27    1
     2    27    28    1
     3    27    23    1
     4    23    24    2
     5    23    25    2
     6    23     1    1
     7     1     2   ar
     8     2     3   ar
     9     3     4   ar
    10     4    29    1
    11    29    30    1
    12    30    31    1
    13    30    32    1
    14    32    33    1
    15    32    34    1
    16    32    35    1
    17     4     5   ar
    18     5     7    1
    19     7     8    2
    20     7     9   am
    21     9    10    1
    22    10    11    1
    23    11    12   ar
    24    12    13   ar
    25    13    17    1
    26    17    18   ar
    27    18    19   ar
    28    19    20   ar
    29    20    21   ar
    30    21    22   ar
    31    13    14   ar
    32    14    15   ar
    33    15    16    1
    34     5     6   ar
    35     6     1   ar
    36    16     9    1
    37    15    11   ar
    38    22    17   ar
@<TRIPOS>MOLECULE
*****
 35 38 0 0 0
SMALL
GASTEIGER

@<TRIPOS>ATOM
      1 C           7.5733   -3.5115   21.3460 C.ar    1  UNL1        0.1059
      2 C           8.5252   -2.9884   20.3115 C.ar    1  UNL1        0.0215
      3 C           7.9996   -2.4341   19.0206 C.ar    1  UNL1        0.0384
      4 C           6.5219   -2.4029   18.7643 C.ar    1  UNL1        0.1432
      5 C           5.5700   -2.9260   19.7987 C.ar    1  UNL1        0.0888
      6 C           6.0957   -3.4803   21.0897 C.ar    1  UNL1        0.0259
      7 C           4.0924   -2.8948   19.5423 C.2     1  UNL1        0.2525
      8 O           3.4486   -3.9809   18.7325 O.2     1  UNL1       -0.2698
      9 N           3.2586   -1.7774   20.0957 N.am    1  UNL1       -0.2660
     10 C           3.7593   -0.6279   20.9190 C.3     1  UNL1        0.1236
     11 C           2.5878    0.2465   21.2550 C.ar    1  UNL1        0.0338
     12 C           2.1733    1.4974   21.9716 C.ar    1  UNL1        0.0990
     13 N           0.6923    1.6615   21.7988 N.ar    1  UNL1       -0.2287
     14 N           0.1915    0.5119   20.9755 N.ar    1  UNL1       -0.1680
     15 C           1.3631   -0.3625   20.6394 C.ar    1  UNL1        0.0981
     16 C           1.7776   -1.6134   19.9229 C.3     1  UNL1        0.1414
     17 C          -0.1415    2.7788   22.3522 C.ar    1  UNL1        0.0828
     18 C          -0.3493    2.8972   23.8330 C.ar    1  UNL1        0.0191
     19 C          -1.1832    4.0146   24.3864 C.ar    1  UNL1        0.0015
     20 C          -1.8092    5.0135   23.4590 C.ar    1  UNL1        0.0001
     21 C          -1.6014    4.8951   21.9781 C.ar    1  UNL1        0.0015
     22 C          -0.7676    3.7778   21.4247 C.ar    1  UNL1        0.0191
     23 S           8.0989   -4.0658   22.6370 S.O2    1  UNL1        0.0070
     24 O           6.8832   -4.9360   22.7583 O.2     1  UNL1       -0.1687
     25 O           9.3146   -3.1955   22.5156 O.2     1  UNL1       -0.1687
     26 C           8.2587   -6.0119   24.3507 C.3     1  UNL1        0.0257
     27 C           8.6245   -4.6200   23.9279 C.3     1  UNL1        0.1339
     28 C           9.5160   -3.7824   24.7961 C.3     1  UNL1        0.0257
     29 O           5.9963   -1.8486   17.4733 O.3     1  UNL1       -0.4702
     30 C           5.7258   -0.3790   17.3430 C.3     1  UNL1        0.2599
     31 C           6.8557    0.5709   17.0765 C.3     1  UNL1        0.0566
     32 C           4.3254    0.1408   17.4792 C.3     1  UNL1        0.4340
     33 F           2.9248    0.6606   17.6154 F       1  UNL1       -0.1664
     34 F           4.8422    1.3403   18.2169 F       1  UNL1       -0.1664
     35 F           3.8084   -1.0586   16.7416 F       1  UNL1       -0.1664
@<TRIPOS>BOND
     1    26    27    1
     2    27    28    1
     3    27    23    1
     4    23    24    2
     5    23    25    2
     6    23     1    1
     7     1     2   ar
     8     2     3   ar
     9     3     4   ar
    10     4    29    1
    11    29    30    1
    12    30    31    1
    13    30    32    1
    14    32    33    1
    15    32    34    1
    16    32    35    1
    17     4     5   ar
    18     5     7    1
    19     7     8    2
    20     7     9   am
    21     9    10    1
    22    10    11    1
    23    11    12   ar
    24    12    13   ar
    25    13    17    1
    26    17    18   ar
    27    18    19   ar
    28    19    20   ar
    29    20    21   ar
    30    21    22   ar
    31    13    14   ar
    32    14    15   ar
    33    15    16    1
    34     5     6   ar
    35     6     1   ar
    36    16     9    1
    37    15    11   ar
    38    22    17   ar
@<TRIPOS>MOLECULE
*****
 35 38 0 0 0
SMALL
GASTEIGER

@<TRIPOS>ATOM
      1 C           1.2733    1.1837   29.3891 C.ar    1  UNL1        0.1059
      2 C          -0.2000    0.9564   29.5553 C.ar    1  UNL1        0.0215
      3 C          -1.1494    1.3673   28.4691 C.ar    1  UNL1        0.0384
      4 C          -0.6254    2.0056   27.2168 C.ar    1  UNL1        0.1432
      5 C           0.8479    2.2329   27.0507 C.ar    1  UNL1        0.0888
      6 C           1.7973    1.8219   28.1369 C.ar    1  UNL1        0.0259
      7 C           1.3718    2.8711   25.7984 C.2     1  UNL1        0.2525
      8 O           1.3255    4.3621   25.6407 O.2     1  UNL1       -0.2698
      9 N           1.9419    2.0184   24.7040 N.am    1  UNL1       -0.2660
     10 C           2.0539    0.5227   24.7193 C.3     1  UNL1        0.1236
     11 C           2.6813    0.0917   23.4268 C.ar    1  UNL1        0.0338
     12 C           3.1383   -1.0992   22.6374 C.ar    1  UNL1        0.0990
     13 N           3.6966   -0.6059   21.3355 N.ar    1  UNL1       -0.2287
     14 N           3.5845    0.8899   21.3202 N.ar    1  UNL1       -0.1680
     15 C           2.9571    1.3210   22.6127 C.ar    1  UNL1        0.0981
     16 C           2.5001    2.5118   23.4020 C.3     1  UNL1        0.1414
     17 C           4.2666   -1.4585   20.2410 C.ar    1  UNL1        0.0828
     18 C           5.4049   -0.9478   19.4082 C.ar    1  UNL1        0.0191
     19 C           5.9751   -1.8005   18.3137 C.ar    1  UNL1        0.0015
     20 C           5.4069   -3.1639   18.0520 C.ar    1  UNL1        0.0001
     21 C           4.2686   -3.6746   18.8849 C.ar    1  UNL1        0.0015
     22 C           3.6985   -2.8219   19.9793 C.ar    1  UNL1        0.0191
     23 S           2.2228    0.7728   30.4753 S.O2    1  UNL1        0.0070
     24 O           1.6681   -0.6203   30.4331 O.2     1  UNL1       -0.1687
     25 O           2.7775    2.1658   30.5174 O.2     1  UNL1       -0.1687
     26 C           4.1565   -0.7436   31.3185 C.3     1  UNL1        0.0257
     27 C           3.1722    0.3619   31.5614 C.3     1  UNL1        0.1339
     28 C           3.1374    1.0565   32.8905 C.3     1  UNL1        0.0257
     29 O          -1.5749    2.4165   26.1307 O.3     1  UNL1       -0.4702
     30 C          -2.4538    3.6176   26.3176 C.3     1  UNL1        0.2599
     31 C          -1.9053    4.8550   26.9640 C.3     1  UNL1        0.0566
     32 C          -3.8812    3.5813   25.8581 C.3     1  UNL1        0.4340
     33 F          -5.3087    3.5450   25.3986 F       1  UNL1       -0.1664
     34 F          -3.4273    3.2120   24.4769 F       1  UNL1       -0.1664
     35 F          -4.3352    3.9505   27.2392 F       1  UNL1       -0.1664
@<TRIPOS>BOND
     1    26    27    1
     2    27    28    1
     3    27    23    1
     4    23    24    2
     5    23    25    2
     6    23     1    1
     7     1     2   ar
     8     2     3   ar
     9     3     4   ar
    10     4    29    1
    11    29    30    1
    12    30    31    1
    13    30    32    1
    14    32    33    1
    15    32    34    1
    16    32    35    1
    17     4     5   ar
    18     5     7    1
    19     7     8    2
    20     7     9   am
    21     9    10    1
    22    10    11    1
    23    11    12   ar
    24    12    13   ar
    25    13    17    1
    26    17    18   ar
    27    18    19   ar
    28    19    20   ar
    29    20    21   ar
    30    21    22   ar
    31    13    14   ar
    32    14    15   ar
    33    15    16    1
    34     5     6   ar
    35     6     1   ar
    36    16     9    1
    37    15    11   ar
    38    22    17   ar
@<TRIPOS>MOLECULE
*****
 35 38 0 0 0
SMALL
GASTEIGER

@<TRIPOS>ATOM
      1 C           2.4178    0.4710   30.3978 C.ar    1  UNL1        0.1059
      2 C           2.8738    1.7807   30.9694 C.ar    1  UNL1        0.0215
      3 C           4.1122    1.8399   31.8137 C.ar    1  UNL1        0.0384
      4 C           4.8945    0.5894   32.0864 C.ar    1  UNL1        0.1432
      5 C           4.4385   -0.7203   31.5148 C.ar    1  UNL1        0.0888
      6 C           3.2000   -0.7794   30.6704 C.ar    1  UNL1        0.0259
      7 C           5.2208   -1.9707   31.7875 C.2     1  UNL1        0.2525
      8 O           5.4120   -2.4431   33.1982 O.2     1  UNL1       -0.2698
      9 N           5.8121   -2.7487   30.6494 N.am    1  UNL1       -0.2660
     10 C           5.7049   -2.4012   29.1941 C.3     1  UNL1        0.1236
     11 C           6.4408   -3.4485   28.4122 C.ar    1  UNL1        0.0338
     12 C           6.8295   -3.8811   27.0295 C.ar    1  UNL1        0.0990
     13 N           7.6317   -5.1431   27.1468 N.ar    1  UNL1       -0.2287
     14 N           7.7389   -5.4905   28.6022 N.ar    1  UNL1       -0.1680
     15 C           7.0029   -4.4432   29.3841 C.ar    1  UNL1        0.0981
     16 C           6.6143   -4.0107   30.7668 C.3     1  UNL1        0.1414
     17 C           8.2229   -5.9211   26.0089 C.ar    1  UNL1        0.0828
     18 C           8.9441   -7.2091   26.2754 C.ar    1  UNL1        0.0191
     19 C           9.5353   -7.9871   25.1374 C.ar    1  UNL1        0.0015
     20 C           9.4054   -7.4772   23.7328 C.ar    1  UNL1        0.0001
     21 C           8.6842   -6.1891   23.4662 C.ar    1  UNL1        0.0015
     22 C           8.0930   -5.4112   24.6041 C.ar    1  UNL1        0.0191
     23 S           1.1794    0.4117   29.5534 S.O2    1  UNL1        0.0070
     24 O           1.9237   -0.3770   28.5171 O.2     1  UNL1       -0.1687
     25 O           0.4350    1.2004   30.5898 O.2     1  UNL1       -0.1687
     26 C          -0.1564    1.1795   27.4615 C.3     1  UNL1        0.0257
     27 C          -0.0590    0.3525   28.7091 C.3     1  UNL1        0.1339
     28 C          -1.2001   -0.5339   29.1124 C.3     1  UNL1        0.0257
     29 O           6.1329    0.6487   32.9307 O.3     1  UNL1       -0.4702
     30 C           6.0238    0.6052   34.4261 C.3     1  UNL1        0.2599
     31 C           7.1942    0.1578   35.2508 C.3     1  UNL1        0.0566
     32 C           4.7445    1.0091   35.0969 C.3     1  UNL1        0.4340
     33 F           3.4650    1.4131   35.7678 F       1  UNL1       -0.1664
     34 F           4.3424   -0.4324   35.1983 F       1  UNL1       -0.1664
     35 F           5.1464    2.4507   34.9956 F       1  UNL1       -0.1664
@<TRIPOS>BOND
     1    26    27    1
     2    27    28    1
     3    27    23    1
     4    23    24    2
     5    23    25    2
     6    23     1    1
     7     1     2   ar
     8     2     3   ar
     9     3     4   ar
    10     4    29    1
    11    29    30    1
    12    30    31    1
    13    30    32    1
    14    32    33    1
    15    32    34    1
    16    32    35    1
    17     4     5   ar
    18     5     7    1
    19     7     8    2
    20     7     9   am
    21     9    10    1
    22    10    11    1
    23    11    12   ar
    24    12    13   ar
    25    13    17    1
    26    17    18   ar
    27    18    19   ar
    28    19    20   ar
    29    20    21   ar
    30    21    22   ar
    31    13    14   ar
    32    14    15   ar
    33    15    16    1
    34     5     6   ar
    35     6     1   ar
    36    16     9    1
    37    15    11   ar
    38    22    17   ar
@<TRIPOS>MOLECULE
*****
 35 38 0 0 0
SMALL
GASTEIGER

@<TRIPOS>ATOM
      1 C           7.7183   -3.5304   31.7154 C.ar    1  UNL1        0.1059
      2 C           8.7388   -2.6805   32.4127 C.ar    1  UNL1        0.0215
      3 C           8.3356   -1.3677   33.0159 C.ar    1  UNL1        0.0384
      4 C           6.9119   -0.9047   32.9217 C.ar    1  UNL1        0.1432
      5 C           5.8914   -1.7546   32.2244 C.ar    1  UNL1        0.0888
      6 C           6.2947   -3.0675   31.6212 C.ar    1  UNL1        0.0259
      7 C           4.4678   -1.2916   32.1302 C.2     1  UNL1        0.2525
      8 O           3.6036   -1.2699   33.3560 O.2     1  UNL1       -0.2698
      9 N           3.9084   -0.8503   30.8102 N.am    1  UNL1       -0.2660
     10 C           4.6482   -0.8172   29.5058 C.3     1  UNL1        0.1236
     11 C           3.7080   -0.3110   28.4524 C.ar    1  UNL1        0.0338
     12 C           3.5841    0.0222   26.9951 C.ar    1  UNL1        0.0990
     13 N           2.1867    0.5080   26.7478 N.ar    1  UNL1       -0.2287
     14 N           1.4468    0.4750   28.0523 N.ar    1  UNL1       -0.1680
     15 C           2.3871   -0.0312   29.1057 C.ar    1  UNL1        0.0981
     16 C           2.5109   -0.3645   30.5630 C.3     1  UNL1        0.1414
     17 C           1.6273    0.9493   25.4279 C.ar    1  UNL1        0.0828
     18 C           2.2275    0.4403   24.1510 C.ar    1  UNL1        0.0191
     19 C           1.6682    0.8817   22.8310 C.ar    1  UNL1        0.0015
     20 C           0.5084    1.8320   22.7880 C.ar    1  UNL1        0.0001
     21 C          -0.0919    2.3410   24.0650 C.ar    1  UNL1        0.0015
     22 C           0.4675    1.8997   25.3848 C.ar    1  UNL1        0.0191
     23 S           8.1214   -4.8433   31.1122 S.O2    1  UNL1        0.0070
     24 O           6.7215   -5.0434   30.6122 O.2     1  UNL1       -0.1687
     25 O           9.5214   -4.6431   31.6122 O.2     1  UNL1       -0.1687
     26 C           9.4765   -7.0564   31.2394 C.3     1  UNL1        0.0257
     27 C           8.5246   -6.1562   30.5090 C.3     1  UNL1        0.1339
     28 C           7.9758   -6.5689   29.1753 C.3     1  UNL1        0.0257
     29 O           6.5087    0.4082   33.5249 O.3     1  UNL1       -0.4702
     30 C           6.6317    0.6231   35.0043 C.3     1  UNL1        0.2599
     31 C           7.8335    1.3258   35.5628 C.3     1  UNL1        0.0566
     32 C           5.5529    0.1354   35.9253 C.3     1  UNL1        0.4340
     33 F           4.4740   -0.3522   36.8464 F       1  UNL1       -0.1664
     34 F           6.5596   -0.6949   36.6649 F       1  UNL1       -0.1664
     35 F           4.5462    0.9658   35.1858 F       1  UNL1       -0.1664
@<TRIPOS>BOND
     1    26    27    1
     2    27    28    1
     3    27    23    1
     4    23    24    2
     5    23    25    2
     6    23     1    1
     7     1     2   ar
     8     2     3   ar
     9     3     4   ar
    10     4    29    1
    11    29    30    1
    12    30    31    1
    13    30    32    1
    14    32    33    1
    15    32    34    1
    16    32    35    1
    17     4     5   ar
    18     5     7    1
    19     7     8    2
    20     7     9   am
    21     9    10    1
    22    10    11    1
    23    11    12   ar
    24    12    13   ar
    25    13    17    1
    26    17    18   ar
    27    18    19   ar
    28    19    20   ar
    29    20    21   ar
    30    21    22   ar
    31    13    14   ar
    32    14    15   ar
    33    15    16    1
    34     5     6   ar
    35     6     1   ar
    36    16     9    1
    37    15    11   ar
    38    22    17   ar
