@<TRIPOS>MOLECULE
*****
 36 39 0 0 0
SMALL
GASTEIGER

@<TRIPOS>ATOM
      1 N         -13.3296   -3.3883   19.4473 N.am    1  UNL1       -0.2734
      2 C         -12.3039   -4.4826   19.4697 C.2     1  UNL1        0.2438
      3 O         -12.6813   -5.8546   19.9443 O.2     1  UNL1       -0.2731
      4 C         -10.9009   -4.2049   19.0176 C.3     1  UNL1        0.1488
      5 N         -10.5236   -2.8329   18.5431 N.am    1  UNL1       -0.2970
      6 C         -11.5492   -1.7386   18.5206 C.2     1  UNL1        0.2389
      7 O         -11.1719   -0.3666   18.0461 O.2     1  UNL1       -0.2734
      8 C         -12.9523   -2.0163   18.9728 C.3     1  UNL1        0.1314
      9 C         -14.3553   -2.2940   19.4249 C.3     1  UNL1        0.0445
     10 C         -15.3809   -1.1997   19.4025 C.3     1  UNL1        0.0745
     11 N         -15.0035    0.1723   18.9279 N.3     1  UNL1       -0.2688
     12 C         -13.6006    0.4500   18.4758 C.3     1  UNL1        0.0745
     13 C         -12.5749   -0.6443   18.4982 C.3     1  UNL1        0.0445
     14 H          -9.6027   -2.6506   18.2463 H       1  UNL1        0.1499
     15 C         -14.7326   -3.6660   19.8994 C.3     1  UNL1        0.0938
     16 C         -15.6306   -4.5336   19.0683 C.3     1  UNL1        0.0215
     17 C         -15.9163   -7.1087   19.2616 C.3     1  UNL1        0.0001
     18 C         -16.3049   -5.7231   19.6850 C.3     1  UNL1        0.0018
     19 C          -9.8752   -5.2992   19.0400 C.3     1  UNL1        0.0290
     20 C         -10.0245   -6.4857   18.1346 C.3     1  UNL1        0.0021
     21 C          -9.4768   -7.8191   18.5493 C.3     1  UNL1        0.0001
     22 C         -10.7215   -6.3388   16.8145 C.3     1  UNL1        0.0001
     23 C         -16.0293    1.2666   18.9055 C.3     1  UNL1        0.0992
     24 C         -16.3361    2.0328   20.1580 C.ar    1  UNL1       -0.0059
     25 C         -15.8104    3.4267   20.3324 C.ar    1  UNL1        0.0002
     26 C         -16.1172    4.1929   21.5850 C.ar    1  UNL1        0.0372
     27 C         -16.9498    3.5650   22.6631 C.ar    1  UNL1        0.1453
     28 C         -17.4756    2.1710   22.4888 C.ar    1  UNL1        0.0372
     29 C         -17.1688    1.4049   21.2363 C.ar    1  UNL1        0.0002
     30 O         -17.2567    4.3311   23.9157 O.3     1  UNL1       -0.4535
     31 C         -16.1804    5.1302   24.5887 C.ar    1  UNL1        0.1453
     32 C         -16.3568    6.6061   24.7899 C.ar    1  UNL1        0.0375
     33 C         -15.2805    7.4053   25.4629 C.ar    1  UNL1        0.0031
     34 C         -14.0278    6.7285   25.9349 C.ar    1  UNL1        0.0002
     35 C         -13.8514    5.2525   25.7337 C.ar    1  UNL1        0.0031
     36 C         -14.9277    4.4533   25.0607 C.ar    1  UNL1        0.0375
@<TRIPOS>BOND
     1    17    18    1
     2    18    16    1
     3    16    15    1
     4    15     1    1
     5     1     2   am
     6     2     3    2
     7     2     4    1
     8     4    19    1
     9    19    20    1
    10    20    21    1
    11    20    22    1
    12     4     5    1
    13     5     6   am
    14     6     7    2
    15     6     8    1
    16     8     9    1
    17     9    10    1
    18    10    11    1
    19    11    23    1
    20    23    24    1
    21    24    25   ar
    22    25    26   ar
    23    26    27   ar
    24    27    30    1
    25    30    31    1
    26    31    32   ar
    27    32    33   ar
    28    33    34   ar
    29    34    35   ar
    30    35    36   ar
    31    27    28   ar
    32    28    29   ar
    33    11    12    1
    34    12    13    1
    35     8     1    1
    36    29    24   ar
    37    13     8    1
    38    36    31   ar
    39     5    14    1
@<TRIPOS>MOLECULE
*****
 36 39 0 0 0
SMALL
GASTEIGER

@<TRIPOS>ATOM
      1 N           6.6545   -3.7548   26.5136 N.am    1  UNL1       -0.2734
      2 C           6.4626   -3.9038   27.9938 C.2     1  UNL1        0.2438
      3 O           5.9440   -2.7518   28.8025 O.2     1  UNL1       -0.2731
      4 C           6.7891   -5.2047   28.6652 C.3     1  UNL1        0.1488
      5 N           7.3077   -6.3567   27.8565 N.am    1  UNL1       -0.2970
      6 C           7.4997   -6.2078   26.3763 C.2     1  UNL1        0.2389
      7 O           8.0182   -7.3597   25.5676 O.2     1  UNL1       -0.2734
      8 C           7.1731   -4.9068   25.7048 C.3     1  UNL1        0.1314
      9 C           6.8465   -3.6058   25.0334 C.3     1  UNL1        0.0445
     10 C           7.0385   -3.4568   23.5532 C.3     1  UNL1        0.0745
     11 N           7.5571   -4.6088   22.7445 N.3     1  UNL1       -0.2688
     12 C           7.8837   -5.9098   23.4159 C.3     1  UNL1        0.0745
     13 C           7.6917   -6.0587   24.8961 C.3     1  UNL1        0.0445
     14 H           7.5220   -7.2106   28.2972 H       1  UNL1        0.1499
     15 C           6.3280   -2.4538   25.8421 C.3     1  UNL1        0.0938
     16 C           4.9205   -1.9355   25.8555 C.3     1  UNL1        0.0215
     17 C           3.9016   -1.4087   23.5244 C.3     1  UNL1        0.0001
     18 C           4.4788   -0.9377   24.8263 C.3     1  UNL1        0.0018
     19 C           6.5971   -5.3538   30.1454 C.3     1  UNL1        0.0290
     20 C           7.5356   -4.6713   31.0959 C.3     1  UNL1        0.0021
     21 C           8.9992   -4.9987   31.0694 C.3     1  UNL1        0.0001
     22 C           7.0106   -3.6615   32.0729 C.3     1  UNL1        0.0001
     23 C           7.7491   -4.4598   21.2643 C.3     1  UNL1        0.0992
     24 C           6.7764   -3.6496   20.4597 C.ar    1  UNL1       -0.0059
     25 C           7.0893   -2.2223   20.1205 C.ar    1  UNL1        0.0002
     26 C           6.1165   -1.4121   19.3158 C.ar    1  UNL1        0.0372
     27 C           4.8311   -2.0292   18.8504 C.ar    1  UNL1        0.1453
     28 C           4.5182   -3.4565   19.1895 C.ar    1  UNL1        0.0372
     29 C           5.4909   -4.2667   19.9941 C.ar    1  UNL1        0.0002
     30 O           3.8584   -1.2190   18.0457 O.3     1  UNL1       -0.4535
     31 C           2.7716   -0.4494   18.7362 C.ar    1  UNL1        0.1453
     32 C           2.4036    0.9232   18.2563 C.ar    1  UNL1        0.0375
     33 C           1.3168    1.6928   18.9467 C.ar    1  UNL1        0.0031
     34 C           0.5981    1.0897   20.1170 C.ar    1  UNL1        0.0002
     35 C           0.9661   -0.2830   20.5970 C.ar    1  UNL1        0.0031
     36 C           2.0529   -1.0526   19.9065 C.ar    1  UNL1        0.0375
@<TRIPOS>BOND
     1    17    18    1
     2    18    16    1
     3    16    15    1
     4    15     1    1
     5     1     2   am
     6     2     3    2
     7     2     4    1
     8     4    19    1
     9    19    20    1
    10    20    21    1
    11    20    22    1
    12     4     5    1
    13     5     6   am
    14     6     7    2
    15     6     8    1
    16     8     9    1
    17     9    10    1
    18    10    11    1
    19    11    23    1
    20    23    24    1
    21    24    25   ar
    22    25    26   ar
    23    26    27   ar
    24    27    30    1
    25    30    31    1
    26    31    32   ar
    27    32    33   ar
    28    33    34   ar
    29    34    35   ar
    30    35    36   ar
    31    27    28   ar
    32    28    29   ar
    33    11    12    1
    34    12    13    1
    35     8     1    1
    36    29    24   ar
    37    13     8    1
    38    36    31   ar
    39     5    14    1
@<TRIPOS>MOLECULE
*****
 36 39 0 0 0
SMALL
GASTEIGER

@<TRIPOS>ATOM
      1 N           4.0010   -0.0126   33.9521 N.am    1  UNL1       -0.2734
      2 C           4.4371    0.3277   35.3465 C.2     1  UNL1        0.2438
      3 O           5.4201   -0.5519   36.0606 O.2     1  UNL1       -0.2731
      4 C           3.8903    1.5477   36.0266 C.3     1  UNL1        0.1488
      5 N           2.9074    2.4274   35.3124 N.am    1  UNL1       -0.2970
      6 C           2.4712    2.0871   33.9182 C.2     1  UNL1        0.2389
      7 O           1.4883    2.9668   33.2041 O.2     1  UNL1       -0.2734
      8 C           3.0181    0.8671   33.2380 C.3     1  UNL1        0.1314
      9 C           3.5649   -0.3529   32.5579 C.3     1  UNL1        0.0445
     10 C           3.1288   -0.6932   31.1637 C.3     1  UNL1        0.0745
     11 N           2.1458    0.1865   30.4495 N.3     1  UNL1       -0.2688
     12 C           1.5990    1.4065   31.1296 C.3     1  UNL1        0.0745
     13 C           2.0351    1.7468   32.5239 C.3     1  UNL1        0.0445
     14 H           2.5485    3.2281   35.7588 H       1  UNL1        0.1499
     15 C           4.5478   -1.2326   33.2720 C.3     1  UNL1        0.0938
     16 C           6.0303   -1.4091   33.1265 C.3     1  UNL1        0.0215
     17 C           6.5502   -3.7405   32.1047 C.3     1  UNL1        0.0001
     18 C           6.5799   -2.2439   32.0081 C.3     1  UNL1        0.0018
     19 C           4.3264    1.8881   37.4209 C.3     1  UNL1        0.0290
     20 C           3.3024    2.1021   38.4958 C.3     1  UNL1        0.0021
     21 C           3.2402    3.4132   39.2219 C.3     1  UNL1        0.0001
     22 C           2.3405    1.0052   38.8446 C.3     1  UNL1        0.0001
     23 C           1.7097   -0.1538   29.0552 C.3     1  UNL1        0.0992
     24 C           1.0368    0.8831   28.2057 C.ar    1  UNL1       -0.0059
     25 C           1.8584    1.9088   27.4825 C.ar    1  UNL1        0.0002
     26 C           1.1853    2.9458   26.6330 C.ar    1  UNL1        0.0372
     27 C          -0.3093    2.9572   26.5067 C.ar    1  UNL1        0.1453
     28 C          -1.1309    1.9315   27.2299 C.ar    1  UNL1        0.0372
     29 C          -0.4579    0.8945   28.0794 C.ar    1  UNL1        0.0002
     30 O          -0.9823    3.9942   25.6572 O.3     1  UNL1       -0.4535
     31 C          -2.4742    3.9834   25.5016 C.ar    1  UNL1        0.1453
     32 C          -3.0986    3.3329   24.3029 C.ar    1  UNL1        0.0375
     33 C          -4.5904    3.3221   24.1473 C.ar    1  UNL1        0.0031
     34 C          -5.4579    3.9619   25.1905 C.ar    1  UNL1        0.0002
     35 C          -4.8335    4.6124   26.3893 C.ar    1  UNL1        0.0031
     36 C          -3.3416    4.6232   26.5448 C.ar    1  UNL1        0.0375
@<TRIPOS>BOND
     1    17    18    1
     2    18    16    1
     3    16    15    1
     4    15     1    1
     5     1     2   am
     6     2     3    2
     7     2     4    1
     8     4    19    1
     9    19    20    1
    10    20    21    1
    11    20    22    1
    12     4     5    1
    13     5     6   am
    14     6     7    2
    15     6     8    1
    16     8     9    1
    17     9    10    1
    18    10    11    1
    19    11    23    1
    20    23    24    1
    21    24    25   ar
    22    25    26   ar
    23    26    27   ar
    24    27    30    1
    25    30    31    1
    26    31    32   ar
    27    32    33   ar
    28    33    34   ar
    29    34    35   ar
    30    35    36   ar
    31    27    28   ar
    32    28    29   ar
    33    11    12    1
    34    12    13    1
    35     8     1    1
    36    29    24   ar
    37    13     8    1
    38    36    31   ar
    39     5    14    1
@<TRIPOS>MOLECULE
*****
 36 39 0 0 0
SMALL
GASTEIGER

@<TRIPOS>ATOM
      1 N          -4.1206    4.0215   21.6004 N.am    1  UNL1       -0.2734
      2 C          -5.0640    4.0906   22.7647 C.2     1  UNL1        0.2438
      3 O          -6.5220    4.3567   22.5337 O.2     1  UNL1       -0.2731
      4 C          -4.5493    3.8936   24.1597 C.3     1  UNL1        0.1488
      5 N          -3.0913    3.6274   24.3907 N.am    1  UNL1       -0.2970
      6 C          -2.1479    3.5583   23.2265 C.2     1  UNL1        0.2389
      7 O          -0.6899    3.2922   23.4575 O.2     1  UNL1       -0.2734
      8 C          -2.6626    3.7553   21.8314 C.3     1  UNL1        0.1314
      9 C          -3.1773    3.9523   20.4363 C.3     1  UNL1        0.0445
     10 C          -2.2339    3.8832   19.2722 C.3     1  UNL1        0.0745
     11 N          -0.7759    3.6171   19.5031 N.3     1  UNL1       -0.2688
     12 C          -0.2612    3.4201   20.8982 C.3     1  UNL1        0.0745
     13 C          -1.2046    3.4892   22.0623 C.3     1  UNL1        0.0445
     14 H          -2.7535    3.4981   25.3063 H       1  UNL1        0.1499
     15 C          -4.6353    4.2185   20.2054 C.3     1  UNL1        0.0938
     16 C          -5.6492    3.2692   19.6390 C.3     1  UNL1        0.0215
     17 C          -6.4745    5.0122   17.8980 C.3     1  UNL1        0.0001
     18 C          -6.7141    3.7749   18.7116 C.3     1  UNL1        0.0018
     19 C          -5.4927    3.9627   25.3240 C.3     1  UNL1        0.0290
     20 C          -5.6526    5.2456   26.0846 C.3     1  UNL1        0.0021
     21 C          -6.8500    6.1162   25.8434 C.3     1  UNL1        0.0001
     22 C          -4.6151    5.6579   27.0864 C.3     1  UNL1        0.0001
     23 C           0.1675    3.5480   18.3389 C.3     1  UNL1        0.0992
     24 C           1.3387    2.6116   18.3772 C.ar    1  UNL1       -0.0059
     25 C           2.7334    3.1580   18.4579 C.ar    1  UNL1        0.0002
     26 C           3.9046    2.2215   18.4962 C.ar    1  UNL1        0.0372
     27 C           3.6812    0.7389   18.4537 C.ar    1  UNL1        0.1453
     28 C           2.2865    0.1926   18.3730 C.ar    1  UNL1        0.0372
     29 C           1.1153    1.1289   18.3347 C.ar    1  UNL1        0.0002
     30 O           4.8524   -0.1974   18.4920 O.3     1  UNL1       -0.4535
     31 C           4.7081   -1.5539   19.1157 C.ar    1  UNL1        0.1453
     32 C           4.4734   -1.6796   20.5919 C.ar    1  UNL1        0.0375
     33 C           4.3291   -3.0361   21.2156 C.ar    1  UNL1        0.0031
     34 C           4.4194   -4.2670   20.3631 C.ar    1  UNL1        0.0002
     35 C           4.6541   -4.1414   18.8869 C.ar    1  UNL1        0.0031
     36 C           4.7985   -2.7848   18.2632 C.ar    1  UNL1        0.0375
@<TRIPOS>BOND
     1    17    18    1
     2    18    16    1
     3    16    15    1
     4    15     1    1
     5     1     2   am
     6     2     3    2
     7     2     4    1
     8     4    19    1
     9    19    20    1
    10    20    21    1
    11    20    22    1
    12     4     5    1
    13     5     6   am
    14     6     7    2
    15     6     8    1
    16     8     9    1
    17     9    10    1
    18    10    11    1
    19    11    23    1
    20    23    24    1
    21    24    25   ar
    22    25    26   ar
    23    26    27   ar
    24    27    30    1
    25    30    31    1
    26    31    32   ar
    27    32    33   ar
    28    33    34   ar
    29    34    35   ar
    30    35    36   ar
    31    27    28   ar
    32    28    29   ar
    33    11    12    1
    34    12    13    1
    35     8     1    1
    36    29    24   ar
    37    13     8    1
    38    36    31   ar
    39     5    14    1
@<TRIPOS>MOLECULE
*****
 36 39 0 0 0
SMALL
GASTEIGER

@<TRIPOS>ATOM
      1 N          -3.8462    3.9833   22.9170 N.am    1  UNL1       -0.2734
      2 C          -5.1653    4.1627   23.6082 C.2     1  UNL1        0.2438
      3 O          -5.2133    4.3483   25.0959 O.2     1  UNL1       -0.2731
      4 C          -6.4364    4.1565   22.8118 C.3     1  UNL1        0.1488
      5 N          -6.3884    3.9709   21.3241 N.am    1  UNL1       -0.2970
      6 C          -5.0694    3.7915   20.6328 C.2     1  UNL1        0.2389
      7 O          -5.0214    3.6058   19.1451 O.2     1  UNL1       -0.2734
      8 C          -3.7982    3.7977   21.4293 C.3     1  UNL1        0.1314
      9 C          -2.5272    3.8038   22.2257 C.3     1  UNL1        0.0445
     10 C          -1.2081    3.6244   21.5344 C.3     1  UNL1        0.0745
     11 N          -1.1602    3.4388   20.0467 N.3     1  UNL1       -0.2688
     12 C          -2.4312    3.4326   19.2503 C.3     1  UNL1        0.0745
     13 C          -3.7503    3.6120   19.9416 C.3     1  UNL1        0.0445
     14 H          -7.2227    3.9668   20.8014 H       1  UNL1        0.1499
     15 C          -2.5751    3.9895   23.7134 C.3     1  UNL1        0.0938
     16 C          -2.4874    3.2102   24.9920 C.3     1  UNL1        0.0215
     17 C          -0.1796    2.0373   24.7721 C.3     1  UNL1        0.0001
     18 C          -1.1468    2.8626   25.5681 C.3     1  UNL1        0.0018
     19 C          -7.7555    4.3359   23.5031 C.3     1  UNL1        0.0290
     20 C          -8.1924    5.7020   23.9423 C.3     1  UNL1        0.0021
     21 C          -9.3466    5.8521   24.8884 C.3     1  UNL1        0.0001
     22 C          -7.4751    6.9179   23.4354 C.3     1  UNL1        0.0001
     23 C           0.1590    3.2594   19.3554 C.3     1  UNL1        0.0992
     24 C           0.8804    1.9473   19.4451 C.ar    1  UNL1       -0.0059
     25 C           0.2201    0.7718   20.1025 C.ar    1  UNL1        0.0002
     26 C           0.9416   -0.5403   20.1922 C.ar    1  UNL1        0.0372
     27 C           2.3233   -0.6768   19.6246 C.ar    1  UNL1        0.1453
     28 C           2.9836    0.4988   18.9672 C.ar    1  UNL1        0.0372
     29 C           2.2621    1.8108   18.8775 C.ar    1  UNL1        0.0002
     30 O           3.0447   -1.9888   19.7143 O.3     1  UNL1       -0.4535
     31 C           3.7685   -2.3621   20.9740 C.ar    1  UNL1        0.1453
     32 C           3.5634   -1.5578   22.2233 C.ar    1  UNL1        0.0375
     33 C           4.2871   -1.9311   23.4830 C.ar    1  UNL1        0.0031
     34 C           5.2161   -3.1088   23.4933 C.ar    1  UNL1        0.0002
     35 C           5.4212   -3.9132   22.2439 C.ar    1  UNL1        0.0031
     36 C           4.6975   -3.5399   20.9842 C.ar    1  UNL1        0.0375
@<TRIPOS>BOND
     1    17    18    1
     2    18    16    1
     3    16    15    1
     4    15     1    1
     5     1     2   am
     6     2     3    2
     7     2     4    1
     8     4    19    1
     9    19    20    1
    10    20    21    1
    11    20    22    1
    12     4     5    1
    13     5     6   am
    14     6     7    2
    15     6     8    1
    16     8     9    1
    17     9    10    1
    18    10    11    1
    19    11    23    1
    20    23    24    1
    21    24    25   ar
    22    25    26   ar
    23    26    27   ar
    24    27    30    1
    25    30    31    1
    26    31    32   ar
    27    32    33   ar
    28    33    34   ar
    29    34    35   ar
    30    35    36   ar
    31    27    28   ar
    32    28    29   ar
    33    11    12    1
    34    12    13    1
    35     8     1    1
    36    29    24   ar
    37    13     8    1
    38    36    31   ar
    39     5    14    1
@<TRIPOS>MOLECULE
*****
 36 39 0 0 0
SMALL
GASTEIGER

@<TRIPOS>ATOM
      1 N           4.5099   -2.0476   20.3994 N.am    1  UNL1       -0.2734
      2 C           3.5248   -1.2972   19.5528 C.2     1  UNL1        0.2438
      3 O           3.6298   -1.3472   18.0573 O.2     1  UNL1       -0.2731
      4 C           2.4347   -0.4968   20.2017 C.3     1  UNL1        0.1488
      5 N           2.3297   -0.4468   21.6972 N.am    1  UNL1       -0.2970
      6 C           3.3147   -1.1971   22.5438 C.2     1  UNL1        0.2389
      7 O           3.2097   -1.1470   24.0392 O.2     1  UNL1       -0.2734
      8 C           4.4049   -1.9975   21.8948 C.3     1  UNL1        0.1314
      9 C           5.4949   -2.7979   21.2459 C.3     1  UNL1        0.0445
     10 C           6.4800   -3.5482   22.0925 C.3     1  UNL1        0.0745
     11 N           6.3749   -3.4981   23.5880 N.3     1  UNL1       -0.2688
     12 C           5.2849   -2.6978   24.2369 C.3     1  UNL1        0.0745
     13 C           4.2999   -1.9475   23.3903 C.3     1  UNL1        0.0445
     14 H           1.6142    0.0785   22.1231 H       1  UNL1        0.1499
     15 C           5.6000   -2.8479   19.7504 C.3     1  UNL1        0.0938
     16 C           5.2897   -3.7176   18.5683 C.3     1  UNL1        0.0215
     17 C           3.2064   -5.0469   19.3699 C.3     1  UNL1        0.0001
     18 C           4.5784   -5.0236   18.7641 C.3     1  UNL1        0.0018
     19 C           1.4496    0.2535   19.3552 C.3     1  UNL1        0.0290
     20 C           1.6791    1.7027   19.0437 C.3     1  UNL1        0.0021
     21 C           3.0472    2.1786   18.6541 C.3     1  UNL1        0.0001
     22 C           0.5405    2.6761   19.1218 C.3     1  UNL1        0.0001
     23 C           7.3601   -4.2485   24.4345 C.3     1  UNL1        0.0992
     24 C           7.3538   -4.0751   25.9244 C.ar    1  UNL1       -0.0059
     25 C           6.5663   -5.0173   26.7859 C.ar    1  UNL1        0.0002
     26 C           6.5601   -4.8439   28.2758 C.ar    1  UNL1        0.0372
     27 C           7.3413   -3.7283   28.9043 C.ar    1  UNL1        0.1453
     28 C           8.1288   -2.7860   28.0429 C.ar    1  UNL1        0.0372
     29 C           8.1351   -2.9594   26.5530 C.ar    1  UNL1        0.0002
     30 O           7.3351   -3.5549   30.3942 O.3     1  UNL1       -0.4535
     31 C           6.2361   -2.7758   31.0540 C.ar    1  UNL1        0.1453
     32 C           5.8229   -3.1039   32.4581 C.ar    1  UNL1        0.0375
     33 C           4.7239   -2.3248   33.1179 C.ar    1  UNL1        0.0031
     34 C           4.0383   -1.2176   32.3736 C.ar    1  UNL1        0.0002
     35 C           4.4515   -0.8895   30.9695 C.ar    1  UNL1        0.0031
     36 C           5.5505   -1.6686   30.3096 C.ar    1  UNL1        0.0375
@<TRIPOS>BOND
     1    17    18    1
     2    18    16    1
     3    16    15    1
     4    15     1    1
     5     1     2   am
     6     2     3    2
     7     2     4    1
     8     4    19    1
     9    19    20    1
    10    20    21    1
    11    20    22    1
    12     4     5    1
    13     5     6   am
    14     6     7    2
    15     6     8    1
    16     8     9    1
    17     9    10    1
    18    10    11    1
    19    11    23    1
    20    23    24    1
    21    24    25   ar
    22    25    26   ar
    23    26    27   ar
    24    27    30    1
    25    30    31    1
    26    31    32   ar
    27    32    33   ar
    28    33    34   ar
    29    34    35   ar
    30    35    36   ar
    31    27    28   ar
    32    28    29   ar
    33    11    12    1
    34    12    13    1
    35     8     1    1
    36    29    24   ar
    37    13     8    1
    38    36    31   ar
    39     5    14    1
@<TRIPOS>MOLECULE
*****
 36 39 0 0 0
SMALL
GASTEIGER

@<TRIPOS>ATOM
      1 N         -13.0977   -3.2236   19.1853 N.am    1  UNL1       -0.2734
      2 C         -12.1415   -4.3793   19.1751 C.2     1  UNL1        0.2438
      3 O         -10.6687   -4.1330   19.0329 O.2     1  UNL1       -0.2731
      4 C         -12.6582   -5.7813   19.3072 C.3     1  UNL1        0.1488
      5 N         -14.1309   -6.0276   19.4494 N.am    1  UNL1       -0.2970
      6 C         -15.0871   -4.8719   19.4596 C.2     1  UNL1        0.2389
      7 O         -16.5599   -5.1183   19.6018 O.2     1  UNL1       -0.2734
      8 C         -14.5705   -3.4699   19.3276 C.3     1  UNL1        0.1314
      9 C         -14.0538   -2.0679   19.1955 C.3     1  UNL1        0.0445
     10 C         -15.0100   -0.9122   19.2057 C.3     1  UNL1        0.0745
     11 N         -16.4828   -1.1585   19.3480 N.3     1  UNL1       -0.2688
     12 C         -16.9994   -2.5605   19.4800 C.3     1  UNL1        0.0745
     13 C         -16.0433   -3.7162   19.4698 C.3     1  UNL1        0.0445
     14 H         -14.4700   -6.9478   19.5361 H       1  UNL1        0.1499
     15 C         -12.5810   -1.8216   19.0533 C.3     1  UNL1        0.0938
     16 C         -11.1681   -1.5815   18.6107 C.3     1  UNL1        0.0215
     17 C         -10.3472   -1.9227   16.1695 C.3     1  UNL1        0.0001
     18 C         -10.8940   -1.0294   17.2433 C.3     1  UNL1        0.0018
     19 C         -11.7020   -6.9371   19.2970 C.3     1  UNL1        0.0290
     20 C         -10.8924   -7.2299   18.0687 C.3     1  UNL1        0.0021
     21 C          -9.4325   -7.5513   18.1918 C.3     1  UNL1        0.0001
     22 C         -11.5428   -7.2012   16.7173 C.3     1  UNL1        0.0001
     23 C         -17.4389   -0.0028   19.3582 C.3     1  UNL1        0.0992
     24 C         -17.0532    1.2839   20.0258 C.ar    1  UNL1       -0.0059
     25 C         -17.3859    1.5079   21.4712 C.ar    1  UNL1        0.0002
     26 C         -17.0001    2.7946   22.1388 C.ar    1  UNL1        0.0372
     27 C         -16.2818    3.8572   21.3611 C.ar    1  UNL1        0.1453
     28 C         -15.9491    3.6331   19.9157 C.ar    1  UNL1        0.0372
     29 C         -16.3348    2.3465   19.2481 C.ar    1  UNL1        0.0002
     30 O         -15.8960    5.1438   22.0287 O.3     1  UNL1       -0.4535
     31 C         -15.2415    5.1217   23.3782 C.ar    1  UNL1        0.1453
     32 C         -16.0675    5.3123   24.6157 C.ar    1  UNL1        0.0375
     33 C         -15.4130    5.2902   25.9651 C.ar    1  UNL1        0.0031
     34 C         -13.9324    5.0775   26.0772 C.ar    1  UNL1        0.0002
     35 C         -13.1063    4.8869   24.8397 C.ar    1  UNL1        0.0031
     36 C         -13.7608    4.9090   23.4902 C.ar    1  UNL1        0.0375
@<TRIPOS>BOND
     1    17    18    1
     2    18    16    1
     3    16    15    1
     4    15     1    1
     5     1     2   am
     6     2     3    2
     7     2     4    1
     8     4    19    1
     9    19    20    1
    10    20    21    1
    11    20    22    1
    12     4     5    1
    13     5     6   am
    14     6     7    2
    15     6     8    1
    16     8     9    1
    17     9    10    1
    18    10    11    1
    19    11    23    1
    20    23    24    1
    21    24    25   ar
    22    25    26   ar
    23    26    27   ar
    24    27    30    1
    25    30    31    1
    26    31    32   ar
    27    32    33   ar
    28    33    34   ar
    29    34    35   ar
    30    35    36   ar
    31    27    28   ar
    32    28    29   ar
    33    11    12    1
    34    12    13    1
    35     8     1    1
    36    29    24   ar
    37    13     8    1
    38    36    31   ar
    39     5    14    1
@<TRIPOS>MOLECULE
*****
 36 39 0 0 0
SMALL
GASTEIGER

@<TRIPOS>ATOM
      1 N         -15.0239   -5.1543   18.8978 N.am    1  UNL1       -0.2734
      2 C         -14.0276   -6.2656   18.7470 C.2     1  UNL1        0.2438
      3 O         -14.4952   -7.6528   18.4200 O.2     1  UNL1       -0.2731
      4 C         -12.5638   -5.9895   18.9231 C.3     1  UNL1        0.1488
      5 N         -12.0962   -4.6023   19.2501 N.am    1  UNL1       -0.2970
      6 C         -13.0924   -3.4911   19.4009 C.2     1  UNL1        0.2389
      7 O         -12.6248   -2.1038   19.7279 O.2     1  UNL1       -0.2734
      8 C         -14.5563   -3.7671   19.2248 C.3     1  UNL1        0.1314
      9 C         -16.0201   -4.0431   19.0486 C.3     1  UNL1        0.0445
     10 C         -17.0163   -2.9319   19.1994 C.3     1  UNL1        0.0745
     11 N         -16.5486   -1.5447   19.5264 N.3     1  UNL1       -0.2688
     12 C         -15.0849   -1.2686   19.7026 C.3     1  UNL1        0.0745
     13 C         -14.0887   -2.3798   19.5517 C.3     1  UNL1        0.0445
     14 H         -11.1355   -4.4211   19.3657 H       1  UNL1        0.1499
     15 C         -16.4877   -5.4303   18.7216 C.3     1  UNL1        0.0938
     16 C         -17.2185   -6.2716   19.7257 C.3     1  UNL1        0.0215
     17 C         -17.5028   -8.8491   19.8852 C.3     1  UNL1        0.0001
     18 C         -17.9050   -7.5321   19.2904 C.3     1  UNL1        0.0018
     19 C         -11.5676   -7.1008   18.7723 C.3     1  UNL1        0.0290
     20 C         -10.1255   -6.7843   18.5073 C.3     1  UNL1        0.0021
     21 C          -9.7590   -5.7842   17.4512 C.3     1  UNL1        0.0001
     22 C          -9.0500   -7.4680   19.2984 C.3     1  UNL1        0.0001
     23 C         -17.5449   -0.4334   19.6772 C.3     1  UNL1        0.0992
     24 C         -17.1108    0.8939   20.2247 C.ar    1  UNL1       -0.0059
     25 C         -16.2760    1.8148   19.3850 C.ar    1  UNL1        0.0002
     26 C         -15.8419    3.1422   19.9326 C.ar    1  UNL1        0.0372
     27 C         -16.2426    3.5485   21.3198 C.ar    1  UNL1        0.1453
     28 C         -17.0774    2.6276   22.1594 C.ar    1  UNL1        0.0372
     29 C         -17.5115    1.3003   21.6119 C.ar    1  UNL1        0.0002
     30 O         -15.8085    4.8758   21.8673 O.3     1  UNL1       -0.4535
     31 C         -15.2396    4.9661   23.2522 C.ar    1  UNL1        0.1453
     32 C         -16.1477    5.2047   24.4220 C.ar    1  UNL1        0.0375
     33 C         -15.5788    5.2949   25.8070 C.ar    1  UNL1        0.0031
     34 C         -14.1017    5.1465   26.0222 C.ar    1  UNL1        0.0002
     35 C         -13.1936    4.9079   24.8524 C.ar    1  UNL1        0.0031
     36 C         -13.7625    4.8177   23.4674 C.ar    1  UNL1        0.0375
@<TRIPOS>BOND
     1    17    18    1
     2    18    16    1
     3    16    15    1
     4    15     1    1
     5     1     2   am
     6     2     3    2
     7     2     4    1
     8     4    19    1
     9    19    20    1
    10    20    21    1
    11    20    22    1
    12     4     5    1
    13     5     6   am
    14     6     7    2
    15     6     8    1
    16     8     9    1
    17     9    10    1
    18    10    11    1
    19    11    23    1
    20    23    24    1
    21    24    25   ar
    22    25    26   ar
    23    26    27   ar
    24    27    30    1
    25    30    31    1
    26    31    32   ar
    27    32    33   ar
    28    33    34   ar
    29    34    35   ar
    30    35    36   ar
    31    27    28   ar
    32    28    29   ar
    33    11    12    1
    34    12    13    1
    35     8     1    1
    36    29    24   ar
    37    13     8    1
    38    36    31   ar
    39     5    14    1
@<TRIPOS>MOLECULE
*****
 36 39 0 0 0
SMALL
GASTEIGER

@<TRIPOS>ATOM
      1 N           4.8468   -2.0769   20.6423 N.am    1  UNL1       -0.2734
      2 C           3.7935   -1.1591   20.0963 C.2     1  UNL1        0.2438
      3 O           3.7145   -0.9020   18.6206 O.2     1  UNL1       -0.2731
      4 C           2.8193   -0.4983   21.0259 C.3     1  UNL1        0.1488
      5 N           2.8983   -0.7554   22.5016 N.am    1  UNL1       -0.2970
      6 C           3.9515   -1.6732   23.0477 C.2     1  UNL1        0.2389
      7 O           4.0306   -1.9303   24.5233 O.2     1  UNL1       -0.2734
      8 C           4.9258   -2.3340   22.1180 C.3     1  UNL1        0.1314
      9 C           5.9001   -2.9948   21.1884 C.3     1  UNL1        0.0445
     10 C           6.9533   -3.9126   21.7345 C.3     1  UNL1        0.0745
     11 N           7.0323   -4.1696   23.2102 N.3     1  UNL1       -0.2688
     12 C           6.0581   -3.5089   24.1398 C.3     1  UNL1        0.0745
     13 C           5.0049   -2.5911   23.5937 C.3     1  UNL1        0.0445
     14 H           2.2589   -0.3217   23.1117 H       1  UNL1        0.1499
     15 C           5.8210   -2.7377   19.7127 C.3     1  UNL1        0.0938
     16 C           5.3214   -3.5082   18.5266 C.3     1  UNL1        0.0215
     17 C           3.1403   -4.7594   19.1803 C.3     1  UNL1        0.0001
     18 C           4.5701   -4.7908   18.7278 C.3     1  UNL1        0.0018
     19 C           1.7659    0.4196   20.4798 C.3     1  UNL1        0.0290
     20 C           2.0602    1.8802   20.3073 C.3     1  UNL1        0.0021
     21 C           1.8783    2.8231   21.4596 C.3     1  UNL1        0.0001
     22 C           2.5362    2.3980   18.9825 C.3     1  UNL1        0.0001
     23 C           8.0856   -5.0875   23.7562 C.3     1  UNL1        0.0992
     24 C           8.2207   -5.2766   25.2381 C.ar    1  UNL1       -0.0059
     25 C           7.4533   -6.3649   25.9283 C.ar    1  UNL1        0.0002
     26 C           7.5884   -6.5540   27.4103 C.ar    1  UNL1        0.0372
     27 C           8.4910   -5.6548   28.2019 C.ar    1  UNL1        0.1453
     28 C           9.2584   -4.5664   27.5116 C.ar    1  UNL1        0.0372
     29 C           9.1233   -4.3773   26.0297 C.ar    1  UNL1        0.0002
     30 O           8.6260   -5.8438   29.6837 O.3     1  UNL1       -0.4535
     31 C           8.2158   -4.7464   30.6203 C.ar    1  UNL1        0.1453
     32 C           6.7670   -4.3850   30.7634 C.ar    1  UNL1        0.0375
     33 C           6.3568   -3.2875   31.7000 C.ar    1  UNL1        0.0031
     34 C           7.3952   -2.5515   32.4936 C.ar    1  UNL1        0.0002
     35 C           8.8441   -2.9129   32.3506 C.ar    1  UNL1        0.0031
     36 C           9.2543   -4.0103   31.4139 C.ar    1  UNL1        0.0375
@<TRIPOS>BOND
     1    17    18    1
     2    18    16    1
     3    16    15    1
     4    15     1    1
     5     1     2   am
     6     2     3    2
     7     2     4    1
     8     4    19    1
     9    19    20    1
    10    20    21    1
    11    20    22    1
    12     4     5    1
    13     5     6   am
    14     6     7    2
    15     6     8    1
    16     8     9    1
    17     9    10    1
    18    10    11    1
    19    11    23    1
    20    23    24    1
    21    24    25   ar
    22    25    26   ar
    23    26    27   ar
    24    27    30    1
    25    30    31    1
    26    31    32   ar
    27    32    33   ar
    28    33    34   ar
    29    34    35   ar
    30    35    36   ar
    31    27    28   ar
    32    28    29   ar
    33    11    12    1
    34    12    13    1
    35     8     1    1
    36    29    24   ar
    37    13     8    1
    38    36    31   ar
    39     5    14    1
