@<TRIPOS>MOLECULE
*****
 33 37 0 0 0
SMALL
GASTEIGER

@<TRIPOS>ATOM
      1 C          -6.4094  -17.5318   22.7622 C.ar    1  UNL1        0.1213
      2 N          -7.7573  -17.5002   22.1047 N.ar    1  UNL1       -0.2233
      3 C          -8.0828  -18.4770   21.0139 C.ar    1  UNL1        0.1654
      4 C          -9.3175  -18.6844   20.1878 C.ar    1  UNL1        0.0569
      5 C          -9.0582  -19.8209   19.2438 C.ar    1  UNL1        0.1236
      6 N          -7.6632  -20.3158   19.4864 N.ar    1  UNL1       -0.1620
      7 N          -7.0603  -19.4853   20.5803 N.ar    1  UNL1       -0.2076
      8 C          -5.7124  -19.5168   21.2377 C.ar    1  UNL1        0.1404
      9 C          -5.3869  -18.5401   22.3286 C.ar    1  UNL1        0.1753
     10 C          -6.5719  -14.8278   27.2945 C.3     1  UNL1        0.1538
     11 N          -6.1586  -15.3121   25.9363 N.ar    1  UNL1       -0.2473
     12 C          -6.8238  -16.4019   25.1489 C.ar    1  UNL1        0.0983
     13 C          -6.0840  -16.5550   23.8530 C.ar    1  UNL1        0.0603
     14 C          -4.9616  -15.5600   23.8396 C.ar    1  UNL1        0.1232
     15 N          -5.0077  -14.7918   25.1271 N.ar    1  UNL1       -0.1675
     16 C         -10.5885  -17.8941   20.2882 C.ar    1  UNL1        0.0107
     17 C         -10.8204  -16.7274   19.3744 C.ar    1  UNL1        0.0210
     18 C         -12.0913  -15.9370   19.4747 C.ar    1  UNL1        0.1021
     19 N         -13.1304  -16.3134   20.4890 N.ar    1  UNL1       -0.2101
     20 C         -12.8985  -17.4800   21.4028 C.ar    1  UNL1        0.2248
     21 C         -11.6276  -18.2704   21.3024 C.ar    1  UNL1        0.0579
     22 O         -13.9376  -17.8564   22.4170 O.3     1  UNL1       -0.4640
     23 C         -13.5256  -18.2259   23.8112 C.3     1  UNL1        0.1678
     24 C         -13.8836  -18.5016   25.2415 C.3     1  UNL1        0.0473
     25 C         -12.4541  -18.5904   24.7956 C.3     1  UNL1        0.0473
     26 O          -4.0391  -18.5716   22.9860 O.3     1  UNL1       -0.4723
     27 C          -2.7972  -18.6415   22.1476 C.3     1  UNL1        0.2080
     28 C          -2.4202  -17.4866   21.2679 C.3     1  UNL1        0.0742
     29 C          -1.6930  -17.7317   19.9790 C.3     1  UNL1        0.0921
     30 C          -2.7602  -18.6992   19.5608 C.3     1  UNL1        0.0294
     31 C          -0.6258  -16.7641   20.3972 C.3     1  UNL1        0.0294
     32 O          -0.9657  -17.9767   18.6902 O.3     1  UNL1       -0.3866
     33 H          -1.4596  -18.6194   18.1574 H       1  UNL1        0.2102
@<TRIPOS>BOND
     1    10    11    1
     2    11    12   ar
     3    12    13   ar
     4    13     1    1
     5     1     2   ar
     6     2     3   ar
     7     3     4   ar
     8     4    16    1
     9    16    17   ar
    10    17    18   ar
    11    18    19   ar
    12    19    20   ar
    13    20    22    1
    14    22    23    1
    15    23    24    1
    16    24    25    1
    17    20    21   ar
    18     4     5   ar
    19     5     6   ar
    20     6     7   ar
    21     7     8   ar
    22     8     9   ar
    23     9    26    1
    24    26    27    1
    25    27    28    1
    26    28    29    1
    27    29    30    1
    28    29    31    1
    29    29    32    1
    30    13    14   ar
    31    14    15   ar
    32    15    11   ar
    33     9     1   ar
    34     7     3   ar
    35    21    16   ar
    36    25    23    1
    37    32    33    1
@<TRIPOS>MOLECULE
*****
 33 37 0 0 0
SMALL
GASTEIGER

@<TRIPOS>ATOM
      1 C           2.7467    0.2761   23.9953 C.ar    1  UNL1        0.1213
      2 N           2.9338   -0.0731   22.5485 N.ar    1  UNL1       -0.2233
      3 C           1.8775    0.2889   21.5470 C.ar    1  UNL1        0.1654
      4 C           1.7844    0.0761   20.0650 C.ar    1  UNL1        0.0569
      5 C           0.4834    0.6558   19.5943 C.ar    1  UNL1        0.1236
      6 N          -0.2275    1.2268   20.7853 N.ar    1  UNL1       -0.1620
      7 N           0.6341    1.0000   21.9922 N.ar    1  UNL1       -0.2076
      8 C           0.4470    1.3492   23.4389 C.ar    1  UNL1        0.1404
      9 C           1.5033    0.9872   24.4405 C.ar    1  UNL1        0.1753
     10 C           5.4918   -2.3234   27.6814 C.3     1  UNL1        0.1538
     11 N           5.0648   -1.2808   26.6912 N.ar    1  UNL1       -0.2473
     12 C           3.8354   -1.3306   25.8332 C.ar    1  UNL1        0.0983
     13 C           3.8030   -0.0859   24.9968 C.ar    1  UNL1        0.0603
     14 C           5.0125    0.7333   25.3378 C.ar    1  UNL1        0.1232
     15 N           5.7923   -0.0052   26.3850 N.ar    1  UNL1       -0.1675
     16 C           2.8118   -0.5980   19.2049 C.ar    1  UNL1        0.0107
     17 C           3.2174    0.0180   17.8987 C.ar    1  UNL1        0.0210
     18 C           4.2449   -0.6560   17.0385 C.ar    1  UNL1        0.1021
     19 N           4.8668   -1.9461   17.4844 N.ar    1  UNL1       -0.2101
     20 C           4.4612   -2.5621   18.7906 C.ar    1  UNL1        0.2248
     21 C           3.4337   -1.8881   19.6508 C.ar    1  UNL1        0.0579
     22 O           5.0831   -3.8522   19.2366 O.3     1  UNL1       -0.4640
     23 C           6.1013   -3.8526   20.3381 C.3     1  UNL1        0.1678
     24 C           6.4359   -3.7676   21.7978 C.3     1  UNL1        0.0473
     25 C           7.5302   -3.9384   20.7862 C.3     1  UNL1        0.0473
     26 O           1.3162    1.3364   25.8872 O.3     1  UNL1       -0.4723
     27 C          -0.0551    1.3084   26.4942 C.3     1  UNL1        0.2080
     28 C          -0.2273    1.5241   27.9686 C.3     1  UNL1        0.0742
     29 C           0.2433    0.4817   28.9391 C.3     1  UNL1        0.0921
     30 C          -0.9527   -0.3626   28.6121 C.3     1  UNL1        0.0294
     31 C           1.4393    1.3259   29.2661 C.3     1  UNL1        0.0294
     32 O           0.7138   -0.5608   29.9096 O.3     1  UNL1       -0.3866
     33 H           0.0861   -1.3002   29.9194 H       1  UNL1        0.2102
@<TRIPOS>BOND
     1    10    11    1
     2    11    12   ar
     3    12    13   ar
     4    13     1    1
     5     1     2   ar
     6     2     3   ar
     7     3     4   ar
     8     4    16    1
     9    16    17   ar
    10    17    18   ar
    11    18    19   ar
    12    19    20   ar
    13    20    22    1
    14    22    23    1
    15    23    24    1
    16    24    25    1
    17    20    21   ar
    18     4     5   ar
    19     5     6   ar
    20     6     7   ar
    21     7     8   ar
    22     8     9   ar
    23     9    26    1
    24    26    27    1
    25    27    28    1
    26    28    29    1
    27    29    30    1
    28    29    31    1
    29    29    32    1
    30    13    14   ar
    31    14    15   ar
    32    15    11   ar
    33     9     1   ar
    34     7     3   ar
    35    21    16   ar
    36    25    23    1
    37    32    33    1
@<TRIPOS>MOLECULE
*****
 33 37 0 0 0
SMALL
GASTEIGER

@<TRIPOS>ATOM
      1 C           2.6858    0.2778   23.9485 C.ar    1  UNL1        0.1213
      2 N           3.0378   -0.3331   22.6244 N.ar    1  UNL1       -0.2233
      3 C           2.1598   -0.0955   21.4317 C.ar    1  UNL1        0.1654
      4 C           2.2511   -0.5627   20.0092 C.ar    1  UNL1        0.0569
      5 C           1.0776   -0.0029   19.2612 C.ar    1  UNL1        0.1236
      6 N           0.2610    0.8102   20.2215 N.ar    1  UNL1       -0.1620
      7 N           0.9299    0.7530   21.5629 N.ar    1  UNL1       -0.2076
      8 C           0.5779    1.3640   22.8868 C.ar    1  UNL1        0.1404
      9 C           1.4558    1.1264   24.0796 C.ar    1  UNL1        0.1753
     10 C           5.2663   -2.1086   27.8888 C.3     1  UNL1        0.1538
     11 N           4.7499   -1.0567   26.9524 N.ar    1  UNL1       -0.2473
     12 C           3.8130   -1.2826   25.8030 C.ar    1  UNL1        0.0983
     13 C           3.5637    0.0402   25.1412 C.ar    1  UNL1        0.0603
     14 C           4.3466    1.0837   25.8817 C.ar    1  UNL1        0.1232
     15 N           5.0797    0.4058   27.0010 N.ar    1  UNL1       -0.1675
     16 C           3.3270   -1.4363   19.4355 C.ar    1  UNL1        0.0107
     17 C           3.3297   -2.9087   19.7217 C.ar    1  UNL1        0.0210
     18 C           4.4056   -3.7824   19.1480 C.ar    1  UNL1        0.1021
     19 N           5.4789   -3.1836   18.2880 N.ar    1  UNL1       -0.2101
     20 C           5.4762   -1.7111   18.0018 C.ar    1  UNL1        0.2248
     21 C           4.4003   -0.8374   18.5755 C.ar    1  UNL1        0.0579
     22 O           6.5495   -1.1123   17.1419 O.3     1  UNL1       -0.4640
     23 C           6.7684    0.3716   17.1402 C.3     1  UNL1        0.1678
     24 C           6.2431    1.7620   16.9378 C.3     1  UNL1        0.0473
     25 C           7.6729    1.5515   17.3398 C.3     1  UNL1        0.0473
     26 O           1.1038    1.7373   25.4036 O.3     1  UNL1       -0.4723
     27 C          -0.0228    1.1701   26.2155 C.3     1  UNL1        0.2080
     28 C          -0.1089    1.4607   27.6845 C.3     1  UNL1        0.0742
     29 C           0.2990    0.4162   28.6808 C.3     1  UNL1        0.0921
     30 C          -1.0809   -0.1698   28.6315 C.3     1  UNL1        0.0294
     31 C           1.6790    1.0022   28.7301 C.3     1  UNL1        0.0294
     32 O           0.7070   -0.6283   29.6771 O.3     1  UNL1       -0.3866
     33 H          -0.0464   -1.2107   29.8618 H       1  UNL1        0.2102
@<TRIPOS>BOND
     1    10    11    1
     2    11    12   ar
     3    12    13   ar
     4    13     1    1
     5     1     2   ar
     6     2     3   ar
     7     3     4   ar
     8     4    16    1
     9    16    17   ar
    10    17    18   ar
    11    18    19   ar
    12    19    20   ar
    13    20    22    1
    14    22    23    1
    15    23    24    1
    16    24    25    1
    17    20    21   ar
    18     4     5   ar
    19     5     6   ar
    20     6     7   ar
    21     7     8   ar
    22     8     9   ar
    23     9    26    1
    24    26    27    1
    25    27    28    1
    26    28    29    1
    27    29    30    1
    28    29    31    1
    29    29    32    1
    30    13    14   ar
    31    14    15   ar
    32    15    11   ar
    33     9     1   ar
    34     7     3   ar
    35    21    16   ar
    36    25    23    1
    37    32    33    1
@<TRIPOS>MOLECULE
*****
 33 37 0 0 0
SMALL
GASTEIGER

@<TRIPOS>ATOM
      1 C           5.9147   -3.0861   24.9703 C.ar    1  UNL1        0.1213
      2 N           4.9491   -2.3743   24.0696 N.ar    1  UNL1       -0.2233
      3 C           4.1095   -1.2533   24.6066 C.ar    1  UNL1        0.1654
      4 C           3.0794   -0.3734   23.9626 C.ar    1  UNL1        0.0569
      5 C           2.5686    0.5797   25.0022 C.ar    1  UNL1        0.1236
      6 N           3.2831    0.2888   26.2886 N.ar    1  UNL1       -0.1620
      7 N           4.2354   -0.8441   26.0441 N.ar    1  UNL1       -0.2076
      8 C           5.2009   -1.5558   26.9448 C.ar    1  UNL1        0.1404
      9 C           6.0406   -2.6769   26.4078 C.ar    1  UNL1        0.1753
     10 C           8.5902   -7.6230   24.5973 C.3     1  UNL1        0.1538
     11 N           7.9841   -6.2925   24.2619 N.ar    1  UNL1       -0.2473
     12 C           7.1471   -5.4490   25.1773 C.ar    1  UNL1        0.0983
     13 C           6.7543   -4.2071   24.4333 C.ar    1  UNL1        0.0603
     14 C           7.3486   -4.2831   23.0581 C.ar    1  UNL1        0.1232
     15 N           8.1086   -5.5719   22.9522 N.ar    1  UNL1       -0.1675
     16 C           2.6376   -0.4357   22.5305 C.ar    1  UNL1        0.0107
     17 C           1.3580    0.2249   22.1110 C.ar    1  UNL1        0.0210
     18 C           0.9161    0.1627   20.6788 C.ar    1  UNL1        0.1021
     19 N           1.7540   -0.5602   19.6663 N.ar    1  UNL1       -0.2101
     20 C           3.0337   -1.2208   20.0858 C.ar    1  UNL1        0.2248
     21 C           3.4755   -1.1586   21.5179 C.ar    1  UNL1        0.0579
     22 O           3.8715   -1.9437   19.0732 O.3     1  UNL1       -0.4640
     23 C           3.9030   -3.4433   19.0587 C.3     1  UNL1        0.1678
     24 C           3.2114   -4.7591   19.2597 C.3     1  UNL1        0.0473
     25 C           4.6490   -4.7249   18.8327 C.3     1  UNL1        0.0473
     26 O           7.0061   -3.3886   27.3085 O.3     1  UNL1       -0.4723
     27 C           6.5044   -4.1161   28.5205 C.3     1  UNL1        0.2080
     28 C           6.9059   -3.6564   29.8908 C.3     1  UNL1        0.0742
     29 C           6.7522   -4.5765   31.0654 C.3     1  UNL1        0.0921
     30 C           7.0238   -5.7549   30.1780 C.3     1  UNL1        0.0294
     31 C           6.4805   -3.3981   31.9529 C.3     1  UNL1        0.0294
     32 O           6.5985   -5.4966   32.2401 O.3     1  UNL1       -0.3866
     33 H           6.7310   -6.4133   31.9523 H       1  UNL1        0.2102
@<TRIPOS>BOND
     1    10    11    1
     2    11    12   ar
     3    12    13   ar
     4    13     1    1
     5     1     2   ar
     6     2     3   ar
     7     3     4   ar
     8     4    16    1
     9    16    17   ar
    10    17    18   ar
    11    18    19   ar
    12    19    20   ar
    13    20    22    1
    14    22    23    1
    15    23    24    1
    16    24    25    1
    17    20    21   ar
    18     4     5   ar
    19     5     6   ar
    20     6     7   ar
    21     7     8   ar
    22     8     9   ar
    23     9    26    1
    24    26    27    1
    25    27    28    1
    26    28    29    1
    27    29    30    1
    28    29    31    1
    29    29    32    1
    30    13    14   ar
    31    14    15   ar
    32    15    11   ar
    33     9     1   ar
    34     7     3   ar
    35    21    16   ar
    36    25    23    1
    37    32    33    1
@<TRIPOS>MOLECULE
*****
 33 37 0 0 0
SMALL
GASTEIGER

@<TRIPOS>ATOM
      1 C           3.1158    0.8342   32.6650 C.ar    1  UNL1        0.1213
      2 N           3.0349    1.8501   33.7658 N.ar    1  UNL1       -0.2233
      3 C           2.0306    2.9615   33.6883 C.ar    1  UNL1        0.1654
      4 C           1.7201    4.1000   34.6142 C.ar    1  UNL1        0.0569
      5 C           0.6047    4.8993   34.0083 C.ar    1  UNL1        0.1236
      6 N           0.2260    4.2548   32.7079 N.ar    1  UNL1       -0.1620
      7 N           1.1072    3.0572   32.5101 N.ar    1  UNL1       -0.2076
      8 C           1.1881    2.0414   31.4094 C.ar    1  UNL1        0.1404
      9 C           2.1924    0.9299   31.4868 C.ar    1  UNL1        0.1753
     10 C           7.4073   -2.1240   31.8211 C.3     1  UNL1        0.1538
     11 N           6.0927   -1.6370   32.3546 N.ar    1  UNL1       -0.2473
     12 C           5.4015   -0.3632   31.9675 C.ar    1  UNL1        0.0983
     13 C           4.1201   -0.2772   32.7425 C.ar    1  UNL1        0.0603
     14 C           4.0194   -1.4978   33.6085 C.ar    1  UNL1        0.1232
     15 N           5.2385   -2.3382   33.3688 N.ar    1  UNL1       -0.1675
     16 C           2.4047    4.3885   35.9173 C.ar    1  UNL1        0.0107
     17 C           3.2971    5.5873   36.0464 C.ar    1  UNL1        0.0210
     18 C           3.9818    5.8759   37.3495 C.ar    1  UNL1        0.1021
     19 N           3.7741    4.9657   38.5235 N.ar    1  UNL1       -0.2101
     20 C           2.8817    3.7669   38.3944 C.ar    1  UNL1        0.2248
     21 C           2.1970    3.4783   37.0914 C.ar    1  UNL1        0.0579
     22 O           2.6739    2.8567   39.5685 O.3     1  UNL1       -0.4640
     23 C           1.6904    1.7278   39.4774 C.3     1  UNL1        0.1678
     24 C           0.2940    1.2381   39.2325 C.3     1  UNL1        0.0473
     25 C           1.3835    0.2621   39.5647 C.3     1  UNL1        0.0473
     26 O           2.2733   -0.0859   30.3861 O.3     1  UNL1       -0.4723
     27 C           1.7407    0.2417   29.0226 C.3     1  UNL1        0.2080
     28 C           0.3879   -0.2551   28.6066 C.3     1  UNL1        0.0742
     29 C          -0.6486    0.7125   28.1174 C.3     1  UNL1        0.0921
     30 C          -1.6236    0.1768   29.1236 C.3     1  UNL1        0.0294
     31 C           0.3264    1.2481   27.1111 C.3     1  UNL1        0.0294
     32 O          -1.6851    1.6801   27.6281 O.3     1  UNL1       -0.3866
     33 H          -2.5030    1.5621   28.1361 H       1  UNL1        0.2102
@<TRIPOS>BOND
     1    10    11    1
     2    11    12   ar
     3    12    13   ar
     4    13     1    1
     5     1     2   ar
     6     2     3   ar
     7     3     4   ar
     8     4    16    1
     9    16    17   ar
    10    17    18   ar
    11    18    19   ar
    12    19    20   ar
    13    20    22    1
    14    22    23    1
    15    23    24    1
    16    24    25    1
    17    20    21   ar
    18     4     5   ar
    19     5     6   ar
    20     6     7   ar
    21     7     8   ar
    22     8     9   ar
    23     9    26    1
    24    26    27    1
    25    27    28    1
    26    28    29    1
    27    29    30    1
    28    29    31    1
    29    29    32    1
    30    13    14   ar
    31    14    15   ar
    32    15    11   ar
    33     9     1   ar
    34     7     3   ar
    35    21    16   ar
    36    25    23    1
    37    32    33    1
@<TRIPOS>MOLECULE
*****
 33 37 0 0 0
SMALL
GASTEIGER

@<TRIPOS>ATOM
      1 C           1.7187    0.5368   30.0772 C.ar    1  UNL1        0.1213
      2 N           1.9061    1.1751   31.4217 N.ar    1  UNL1       -0.2233
      3 C           3.0328    0.7366   32.3095 C.ar    1  UNL1        0.1654
      4 C           3.4641    1.1791   33.6764 C.ar    1  UNL1        0.0569
      5 C           4.6699    0.3757   34.0646 C.ar    1  UNL1        0.1236
      6 N           4.9838   -0.5632   32.9377 N.ar    1  UNL1       -0.1620
      7 N           3.9720   -0.3402   31.8530 N.ar    1  UNL1       -0.2076
      8 C           3.7846   -0.9785   30.5087 C.ar    1  UNL1        0.1404
      9 C           2.6579   -0.5400   29.6207 C.ar    1  UNL1        0.1753
     10 C          -1.1636    3.2780   26.6046 C.3     1  UNL1        0.1538
     11 N          -0.7328    2.2353   27.5932 N.ar    1  UNL1       -0.2473
     12 C           0.5914    2.1799   28.2955 C.ar    1  UNL1        0.0983
     13 C           0.5920    0.9753   29.1894 C.ar    1  UNL1        0.0603
     14 C          -0.7319    0.2862   29.0394 C.ar    1  UNL1        0.1232
     15 N          -1.5507    1.0649   28.0529 N.ar    1  UNL1       -0.1675
     16 C           2.8053    2.2388   34.5088 C.ar    1  UNL1        0.0107
     17 C           2.0710    3.3656   33.8446 C.ar    1  UNL1        0.0210
     18 C           1.4121    4.4254   34.6770 C.ar    1  UNL1        0.1021
     19 N           1.4876    4.3584   36.1736 N.ar    1  UNL1       -0.2101
     20 C           2.2220    3.2316   36.8377 C.ar    1  UNL1        0.2248
     21 C           2.8808    2.1718   36.0054 C.ar    1  UNL1        0.0579
     22 O           2.2975    3.1646   38.3343 O.3     1  UNL1       -0.4640
     23 C           1.6168    2.0488   39.0704 C.3     1  UNL1        0.1678
     24 C           1.5417    0.6002   39.4524 C.3     1  UNL1        0.0473
     25 C           0.5130    1.5650   39.9634 C.3     1  UNL1        0.0473
     26 O           2.4704   -1.1783   28.2763 O.3     1  UNL1       -0.4723
     27 C           3.3901   -0.8272   27.1446 C.3     1  UNL1        0.2080
     28 C           2.9849    0.2147   26.1445 C.3     1  UNL1        0.0742
     29 C           2.8650   -0.1452   24.6932 C.3     1  UNL1        0.0921
     30 C           1.8181    0.9145   24.5169 C.3     1  UNL1        0.0294
     31 C           3.9118   -1.2050   24.8696 C.3     1  UNL1        0.0294
     32 O           2.7451   -0.5051   23.2420 O.3     1  UNL1       -0.3866
     33 H           2.0810    0.0634   22.8217 H       1  UNL1        0.2102
@<TRIPOS>BOND
     1    10    11    1
     2    11    12   ar
     3    12    13   ar
     4    13     1    1
     5     1     2   ar
     6     2     3   ar
     7     3     4   ar
     8     4    16    1
     9    16    17   ar
    10    17    18   ar
    11    18    19   ar
    12    19    20   ar
    13    20    22    1
    14    22    23    1
    15    23    24    1
    16    24    25    1
    17    20    21   ar
    18     4     5   ar
    19     5     6   ar
    20     6     7   ar
    21     7     8   ar
    22     8     9   ar
    23     9    26    1
    24    26    27    1
    25    27    28    1
    26    28    29    1
    27    29    30    1
    28    29    31    1
    29    29    32    1
    30    13    14   ar
    31    14    15   ar
    32    15    11   ar
    33     9     1   ar
    34     7     3   ar
    35    21    16   ar
    36    25    23    1
    37    32    33    1
@<TRIPOS>MOLECULE
*****
 33 37 0 0 0
SMALL
GASTEIGER

@<TRIPOS>ATOM
      1 C           1.3128    3.5789   33.0191 C.ar    1  UNL1        0.1213
      2 N           1.1832    2.8938   31.6909 N.ar    1  UNL1       -0.2233
      3 C           1.8411    1.5648   31.4653 C.ar    1  UNL1        0.1654
      4 C           1.8879    0.6578   30.2714 C.ar    1  UNL1        0.0569
      5 C           2.7042   -0.5466   30.6360 C.ar    1  UNL1        0.1236
      6 N           3.1619   -0.3841   32.0551 N.ar    1  UNL1       -0.1620
      7 N           2.6285    0.9208   32.5677 N.ar    1  UNL1       -0.2076
      8 C           2.7580    1.6059   33.8958 C.ar    1  UNL1        0.1404
      9 C           2.1001    2.9349   34.1215 C.ar    1  UNL1        0.1753
     10 C          -2.3507    7.3486   33.5173 C.3     1  UNL1        0.1538
     11 N          -1.0290    6.6406   33.4738 N.ar    1  UNL1       -0.2473
     12 C          -0.8183    5.1836   33.1861 C.ar    1  UNL1        0.0983
     13 C           0.6549    4.9079   33.2448 C.ar    1  UNL1        0.0603
     14 C           1.3548    6.1944   33.5688 C.ar    1  UNL1        0.1232
     15 N           0.3141    7.2654   33.7103 N.ar    1  UNL1       -0.1675
     16 C           1.2333    0.9110   28.9457 C.ar    1  UNL1        0.0107
     17 C          -0.2364    1.2033   28.8787 C.ar    1  UNL1        0.0210
     18 C          -0.8911    1.4565   27.5530 C.ar    1  UNL1        0.1021
     19 N          -0.0760    1.4172   26.2944 N.ar    1  UNL1       -0.2101
     20 C           1.3937    1.1248   26.3615 C.ar    1  UNL1        0.2248
     21 C           2.0484    0.8717   27.6871 C.ar    1  UNL1        0.0579
     22 O           2.2088    1.0856   25.1029 O.3     1  UNL1       -0.4640
     23 C           3.0475   -0.1179   24.7897 C.3     1  UNL1        0.1678
     24 C           3.9023   -1.2611   25.2505 C.3     1  UNL1        0.0473
     25 C           3.6453   -1.0593   23.7865 C.3     1  UNL1        0.0473
     26 O           2.2297    3.6200   35.4496 O.3     1  UNL1       -0.4723
     27 C           2.8988    2.9176   36.5937 C.3     1  UNL1        0.2080
     28 C           2.2076    2.8200   37.9214 C.3     1  UNL1        0.0742
     29 C           2.2964    1.5547   38.7220 C.3     1  UNL1        0.0921
     30 C           3.5662    1.1933   38.0099 C.3     1  UNL1        0.0294
     31 C           1.0267    1.9161   39.4341 C.3     1  UNL1        0.0294
     32 O           2.3853    0.2893   39.5226 O.3     1  UNL1       -0.3866
     33 H           3.1786   -0.2038   39.2611 H       1  UNL1        0.2102
@<TRIPOS>BOND
     1    10    11    1
     2    11    12   ar
     3    12    13   ar
     4    13     1    1
     5     1     2   ar
     6     2     3   ar
     7     3     4   ar
     8     4    16    1
     9    16    17   ar
    10    17    18   ar
    11    18    19   ar
    12    19    20   ar
    13    20    22    1
    14    22    23    1
    15    23    24    1
    16    24    25    1
    17    20    21   ar
    18     4     5   ar
    19     5     6   ar
    20     6     7   ar
    21     7     8   ar
    22     8     9   ar
    23     9    26    1
    24    26    27    1
    25    27    28    1
    26    28    29    1
    27    29    30    1
    28    29    31    1
    29    29    32    1
    30    13    14   ar
    31    14    15   ar
    32    15    11   ar
    33     9     1   ar
    34     7     3   ar
    35    21    16   ar
    36    25    23    1
    37    32    33    1
@<TRIPOS>MOLECULE
*****
 33 37 0 0 0
SMALL
GASTEIGER

@<TRIPOS>ATOM
      1 C           2.7832    0.1154   25.1149 C.ar    1  UNL1        0.1213
      2 N           3.2059   -0.6269   23.8818 N.ar    1  UNL1       -0.2233
      3 C           4.2614   -1.6890   23.9706 C.ar    1  UNL1        0.1654
      4 C           4.8775   -2.5810   22.9339 C.ar    1  UNL1        0.0569
      5 C           5.8911   -3.4521   23.6150 C.ar    1  UNL1        0.1236
      6 N           5.9013   -3.0985   25.0727 N.ar    1  UNL1       -0.1620
      7 N           4.8941   -2.0089   25.2925 N.ar    1  UNL1       -0.2076
      8 C           4.4714   -1.2666   26.5255 C.ar    1  UNL1        0.1404
      9 C           3.4159   -0.2045   26.4367 C.ar    1  UNL1        0.1753
     10 C           0.3930    4.8220   24.9927 C.3     1  UNL1        0.1538
     11 N           0.6291    3.3408   24.9699 N.ar    1  UNL1       -0.2473
     12 C           1.9577    2.6576   25.1041 C.ar    1  UNL1        0.0983
     13 C           1.7277    1.1774   25.0260 C.ar    1  UNL1        0.0603
     14 C           0.2570    0.9458   24.8435 C.ar    1  UNL1        0.1232
     15 N          -0.4221    2.2829   24.8088 N.ar    1  UNL1       -0.1675
     16 C           4.5394   -2.5987   21.4726 C.ar    1  UNL1        0.0107
     17 C           4.3134   -3.9050   20.7709 C.ar    1  UNL1        0.0210
     18 C           3.9753   -3.9228   19.3095 C.ar    1  UNL1        0.1021
     19 N           3.8632   -2.6342   18.5500 N.ar    1  UNL1       -0.2101
     20 C           4.0892   -1.3279   19.2517 C.ar    1  UNL1        0.2248
     21 C           4.4273   -1.3101   20.7131 C.ar    1  UNL1        0.0579
     22 O           3.9771   -0.0393   18.4922 O.3     1  UNL1       -0.4640
     23 C           2.6864    0.7249   18.4979 C.3     1  UNL1        0.1678
     24 C           1.9472    2.0255   18.6075 C.3     1  UNL1        0.0473
     25 C           1.1899    0.7477   18.3982 C.3     1  UNL1        0.0473
     26 O           2.9932    0.5378   27.6697 O.3     1  UNL1       -0.4723
     27 C           1.9587   -0.0515   28.5822 C.3     1  UNL1        0.2080
     28 C           0.9482    0.8380   29.2438 C.3     1  UNL1        0.0742
     29 C          -0.2249    1.3512   28.4625 C.3     1  UNL1        0.0921
     30 C           0.3569    2.7334   28.4969 C.3     1  UNL1        0.0294
     31 C          -0.8067   -0.0309   28.4281 C.3     1  UNL1        0.0294
     32 O          -1.3980    1.8645   27.6812 O.3     1  UNL1       -0.3866
     33 H          -1.2962    2.8178   27.5338 H       1  UNL1        0.2102
@<TRIPOS>BOND
     1    10    11    1
     2    11    12   ar
     3    12    13   ar
     4    13     1    1
     5     1     2   ar
     6     2     3   ar
     7     3     4   ar
     8     4    16    1
     9    16    17   ar
    10    17    18   ar
    11    18    19   ar
    12    19    20   ar
    13    20    22    1
    14    22    23    1
    15    23    24    1
    16    24    25    1
    17    20    21   ar
    18     4     5   ar
    19     5     6   ar
    20     6     7   ar
    21     7     8   ar
    22     8     9   ar
    23     9    26    1
    24    26    27    1
    25    27    28    1
    26    28    29    1
    27    29    30    1
    28    29    31    1
    29    29    32    1
    30    13    14   ar
    31    14    15   ar
    32    15    11   ar
    33     9     1   ar
    34     7     3   ar
    35    21    16   ar
    36    25    23    1
    37    32    33    1
@<TRIPOS>MOLECULE
*****
 33 37 0 0 0
SMALL
GASTEIGER

@<TRIPOS>ATOM
      1 C           3.4831   -0.0804   32.0909 C.ar    1  UNL1        0.1213
      2 N           3.4945    0.8903   33.2344 N.ar    1  UNL1       -0.2233
      3 C           2.5364    2.0444   33.2481 C.ar    1  UNL1        0.1654
      4 C           2.3161    3.1544   34.2326 C.ar    1  UNL1        0.0569
      5 C           1.2106    4.0239   33.7113 C.ar    1  UNL1        0.1236
      6 N           0.7476    3.4512   32.4045 N.ar    1  UNL1       -0.1620
      7 N           1.5670    2.2278   32.1182 N.ar    1  UNL1       -0.2076
      8 C           1.5556    1.2572   30.9747 C.ar    1  UNL1        0.1404
      9 C           2.5137    0.1030   30.9610 C.ar    1  UNL1        0.1753
     10 C           7.3777   -3.3576   30.6863 C.3     1  UNL1        0.1538
     11 N           6.2313   -2.7408   31.4316 N.ar    1  UNL1       -0.2473
     12 C           5.5153   -1.4766   31.0586 C.ar    1  UNL1        0.0983
     13 C           4.4412   -1.2345   32.0772 C.ar    1  UNL1        0.0603
     14 C           4.4933   -2.3490   33.0797 C.ar    1  UNL1        0.1232
     15 N           5.5997   -3.2800   32.6807 N.ar    1  UNL1       -0.1675
     16 C           3.0692    3.3590   35.5137 C.ar    1  UNL1        0.0107
     17 C           4.0734    4.4677   35.6245 C.ar    1  UNL1        0.0210
     18 C           4.8265    4.6724   36.9055 C.ar    1  UNL1        0.1021
     19 N           4.5754    3.7683   38.0757 N.ar    1  UNL1       -0.2101
     20 C           3.5713    2.6595   37.9649 C.ar    1  UNL1        0.2248
     21 C           2.8181    2.4548   36.6839 C.ar    1  UNL1        0.0579
     22 O           3.3202    1.7553   39.1351 O.3     1  UNL1       -0.4640
     23 C           1.9694    1.1311   39.3243 C.3     1  UNL1        0.1678
     24 C           1.1219   -0.0819   39.5701 C.3     1  UNL1        0.0473
     25 C           0.4775    1.2627   39.4063 C.3     1  UNL1        0.0473
     26 O           2.5024   -0.8676   29.8175 O.3     1  UNL1       -0.4723
     27 C           2.7285   -0.3796   28.4172 C.3     1  UNL1        0.2080
     28 C           4.0987   -0.4491   27.8108 C.3     1  UNL1        0.0742
     29 C           4.3595   -1.3617   26.6493 C.3     1  UNL1        0.0921
     30 C           3.4609   -0.5235   25.7890 C.3     1  UNL1        0.0294
     31 C           5.2580   -2.1998   27.5097 C.3     1  UNL1        0.0294
     32 O           4.6202   -2.2743   25.4878 O.3     1  UNL1       -0.3866
     33 H           4.1286   -1.9601   24.7130 H       1  UNL1        0.2102
@<TRIPOS>BOND
     1    10    11    1
     2    11    12   ar
     3    12    13   ar
     4    13     1    1
     5     1     2   ar
     6     2     3   ar
     7     3     4   ar
     8     4    16    1
     9    16    17   ar
    10    17    18   ar
    11    18    19   ar
    12    19    20   ar
    13    20    22    1
    14    22    23    1
    15    23    24    1
    16    24    25    1
    17    20    21   ar
    18     4     5   ar
    19     5     6   ar
    20     6     7   ar
    21     7     8   ar
    22     8     9   ar
    23     9    26    1
    24    26    27    1
    25    27    28    1
    26    28    29    1
    27    29    30    1
    28    29    31    1
    29    29    32    1
    30    13    14   ar
    31    14    15   ar
    32    15    11   ar
    33     9     1   ar
    34     7     3   ar
    35    21    16   ar
    36    25    23    1
    37    32    33    1
