@<TRIPOS>MOLECULE
*****
 42 47 0 0 0
SMALL
GASTEIGER

@<TRIPOS>ATOM
      1 C          -7.5857  -17.7482   21.4328 C.ar    1  UNL1        0.1343
      2 N          -6.3823  -17.7626   20.5375 N.ar    1  UNL1       -0.1988
      3 C          -5.8485  -19.0652   20.0195 C.ar    1  UNL1        0.2218
      4 N          -6.5180  -20.3533   20.3969 N.ar    1  UNL1       -0.2119
      5 C          -7.7214  -20.3389   21.2922 C.ar    1  UNL1        0.1061
      6 C          -8.2552  -19.0364   21.8101 C.ar    1  UNL1        0.0683
      7 C          -9.4587  -19.0219   22.7055 C.ar    1  UNL1        0.0854
      8 C          -9.4013  -19.6850   24.0498 C.ar    1  UNL1        0.0193
      9 C         -10.6047  -19.6705   24.9451 C.ar    1  UNL1        0.0030
     10 C         -11.8655  -18.9931   24.4962 C.ar    1  UNL1        0.0177
     11 C         -13.0688  -18.9787   25.3915 C.ar    1  UNL1        0.0015
     12 C         -14.3296  -18.3012   24.9426 C.ar    1  UNL1        0.0001
     13 C         -14.3869  -17.6382   23.5983 C.ar    1  UNL1        0.0015
     14 C         -13.1836  -17.6526   22.7029 C.ar    1  UNL1        0.0191
     15 C         -11.9229  -18.3301   23.1519 C.ar    1  UNL1        0.0813
     16 N         -10.7194  -18.3445   22.2565 N.ar    1  UNL1       -0.2452
     17 N          -8.1196  -16.4456   21.9508 N.pl3   1  UNL1       -0.3172
     18 H          -8.6790  -15.8781   21.3726 H       1  UNL1        0.1482
     19 C          -7.9310  -15.6761   25.7505 C.3     1  UNL1        0.0604
     20 C          -8.6167  -16.3040   24.5733 C.3     1  UNL1        0.0271
     21 C          -7.8013  -16.0078   23.3497 C.3     1  UNL1        0.0998
     22 C          -6.6117  -15.1968   23.7705 C.3     1  UNL1        0.1549
     23 O          -5.5315  -14.6813   22.8664 O.3     1  UNL1       -0.3803
     24 C          -6.6918  -14.9918   25.2543 C.3     1  UNL1        0.1412
     25 O          -5.7059  -14.2354   26.0944 O.3     1  UNL1       -0.3818
     26 H          -4.8806  -14.1874   23.3892 H       1  UNL1        0.2105
     27 H          -4.9962  -13.8917   25.5294 H       1  UNL1        0.2104
     28 O          -8.4173  -14.4731   28.0012 O.3     1  UNL1       -0.3819
     29 C          -8.4018  -15.7241   27.1739 C.3     1  UNL1        0.1396
     30 H          -8.7467  -14.6775   28.8904 H       1  UNL1        0.2104
     31 N          -4.6450  -19.0796   19.1242 N.pl3   1  UNL1       -0.2823
     32 H          -4.7380  -19.3375   18.1786 H       1  UNL1        0.1551
     33 C          -3.2999  -18.7011   19.6695 C.ar    1  UNL1        0.0567
     34 C          -2.1448  -18.4890   18.7363 C.ar    1  UNL1        0.0356
     35 C          -0.7997  -18.1106   19.2817 C.ar    1  UNL1        0.1033
     36 N          -0.6097  -17.9442   20.7603 N.ar    1  UNL1       -0.2101
     37 C          -1.7647  -18.1563   21.6935 C.ar    1  UNL1        0.2260
     38 C          -3.1098  -18.5348   21.1481 C.ar    1  UNL1        0.0724
     39 O          -1.5747  -17.9899   23.1720 O.3     1  UNL1       -0.4640
     40 C          -2.7647  -17.7934   24.0638 C.3     1  UNL1        0.1678
     41 C          -3.3529  -17.6809   25.4390 C.3     1  UNL1        0.0473
     42 C          -4.2376  -17.5657   24.2331 C.3     1  UNL1        0.0473
@<TRIPOS>BOND
     1    28    29    1
     2    19    29    1
     3    19    20    1
     4    20    21    1
     5    21    17    1
     6    17     1    1
     7     1     2   ar
     8     2     3   ar
     9     3    31    1
    10    31    33    1
    11    33    34   ar
    12    34    35   ar
    13    35    36   ar
    14    36    37   ar
    15    37    39    1
    16    39    40    1
    17    40    41    1
    18    41    42    1
    19    37    38   ar
    20     3     4   ar
    21     4     5   ar
    22     5     6   ar
    23     6     7    1
    24     7     8   ar
    25     8     9   ar
    26     9    10   ar
    27    10    11   ar
    28    11    12   ar
    29    12    13   ar
    30    13    14   ar
    31    14    15   ar
    32    15    16   ar
    33    21    22    1
    34    22    23    1
    35    22    24    1
    36    24    25    1
    37    24    19    1
    38     6     1   ar
    39    16     7   ar
    40    38    33   ar
    41    15    10   ar
    42    42    40    1
    43    28    30    1
    44    17    18    1
    45    31    32    1
    46    23    26    1
    47    25    27    1
@<TRIPOS>MOLECULE
*****
 42 47 0 0 0
SMALL
GASTEIGER

@<TRIPOS>ATOM
      1 C           6.2049   -2.7233   29.3880 C.ar    1  UNL1        0.1343
      2 N           6.0622   -3.6465   28.2145 N.ar    1  UNL1       -0.1988
      3 C           6.3431   -5.1113   28.3741 C.ar    1  UNL1        0.2218
      4 N           6.7667   -5.6528   29.7072 N.ar    1  UNL1       -0.2119
      5 C           6.9095   -4.7296   30.8807 C.ar    1  UNL1        0.1061
      6 C           6.6285   -3.2649   30.7211 C.ar    1  UNL1        0.0683
      7 C           6.7712   -2.3416   31.8947 C.ar    1  UNL1        0.0854
      8 C           8.0905   -1.6860   32.1772 C.ar    1  UNL1        0.0193
      9 C           8.2333   -0.7628   33.3507 C.ar    1  UNL1        0.0030
     10 C           7.0567   -0.4950   34.2418 C.ar    1  UNL1        0.0177
     11 C           7.1994    0.4283   35.4153 C.ar    1  UNL1        0.0015
     12 C           6.0229    0.6960   36.3064 C.ar    1  UNL1        0.0001
     13 C           4.7036    0.0405   36.0239 C.ar    1  UNL1        0.0015
     14 C           4.5609   -0.8828   34.8504 C.ar    1  UNL1        0.0191
     15 C           5.7374   -1.1505   33.9594 C.ar    1  UNL1        0.0813
     16 N           5.5947   -2.0738   32.7858 N.ar    1  UNL1       -0.2452
     17 N           5.9240   -1.2585   29.2284 N.pl3   1  UNL1       -0.3172
     18 H           6.6615   -0.6331   29.0433 H       1  UNL1        0.1482
     19 C           2.5530    0.4301   30.1507 C.3     1  UNL1        0.0604
     20 C           4.0094    0.1835   30.4117 C.3     1  UNL1        0.0271
     21 C           4.5194   -0.7465   29.3510 C.3     1  UNL1        0.0998
     22 C           3.3782   -1.0746   28.4345 C.3     1  UNL1        0.1549
     23 O           3.4413   -1.9722   27.2344 O.3     1  UNL1       -0.3803
     24 C           2.1629   -0.3474   28.9287 C.3     1  UNL1        0.1412
     25 O           0.7973   -0.3902   28.3096 O.3     1  UNL1       -0.3818
     26 H           2.5669   -2.0153   26.8166 H       1  UNL1        0.2105
     27 H           0.8139   -0.9664   27.5295 H       1  UNL1        0.2104
     28 O           0.1777    1.3484   30.6651 O.3     1  UNL1       -0.3819
     29 C           1.6460    1.3014   30.9682 C.3     1  UNL1        0.1396
     30 H          -0.2605    1.9553   31.2819 H       1  UNL1        0.2104
     31 N           6.2004   -6.0346   27.2005 N.pl3   1  UNL1       -0.2823
     32 H           5.5112   -6.7376   27.2081 H       1  UNL1        0.1551
     33 C           7.1078   -5.8868   26.0152 C.ar    1  UNL1        0.0567
     34 C           8.3894   -6.6636   25.9503 C.ar    1  UNL1        0.0356
     35 C           9.2968   -6.5158   24.7651 C.ar    1  UNL1        0.1033
     36 N           8.9226   -5.5911   23.6447 N.ar    1  UNL1       -0.2101
     37 C           7.6410   -4.8144   23.7097 C.ar    1  UNL1        0.2260
     38 C           6.7337   -4.9622   24.8949 C.ar    1  UNL1        0.0724
     39 O           7.2669   -3.8898   22.5894 O.3     1  UNL1       -0.4640
     40 C           5.8218   -3.6322   22.2804 C.3     1  UNL1        0.1678
     41 C           4.4859   -3.0808   22.6818 C.3     1  UNL1        0.0473
     42 C           4.6549   -3.7375   21.3438 C.3     1  UNL1        0.0473
@<TRIPOS>BOND
     1    28    29    1
     2    19    29    1
     3    19    20    1
     4    20    21    1
     5    21    17    1
     6    17     1    1
     7     1     2   ar
     8     2     3   ar
     9     3    31    1
    10    31    33    1
    11    33    34   ar
    12    34    35   ar
    13    35    36   ar
    14    36    37   ar
    15    37    39    1
    16    39    40    1
    17    40    41    1
    18    41    42    1
    19    37    38   ar
    20     3     4   ar
    21     4     5   ar
    22     5     6   ar
    23     6     7    1
    24     7     8   ar
    25     8     9   ar
    26     9    10   ar
    27    10    11   ar
    28    11    12   ar
    29    12    13   ar
    30    13    14   ar
    31    14    15   ar
    32    15    16   ar
    33    21    22    1
    34    22    23    1
    35    22    24    1
    36    24    25    1
    37    24    19    1
    38     6     1   ar
    39    16     7   ar
    40    38    33   ar
    41    15    10   ar
    42    42    40    1
    43    28    30    1
    44    17    18    1
    45    31    32    1
    46    23    26    1
    47    25    27    1
@<TRIPOS>MOLECULE
*****
 42 47 0 0 0
SMALL
GASTEIGER

@<TRIPOS>ATOM
      1 C          -7.2084  -18.1478   22.6431 C.ar    1  UNL1        0.1343
      2 N          -8.6032  -18.5635   23.0063 N.ar    1  UNL1       -0.1988
      3 C          -8.9803  -20.0152   22.9939 C.ar    1  UNL1        0.2218
      4 N          -7.9627  -21.0513   22.6183 N.ar    1  UNL1       -0.2119
      5 C          -6.5680  -20.6356   22.2551 C.ar    1  UNL1        0.1061
      6 C          -6.1908  -19.1839   22.2675 C.ar    1  UNL1        0.0683
      7 C          -4.7961  -18.7681   21.9043 C.ar    1  UNL1        0.0854
      8 C          -3.8218  -18.3907   22.9805 C.ar    1  UNL1        0.0193
      9 C          -2.4271  -17.9749   22.6174 C.ar    1  UNL1        0.0030
     10 C          -2.0066  -17.9367   21.1779 C.ar    1  UNL1        0.0177
     11 C          -0.6119  -17.5209   20.8148 C.ar    1  UNL1        0.0015
     12 C          -0.1915  -17.4827   19.3755 C.ar    1  UNL1        0.0001
     13 C          -1.1658  -17.8602   18.2992 C.ar    1  UNL1        0.0015
     14 C          -2.5605  -18.2759   18.6624 C.ar    1  UNL1        0.0191
     15 C          -2.9809  -18.3141   20.1017 C.ar    1  UNL1        0.0813
     16 N          -4.3757  -18.7299   20.4649 N.ar    1  UNL1       -0.2452
     17 N          -6.8313  -16.6960   22.6555 N.pl3   1  UNL1       -0.3172
     18 H          -6.7634  -16.1978   21.8091 H       1  UNL1        0.1482
     19 C          -6.7483  -15.2532   26.2579 C.3     1  UNL1        0.0604
     20 C          -7.3871  -16.1071   25.2029 C.3     1  UNL1        0.0271
     21 C          -6.5575  -16.0034   23.9575 C.3     1  UNL1        0.0998
     22 C          -5.4060  -15.0853   24.2428 C.3     1  UNL1        0.1549
     23 O          -4.3262  -14.6988   23.2761 O.3     1  UNL1       -0.3803
     24 C          -5.5240  -14.6217   25.6645 C.3     1  UNL1        0.1412
     25 O          -4.5828  -13.6902   26.3690 O.3     1  UNL1       -0.3818
     26 H          -3.7040  -14.0948   23.7109 H       1  UNL1        0.2105
     27 H          -3.8741  -13.4261   25.7616 H       1  UNL1        0.2104
     28 O          -8.6059  -14.4771   27.9001 O.3     1  UNL1       -0.3819
     29 C          -7.2465  -15.0641   27.6600 C.3     1  UNL1        0.1396
     30 H          -8.7711  -14.4240   28.8545 H       1  UNL1        0.2104
     31 N         -10.3750  -20.4310   23.3571 N.pl3   1  UNL1       -0.2823
     32 H         -10.5600  -21.3636   23.6125 H       1  UNL1        0.1551
     33 C         -11.4880  -19.4257   23.3312 C.ar    1  UNL1        0.0567
     34 C         -12.3346  -19.2125   24.5511 C.ar    1  UNL1        0.0356
     35 C         -13.4476  -18.2072   24.5252 C.ar    1  UNL1        0.1033
     36 N         -13.7140  -17.4151   23.2794 N.ar    1  UNL1       -0.2101
     37 C         -12.8674  -17.6284   22.0597 C.ar    1  UNL1        0.2260
     38 C         -11.7544  -18.6337   22.0856 C.ar    1  UNL1        0.0724
     39 O         -13.1338  -16.8363   20.8141 O.3     1  UNL1       -0.4640
     40 C         -12.0154  -16.0960   20.1424 C.3     1  UNL1        0.1678
     41 C         -10.6482  -15.4814   20.1955 C.3     1  UNL1        0.0473
     42 C         -11.4456  -15.4284   18.9261 C.3     1  UNL1        0.0473
@<TRIPOS>BOND
     1    28    29    1
     2    19    29    1
     3    19    20    1
     4    20    21    1
     5    21    17    1
     6    17     1    1
     7     1     2   ar
     8     2     3   ar
     9     3    31    1
    10    31    33    1
    11    33    34   ar
    12    34    35   ar
    13    35    36   ar
    14    36    37   ar
    15    37    39    1
    16    39    40    1
    17    40    41    1
    18    41    42    1
    19    37    38   ar
    20     3     4   ar
    21     4     5   ar
    22     5     6   ar
    23     6     7    1
    24     7     8   ar
    25     8     9   ar
    26     9    10   ar
    27    10    11   ar
    28    11    12   ar
    29    12    13   ar
    30    13    14   ar
    31    14    15   ar
    32    15    16   ar
    33    21    22    1
    34    22    23    1
    35    22    24    1
    36    24    25    1
    37    24    19    1
    38     6     1   ar
    39    16     7   ar
    40    38    33   ar
    41    15    10   ar
    42    42    40    1
    43    28    30    1
    44    17    18    1
    45    31    32    1
    46    23    26    1
    47    25    27    1
@<TRIPOS>MOLECULE
*****
 42 47 0 0 0
SMALL
GASTEIGER

@<TRIPOS>ATOM
      1 C           5.8629   -1.2617   26.7299 C.ar    1  UNL1        0.1343
      2 N           5.0611   -0.1064   27.2517 N.ar    1  UNL1       -0.1988
      3 C           3.8726    0.3898   26.4827 C.ar    1  UNL1        0.2218
      4 N           3.4860   -0.2694   25.1920 N.ar    1  UNL1       -0.2119
      5 C           4.2878   -1.4247   24.6702 C.ar    1  UNL1        0.1061
      6 C           5.4763   -1.9209   25.4392 C.ar    1  UNL1        0.0683
      7 C           6.2782   -3.0762   24.9174 C.ar    1  UNL1        0.0854
      8 C           6.8599   -3.0223   23.5359 C.ar    1  UNL1        0.0193
      9 C           7.6618   -4.1775   23.0141 C.ar    1  UNL1        0.0030
     10 C           7.8819   -5.3869   23.8739 C.ar    1  UNL1        0.0177
     11 C           8.6838   -6.5422   23.3521 C.ar    1  UNL1        0.0015
     12 C           8.9039   -7.7514   24.2119 C.ar    1  UNL1        0.0001
     13 C           8.3222   -7.8054   25.5934 C.ar    1  UNL1        0.0015
     14 C           7.5203   -6.6501   26.1152 C.ar    1  UNL1        0.0191
     15 C           7.3002   -5.4408   25.2554 C.ar    1  UNL1        0.0813
     16 N           6.4983   -4.2855   25.7772 N.ar    1  UNL1       -0.2452
     17 N           7.0514   -1.7579   27.4989 N.pl3   1  UNL1       -0.3172
     18 H           7.9616   -1.5483   27.1877 H       1  UNL1        0.1482
     19 C           6.9274   -4.3957   30.3436 C.3     1  UNL1        0.0604
     20 C           7.3505   -3.9704   28.9688 C.3     1  UNL1        0.0271
     21 C           6.8531   -2.5736   28.7421 C.3     1  UNL1        0.0998
     22 C           6.1226   -2.1356   29.9768 C.3     1  UNL1        0.1549
     23 O           5.4622   -0.8050   30.1852 O.3     1  UNL1       -0.3803
     24 C           6.1685   -3.2617   30.9666 C.3     1  UNL1        0.1412
     25 O           5.5620   -3.2550   32.3385 O.3     1  UNL1       -0.3818
     26 H           5.0619   -0.7775   31.0683 H       1  UNL1        0.2105
     27 H           5.1281   -2.4019   32.4960 H       1  UNL1        0.2104
     28 O           6.4938   -6.1202   32.2378 O.3     1  UNL1       -0.3819
     29 C           7.2130   -5.7221   30.9831 C.3     1  UNL1        0.1396
     30 H           6.7930   -6.9997   32.5169 H       1  UNL1        0.2104
     31 N           3.0707    1.5451   27.0045 N.pl3   1  UNL1       -0.2823
     32 H           3.2590    2.4580   26.6876 H       1  UNL1        0.1551
     33 C           1.9820    1.3095   28.0090 C.ar    1  UNL1        0.0567
     34 C           0.6085    0.9198   27.5489 C.ar    1  UNL1        0.0356
     35 C          -0.4803    0.6842   28.5534 C.ar    1  UNL1        0.1033
     36 N          -0.1955    0.8383   30.0181 N.ar    1  UNL1       -0.2101
     37 C           1.1779    1.2280   30.4782 C.ar    1  UNL1        0.2260
     38 C           2.2667    1.4636   29.4737 C.ar    1  UNL1        0.0724
     39 O           1.4626    1.3821   31.9428 O.3     1  UNL1       -0.4640
     40 C           2.8004    0.9847   32.4927 C.3     1  UNL1        0.1678
     41 C           4.2342    1.3135   32.7855 C.3     1  UNL1        0.0473
     42 C           3.6835   -0.0326   33.1523 C.3     1  UNL1        0.0473
@<TRIPOS>BOND
     1    28    29    1
     2    19    29    1
     3    19    20    1
     4    20    21    1
     5    21    17    1
     6    17     1    1
     7     1     2   ar
     8     2     3   ar
     9     3    31    1
    10    31    33    1
    11    33    34   ar
    12    34    35   ar
    13    35    36   ar
    14    36    37   ar
    15    37    39    1
    16    39    40    1
    17    40    41    1
    18    41    42    1
    19    37    38   ar
    20     3     4   ar
    21     4     5   ar
    22     5     6   ar
    23     6     7    1
    24     7     8   ar
    25     8     9   ar
    26     9    10   ar
    27    10    11   ar
    28    11    12   ar
    29    12    13   ar
    30    13    14   ar
    31    14    15   ar
    32    15    16   ar
    33    21    22    1
    34    22    23    1
    35    22    24    1
    36    24    25    1
    37    24    19    1
    38     6     1   ar
    39    16     7   ar
    40    38    33   ar
    41    15    10   ar
    42    42    40    1
    43    28    30    1
    44    17    18    1
    45    31    32    1
    46    23    26    1
    47    25    27    1
@<TRIPOS>MOLECULE
*****
 42 47 0 0 0
SMALL
GASTEIGER

@<TRIPOS>ATOM
      1 C           6.8592   -2.2489   22.4805 C.ar    1  UNL1        0.1343
      2 N           7.8173   -3.1109   23.2479 N.ar    1  UNL1       -0.1988
      3 C           8.2161   -4.4526   22.7087 C.ar    1  UNL1        0.2218
      4 N           7.6568   -4.9323   21.4022 N.ar    1  UNL1       -0.2119
      5 C           6.6987   -4.0703   20.6348 C.ar    1  UNL1        0.1061
      6 C           6.2999   -2.7286   21.1740 C.ar    1  UNL1        0.0683
      7 C           5.3417   -1.8665   20.4066 C.ar    1  UNL1        0.0854
      8 C           5.7826   -1.2029   19.1356 C.ar    1  UNL1        0.0193
      9 C           4.8245   -0.3408   18.3683 C.ar    1  UNL1        0.0030
     10 C           3.4255   -0.1424   18.8718 C.ar    1  UNL1        0.0177
     11 C           2.4674    0.7197   18.1044 C.ar    1  UNL1        0.0015
     12 C           1.0685    0.9181   18.6079 C.ar    1  UNL1        0.0001
     13 C           0.6276    0.2544   19.8789 C.ar    1  UNL1        0.0015
     14 C           1.5857   -0.6076   20.6463 C.ar    1  UNL1        0.0191
     15 C           2.9846   -0.8060   20.1427 C.ar    1  UNL1        0.0813
     16 N           3.9428   -1.6681   20.9101 N.ar    1  UNL1       -0.2452
     17 N           6.4603   -0.9071   23.0197 N.pl3   1  UNL1       -0.3172
     18 H           6.9129   -0.0936   22.6995 H       1  UNL1        0.1482
     19 C           3.4755    0.0034   25.3278 C.3     1  UNL1        0.0604
     20 C           4.3740    0.3087   24.1661 C.3     1  UNL1        0.0271
     21 C           5.3718   -0.8050   24.0467 C.3     1  UNL1        0.0998
     22 C           5.0899   -1.7985   25.1346 C.3     1  UNL1        0.1549
     23 O           5.8471   -3.0686   25.3865 O.3     1  UNL1       -0.3803
     24 C           3.9179   -1.2989   25.9263 C.3     1  UNL1        0.1412
     25 O           3.2974   -1.9817   27.1090 O.3     1  UNL1       -0.3818
     26 H           5.4624   -3.5285   26.1490 H       1  UNL1        0.2105
     27 H           3.7720   -2.8078   27.2911 H       1  UNL1        0.2104
     28 O           1.3397    0.2906   26.7789 O.3     1  UNL1       -0.3819
     29 C           2.3348    0.8516   25.8068 C.3     1  UNL1        0.1396
     30 H           0.6724    0.9642   26.9835 H       1  UNL1        0.2104
     31 N           9.1743   -5.3147   23.4761 N.pl3   1  UNL1       -0.2823
     32 H          10.0835   -5.4677   23.1311 H       1  UNL1        0.1551
     33 C           8.7470   -5.9435   24.7692 C.ar    1  UNL1        0.0567
     34 C           8.0287   -7.2604   24.7614 C.ar    1  UNL1        0.0356
     35 C           7.6014   -7.8893   26.0544 C.ar    1  UNL1        0.1033
     36 N           7.8924   -7.2013   27.3553 N.ar    1  UNL1       -0.2101
     37 C           8.6107   -5.8845   27.3630 C.ar    1  UNL1        0.2260
     38 C           9.0380   -5.2556   26.0699 C.ar    1  UNL1        0.0724
     39 O           8.9017   -5.1966   28.6637 O.3     1  UNL1       -0.4640
     40 C           7.8367   -5.0997   29.7156 C.3     1  UNL1        0.1678
     41 C           7.0358   -5.7313   30.8154 C.3     1  UNL1        0.0473
     42 C           6.7931   -4.3001   30.4377 C.3     1  UNL1        0.0473
@<TRIPOS>BOND
     1    28    29    1
     2    19    29    1
     3    19    20    1
     4    20    21    1
     5    21    17    1
     6    17     1    1
     7     1     2   ar
     8     2     3   ar
     9     3    31    1
    10    31    33    1
    11    33    34   ar
    12    34    35   ar
    13    35    36   ar
    14    36    37   ar
    15    37    39    1
    16    39    40    1
    17    40    41    1
    18    41    42    1
    19    37    38   ar
    20     3     4   ar
    21     4     5   ar
    22     5     6   ar
    23     6     7    1
    24     7     8   ar
    25     8     9   ar
    26     9    10   ar
    27    10    11   ar
    28    11    12   ar
    29    12    13   ar
    30    13    14   ar
    31    14    15   ar
    32    15    16   ar
    33    21    22    1
    34    22    23    1
    35    22    24    1
    36    24    25    1
    37    24    19    1
    38     6     1   ar
    39    16     7   ar
    40    38    33   ar
    41    15    10   ar
    42    42    40    1
    43    28    30    1
    44    17    18    1
    45    31    32    1
    46    23    26    1
    47    25    27    1
@<TRIPOS>MOLECULE
*****
 42 47 0 0 0
SMALL
GASTEIGER

@<TRIPOS>ATOM
      1 C           3.9838   -1.1666   26.2093 C.ar    1  UNL1        0.1343
      2 N           3.4090   -0.2169   25.2005 N.ar    1  UNL1       -0.1988
      3 C           4.2472    0.2501   24.0476 C.ar    1  UNL1        0.2218
      4 N           5.6601   -0.2325   23.9034 N.ar    1  UNL1       -0.2119
      5 C           6.2348   -1.1822   24.9122 C.ar    1  UNL1        0.1061
      6 C           5.3967   -1.6492   26.0652 C.ar    1  UNL1        0.0683
      7 C           5.9715   -2.5989   27.0741 C.ar    1  UNL1        0.0854
      8 C           6.6758   -3.8421   26.6176 C.ar    1  UNL1        0.0193
      9 C           7.2506   -4.7918   27.6264 C.ar    1  UNL1        0.0030
     10 C           7.1210   -4.4983   29.0918 C.ar    1  UNL1        0.0177
     11 C           7.6957   -5.4480   30.1006 C.ar    1  UNL1        0.0015
     12 C           7.5661   -5.1545   31.5658 C.ar    1  UNL1        0.0001
     13 C           6.8617   -3.9113   32.0223 C.ar    1  UNL1        0.0015
     14 C           6.2869   -2.9616   31.0135 C.ar    1  UNL1        0.0191
     15 C           6.4166   -3.2551   29.5482 C.ar    1  UNL1        0.0813
     16 N           5.8418   -2.3054   28.5393 N.ar    1  UNL1       -0.2452
     17 N           3.1456   -1.6337   27.3624 N.pl3   1  UNL1       -0.3172
     18 H           2.9614   -2.5936   27.4800 H       1  UNL1        0.1482
     19 C           2.1744    0.6169   30.3719 C.3     1  UNL1        0.0604
     20 C           2.9790   -0.5010   29.7778 C.3     1  UNL1        0.0271
     21 C           2.5882   -0.6382   28.3361 C.3     1  UNL1        0.0998
     22 C           1.5420    0.3950   28.0392 C.3     1  UNL1        0.1549
     23 O           0.8696    0.6140   26.7163 O.3     1  UNL1       -0.3803
     24 C           1.2863    1.1707   29.2973 C.3     1  UNL1        0.1412
     25 O           0.3132    2.3015   29.4534 O.3     1  UNL1       -0.3818
     26 H           0.2341    1.3428   26.7934 H       1  UNL1        0.2105
     27 H          -0.1348    2.4616   28.6081 H       1  UNL1        0.2104
     28 O           1.0183    1.6398   32.4616 O.3     1  UNL1       -0.3819
     29 C           2.2454    1.0968   31.7912 C.3     1  UNL1        0.1396
     30 H           1.2357    1.9035   33.3694 H       1  UNL1        0.2104
     31 N           3.6724    1.1998   23.0387 N.pl3   1  UNL1       -0.2823
     32 H           3.8226    2.1682   23.1328 H       1  UNL1        0.1551
     33 C           2.8688    0.6740   21.8864 C.ar    1  UNL1        0.0567
     34 C           1.3976    0.9557   21.8075 C.ar    1  UNL1        0.0356
     35 C           0.5940    0.4299   20.6552 C.ar    1  UNL1        0.1033
     36 N           1.2617   -0.3777   19.5818 N.ar    1  UNL1       -0.2101
     37 C           2.7329   -0.6594   19.6607 C.ar    1  UNL1        0.2260
     38 C           3.5364   -0.1335   20.8130 C.ar    1  UNL1        0.0724
     39 O           3.4005   -1.4669   18.5874 O.3     1  UNL1       -0.4640
     40 C           3.7847   -2.8927   18.8509 C.3     1  UNL1        0.1678
     41 C           4.8382   -3.9543   18.9646 C.3     1  UNL1        0.0473
     42 C           3.3968   -4.3005   19.1936 C.3     1  UNL1        0.0473
@<TRIPOS>BOND
     1    28    29    1
     2    19    29    1
     3    19    20    1
     4    20    21    1
     5    21    17    1
     6    17     1    1
     7     1     2   ar
     8     2     3   ar
     9     3    31    1
    10    31    33    1
    11    33    34   ar
    12    34    35   ar
    13    35    36   ar
    14    36    37   ar
    15    37    39    1
    16    39    40    1
    17    40    41    1
    18    41    42    1
    19    37    38   ar
    20     3     4   ar
    21     4     5   ar
    22     5     6   ar
    23     6     7    1
    24     7     8   ar
    25     8     9   ar
    26     9    10   ar
    27    10    11   ar
    28    11    12   ar
    29    12    13   ar
    30    13    14   ar
    31    14    15   ar
    32    15    16   ar
    33    21    22    1
    34    22    23    1
    35    22    24    1
    36    24    25    1
    37    24    19    1
    38     6     1   ar
    39    16     7   ar
    40    38    33   ar
    41    15    10   ar
    42    42    40    1
    43    28    30    1
    44    17    18    1
    45    31    32    1
    46    23    26    1
    47    25    27    1
@<TRIPOS>MOLECULE
*****
 42 47 0 0 0
SMALL
GASTEIGER

@<TRIPOS>ATOM
      1 C           2.8579   -0.2778   22.4863 C.ar    1  UNL1        0.1343
      2 N           3.1377   -1.2412   23.6013 N.ar    1  UNL1       -0.1988
      3 C           3.8133   -0.7643   24.8527 C.ar    1  UNL1        0.2218
      4 N           4.2090    0.6761   24.9891 N.ar    1  UNL1       -0.2119
      5 C           3.9292    1.6396   23.8741 C.ar    1  UNL1        0.1061
      6 C           3.2537    1.1627   22.6226 C.ar    1  UNL1        0.0683
      7 C           2.9738    2.1262   21.5075 C.ar    1  UNL1        0.0854
      8 C           4.0642    3.0220   20.9990 C.ar    1  UNL1        0.0193
      9 C           3.7844    3.9854   19.8840 C.ar    1  UNL1        0.0030
     10 C           2.4142    4.0531   19.2773 C.ar    1  UNL1        0.0177
     11 C           2.1344    5.0165   18.1622 C.ar    1  UNL1        0.0015
     12 C           0.7643    5.0842   17.5556 C.ar    1  UNL1        0.0001
     13 C          -0.3261    4.1883   18.0641 C.ar    1  UNL1        0.0015
     14 C          -0.0464    3.2249   19.1791 C.ar    1  UNL1        0.0191
     15 C           1.3238    3.1573   19.7858 C.ar    1  UNL1        0.0813
     16 N           1.6036    2.1938   20.9009 N.ar    1  UNL1       -0.2452
     17 N           2.1824   -0.7547   21.2347 N.pl3   1  UNL1       -0.3172
     18 H           1.2010   -0.8252   21.2014 H       1  UNL1        0.1482
     19 C           4.7011   -2.1230   18.6176 C.3     1  UNL1        0.0604
     20 C           4.1918   -2.0377   20.0259 C.3     1  UNL1        0.0271
     21 C           3.0022   -1.1241   20.0341 C.3     1  UNL1        0.0998
     22 C           2.7762   -0.6448   18.6308 C.3     1  UNL1        0.1549
     23 O           1.6908    0.2881   18.1818 O.3     1  UNL1       -0.3803
     24 C           3.8262   -1.2621   17.7554 C.3     1  UNL1        0.1412
     25 O           3.9751   -1.0549   16.2772 O.3     1  UNL1       -0.3818
     26 H           1.7674    0.4372   17.2264 H       1  UNL1        0.2105
     27 H           3.2819   -0.4533   15.9636 H       1  UNL1        0.2104
     28 O           6.9775   -2.2682   17.3739 O.3     1  UNL1       -0.3819
     29 C           5.8786   -2.9278   18.1531 C.3     1  UNL1        0.1396
     30 H           7.6565   -2.9248   17.1532 H       1  UNL1        0.2104
     31 N           4.0931   -1.7278   25.9679 N.pl3   1  UNL1       -0.2823
     32 H           4.3331   -2.6605   25.7639 H       1  UNL1        0.1551
     33 C           4.0073   -1.2700   27.3938 C.ar    1  UNL1        0.0567
     34 C           5.2516   -1.1696   28.2254 C.ar    1  UNL1        0.0356
     35 C           5.1658   -0.7119   29.6513 C.ar    1  UNL1        0.1033
     36 N           3.8356   -0.3545   30.2455 N.ar    1  UNL1       -0.2101
     37 C           2.5913   -0.4550   29.4138 C.ar    1  UNL1        0.2260
     38 C           2.6772   -0.9127   27.9880 C.ar    1  UNL1        0.0724
     39 O           1.2613   -0.0976   30.0080 O.3     1  UNL1       -0.4640
     40 C           0.0457   -0.0186   29.1328 C.3     1  UNL1        0.1678
     41 C          -0.6817    0.5923   27.9719 C.3     1  UNL1        0.0473
     42 C          -1.3324   -0.4927   28.7777 C.3     1  UNL1        0.0473
@<TRIPOS>BOND
     1    28    29    1
     2    19    29    1
     3    19    20    1
     4    20    21    1
     5    21    17    1
     6    17     1    1
     7     1     2   ar
     8     2     3   ar
     9     3    31    1
    10    31    33    1
    11    33    34   ar
    12    34    35   ar
    13    35    36   ar
    14    36    37   ar
    15    37    39    1
    16    39    40    1
    17    40    41    1
    18    41    42    1
    19    37    38   ar
    20     3     4   ar
    21     4     5   ar
    22     5     6   ar
    23     6     7    1
    24     7     8   ar
    25     8     9   ar
    26     9    10   ar
    27    10    11   ar
    28    11    12   ar
    29    12    13   ar
    30    13    14   ar
    31    14    15   ar
    32    15    16   ar
    33    21    22    1
    34    22    23    1
    35    22    24    1
    36    24    25    1
    37    24    19    1
    38     6     1   ar
    39    16     7   ar
    40    38    33   ar
    41    15    10   ar
    42    42    40    1
    43    28    30    1
    44    17    18    1
    45    31    32    1
    46    23    26    1
    47    25    27    1
@<TRIPOS>MOLECULE
*****
 42 47 0 0 0
SMALL
GASTEIGER

@<TRIPOS>ATOM
      1 C           4.3379   -1.8890   23.5716 C.ar    1  UNL1        0.1343
      2 N           3.3736   -0.7746   23.8512 N.ar    1  UNL1       -0.1988
      3 C           3.7140    0.2744   24.8679 C.ar    1  UNL1        0.2218
      4 N           5.0188    0.2090   25.6050 N.ar    1  UNL1       -0.2119
      5 C           5.9831   -0.9054   25.3255 C.ar    1  UNL1        0.1061
      6 C           5.6427   -1.9544   24.3088 C.ar    1  UNL1        0.0683
      7 C           6.6070   -3.0689   24.0292 C.ar    1  UNL1        0.0854
      8 C           7.5813   -2.9507   22.8948 C.ar    1  UNL1        0.0193
      9 C           8.5456   -4.0650   22.6152 C.ar    1  UNL1        0.0030
     10 C           8.5357   -5.2977   23.4700 C.ar    1  UNL1        0.0177
     11 C           9.5000   -6.4121   23.1904 C.ar    1  UNL1        0.0015
     12 C           9.4900   -7.6446   24.0451 C.ar    1  UNL1        0.0001
     13 C           8.5157   -7.7628   25.1795 C.ar    1  UNL1        0.0015
     14 C           7.5514   -6.6484   25.4591 C.ar    1  UNL1        0.0191
     15 C           7.5614   -5.4159   24.6044 C.ar    1  UNL1        0.0813
     16 N           6.5970   -4.3014   24.8839 N.ar    1  UNL1       -0.2452
     17 N           3.9976   -2.9380   22.5549 N.pl3   1  UNL1       -0.3172
     18 H           3.6613   -3.8160   22.8470 H       1  UNL1        0.1482
     19 C           3.9626   -1.6251   18.9024 C.3     1  UNL1        0.0604
     20 C           3.5075   -1.5412   20.3292 C.3     1  UNL1        0.0271
     21 C           4.1696   -2.6494   21.0930 C.3     1  UNL1        0.0998
     22 C           5.0340   -3.4183   20.1382 C.3     1  UNL1        0.1549
     23 O           5.8781   -4.6109   20.4776 O.3     1  UNL1       -0.3803
     24 C           4.9061   -2.7853   18.7843 C.3     1  UNL1        0.1412
     25 O           5.5998   -3.2337   17.5323 O.3     1  UNL1       -0.3818
     26 H           6.3375   -4.9192   19.6809 H       1  UNL1        0.2105
     27 H           6.1530   -4.0061   17.7281 H       1  UNL1        0.2104
     28 O           3.6968   -1.1480   16.3624 O.3     1  UNL1       -0.3819
     29 C           3.5473   -0.7097   17.7891 C.3     1  UNL1        0.1396
     30 H           3.3840   -0.4437   15.7733 H       1  UNL1        0.2104
     31 N           2.7497    1.3888   25.1474 N.pl3   1  UNL1       -0.2823
     32 H           2.8187    2.2358   24.6504 H       1  UNL1        0.1551
     33 C           1.6802    1.2127   26.1843 C.ar    1  UNL1        0.0567
     34 C           0.3096    1.7761   25.9512 C.ar    1  UNL1        0.0356
     35 C          -0.7600    1.5999   26.9881 C.ar    1  UNL1        0.1033
     36 N          -0.4589    0.8604   28.2580 N.ar    1  UNL1       -0.2101
     37 C           0.9116    0.2971   28.4910 C.ar    1  UNL1        0.2260
     38 C           1.9811    0.4732   27.4541 C.ar    1  UNL1        0.0724
     39 O           1.2126   -0.4424   29.7609 O.3     1  UNL1       -0.4640
     40 C           2.5073   -0.2029   30.4793 C.3     1  UNL1        0.1678
     41 C           3.7522   -0.7349   31.1252 C.3     1  UNL1        0.0473
     42 C           3.5050    0.7438   31.0779 C.3     1  UNL1        0.0473
@<TRIPOS>BOND
     1    28    29    1
     2    19    29    1
     3    19    20    1
     4    20    21    1
     5    21    17    1
     6    17     1    1
     7     1     2   ar
     8     2     3   ar
     9     3    31    1
    10    31    33    1
    11    33    34   ar
    12    34    35   ar
    13    35    36   ar
    14    36    37   ar
    15    37    39    1
    16    39    40    1
    17    40    41    1
    18    41    42    1
    19    37    38   ar
    20     3     4   ar
    21     4     5   ar
    22     5     6   ar
    23     6     7    1
    24     7     8   ar
    25     8     9   ar
    26     9    10   ar
    27    10    11   ar
    28    11    12   ar
    29    12    13   ar
    30    13    14   ar
    31    14    15   ar
    32    15    16   ar
    33    21    22    1
    34    22    23    1
    35    22    24    1
    36    24    25    1
    37    24    19    1
    38     6     1   ar
    39    16     7   ar
    40    38    33   ar
    41    15    10   ar
    42    42    40    1
    43    28    30    1
    44    17    18    1
    45    31    32    1
    46    23    26    1
    47    25    27    1
@<TRIPOS>MOLECULE
*****
 42 47 0 0 0
SMALL
GASTEIGER

@<TRIPOS>ATOM
      1 C           6.4565   -3.3696   21.1026 C.ar    1  UNL1        0.1343
      2 N           6.2137   -2.3648   20.0157 N.ar    1  UNL1       -0.1988
      3 C           7.3344   -1.9602   19.1045 C.ar    1  UNL1        0.2218
      4 N           8.6978   -2.5604   19.2801 N.ar    1  UNL1       -0.2119
      5 C           8.9406   -3.5652   20.3670 C.ar    1  UNL1        0.1061
      6 C           7.8199   -3.9698   21.2782 C.ar    1  UNL1        0.0683
      7 C           8.0627   -4.9747   22.3652 C.ar    1  UNL1        0.0854
      8 C           8.9066   -6.1846   22.0932 C.ar    1  UNL1        0.0193
      9 C           9.1493   -7.1894   23.1801 C.ar    1  UNL1        0.0030
     10 C           8.5482   -6.9844   24.5390 C.ar    1  UNL1        0.0177
     11 C           8.7909   -7.9892   25.6259 C.ar    1  UNL1        0.0015
     12 C           8.1898   -7.7841   26.9848 C.ar    1  UNL1        0.0001
     13 C           7.3460   -6.5742   27.2568 C.ar    1  UNL1        0.0015
     14 C           7.1032   -5.5693   26.1699 C.ar    1  UNL1        0.0191
     15 C           7.7043   -5.7744   24.8110 C.ar    1  UNL1        0.0813
     16 N           7.4616   -4.7696   23.7241 N.ar    1  UNL1       -0.2452
     17 N           5.3358   -3.7743   22.0138 N.pl3   1  UNL1       -0.3172
     18 H           5.0583   -4.7176   22.0639 H       1  UNL1        0.1482
     19 C           3.9116   -1.4132   24.7455 C.3     1  UNL1        0.0604
     20 C           4.7898   -2.5559   24.3295 C.3     1  UNL1        0.0271
     21 C           4.6381   -2.7419   22.8488 C.3     1  UNL1        0.0998
     22 C           3.6662   -1.7141   22.3498 C.3     1  UNL1        0.1549
     23 O           3.2213   -1.5383   20.9281 O.3     1  UNL1       -0.3803
     24 C           3.2172   -0.8929   23.5220 C.3     1  UNL1        0.1412
     25 O           2.2445    0.2482   23.4782 O.3     1  UNL1       -0.3818
     26 H           2.5901   -0.8038   20.8753 H       1  UNL1        0.2105
     27 H           1.9424    0.3807   22.5661 H       1  UNL1        0.2104
     28 O           3.2390   -1.7777   27.2283 O.3     1  UNL1       -0.3819
     29 C           3.7553   -0.8837   26.1402 C.3     1  UNL1        0.1396
     30 H           3.1994   -1.2830   28.0618 H       1  UNL1        0.2104
     31 N           7.0917   -0.9553   18.0175 N.pl3   1  UNL1       -0.2823
     32 H           7.6242   -0.9869   17.1900 H       1  UNL1        0.1551
     33 C           6.0376    0.0976   18.1913 C.ar    1  UNL1        0.0567
     34 C           6.4318    1.5049   18.5292 C.ar    1  UNL1        0.0356
     35 C           5.3777    2.5579   18.7030 C.ar    1  UNL1        0.1033
     36 N           3.9294    2.2035   18.5389 N.ar    1  UNL1       -0.2101
     37 C           3.5352    0.7962   18.2011 C.ar    1  UNL1        0.2260
     38 C           4.5893   -0.2567   18.0273 C.ar    1  UNL1        0.0724
     39 O           2.0870    0.4419   18.0371 O.3     1  UNL1       -0.4640
     40 C           1.1197    0.7036   19.1533 C.3     1  UNL1        0.1678
     41 C           0.3170    0.2082   20.3195 C.3     1  UNL1        0.0473
     42 C           0.2471    1.6524   19.9203 C.3     1  UNL1        0.0473
@<TRIPOS>BOND
     1    28    29    1
     2    19    29    1
     3    19    20    1
     4    20    21    1
     5    21    17    1
     6    17     1    1
     7     1     2   ar
     8     2     3   ar
     9     3    31    1
    10    31    33    1
    11    33    34   ar
    12    34    35   ar
    13    35    36   ar
    14    36    37   ar
    15    37    39    1
    16    39    40    1
    17    40    41    1
    18    41    42    1
    19    37    38   ar
    20     3     4   ar
    21     4     5   ar
    22     5     6   ar
    23     6     7    1
    24     7     8   ar
    25     8     9   ar
    26     9    10   ar
    27    10    11   ar
    28    11    12   ar
    29    12    13   ar
    30    13    14   ar
    31    14    15   ar
    32    15    16   ar
    33    21    22    1
    34    22    23    1
    35    22    24    1
    36    24    25    1
    37    24    19    1
    38     6     1   ar
    39    16     7   ar
    40    38    33   ar
    41    15    10   ar
    42    42    40    1
    43    28    30    1
    44    17    18    1
    45    31    32    1
    46    23    26    1
    47    25    27    1
