@<TRIPOS>MOLECULE
*****
 30 32 0 0 0
SMALL
GASTEIGER

@<TRIPOS>ATOM
      1 C          -6.8637  -18.6736   21.3075 C.3     1  UNL1        0.0295
      2 C          -6.2478  -19.5302   20.2411 C.3     1  UNL1        0.0048
      3 C          -4.8472  -19.8111   19.7837 C.3     1  UNL1        0.0004
      4 C          -7.6128  -19.9895   19.8218 C.3     1  UNL1        0.0048
      5 C          -8.1425  -20.9199   18.7712 C.3     1  UNL1        0.0004
      6 C          -8.2287  -19.1329   20.8880 C.3     1  UNL1        0.0295
      7 C          -5.2746  -15.8823   24.4592 C.ar    1  UNL1        0.1754
      8 C          -4.3799  -16.9287   23.8640 C.ar    1  UNL1        0.0766
      9 C          -4.9095  -17.8592   22.8134 C.ar    1  UNL1        0.1379
     10 C          -6.3340  -17.7432   22.3581 C.ar    1  UNL1        0.0150
     11 C          -7.2288  -16.6968   22.9533 C.ar    1  UNL1        0.0388
     12 C          -6.6991  -15.7663   24.0039 C.ar    1  UNL1        0.1723
     13 C          -5.5016  -14.7579   26.7903 C.3     1  UNL1        0.2526
     14 O          -4.7449  -14.9519   25.5098 O.3     1  UNL1       -0.4683
     15 O          -4.0147  -18.9056   22.2182 O.3     1  UNL1       -0.4716
     16 C          -2.5305  -18.6915   22.1830 C.3     1  UNL1        0.2525
     17 O          -7.5940  -14.7199   24.5991 O.3     1  UNL1       -0.4684
     18 C          -8.8483  -15.1248   25.3152 C.3     1  UNL1        0.2526
     19 C          -9.6294  -18.8520   21.3455 C.ar    1  UNL1        0.0150
     20 C         -10.4957  -17.9041   20.5702 C.ar    1  UNL1        0.0388
     21 C         -11.8963  -17.6232   21.0276 C.ar    1  UNL1        0.1723
     22 C         -12.4307  -18.2902   22.2603 C.ar    1  UNL1        0.1754
     23 C         -11.5644  -19.2381   23.0356 C.ar    1  UNL1        0.0766
     24 C         -10.1638  -19.5190   22.5781 C.ar    1  UNL1        0.1379
     25 O         -12.7626  -16.6753   20.2523 O.3     1  UNL1       -0.4684
     26 C         -12.1372  -15.6716   19.3295 C.3     1  UNL1        0.2526
     27 O         -13.8314  -18.0093   22.7177 O.3     1  UNL1       -0.4683
     28 C         -14.1816  -18.1191   24.1721 C.3     1  UNL1        0.2526
     29 O          -9.2975  -20.4669   23.3534 O.3     1  UNL1       -0.4716
     30 C          -9.6686  -20.8451   24.7567 C.3     1  UNL1        0.2525
@<TRIPOS>BOND
     1    13    14    1
     2    14     7    1
     3     7     8   ar
     4     8     9   ar
     5     9    15    1
     6    15    16    1
     7     9    10   ar
     8     1    10    1
     9     1     2    1
    10     2     3    1
    11     2     4    1
    12     4     5    1
    13     4     6    1
    14     6    19    1
    15    19    20   ar
    16    20    21   ar
    17    21    25    1
    18    25    26    1
    19    21    22   ar
    20    22    27    1
    21    27    28    1
    22    22    23   ar
    23    23    24   ar
    24    24    29    1
    25    29    30    1
    26    10    11   ar
    27    11    12   ar
    28    12    17    1
    29    17    18    1
    30    12     7   ar
    31     6     1    1
    32    24    19   ar
@<TRIPOS>MOLECULE
*****
 30 32 0 0 0
SMALL
GASTEIGER

@<TRIPOS>ATOM
      1 C          -8.2431  -19.1186   20.8763 C.3     1  UNL1        0.0295
      2 C          -7.6335  -19.9660   19.7991 C.3     1  UNL1        0.0048
      3 C          -8.1695  -20.8850   18.7416 C.3     1  UNL1        0.0004
      4 C          -6.2659  -19.5138   20.2174 C.3     1  UNL1        0.0048
      5 C          -4.8677  -19.7932   19.7515 C.3     1  UNL1        0.0004
      6 C          -6.8754  -18.6664   21.2946 C.3     1  UNL1        0.0295
      7 C         -12.4376  -18.2803   22.2740 C.ar    1  UNL1        0.1754
      8 C         -11.5642  -19.2239   23.0465 C.ar    1  UNL1        0.0766
      9 C         -10.1660  -19.5033   22.5806 C.ar    1  UNL1        0.1379
     10 C          -9.6413  -18.8392   21.3422 C.ar    1  UNL1        0.0150
     11 C         -10.5148  -17.8957   20.5697 C.ar    1  UNL1        0.0388
     12 C         -11.9129  -17.6162   21.0356 C.ar    1  UNL1        0.1723
     13 C         -14.1755  -18.1043   24.1972 C.3     1  UNL1        0.2526
     14 O         -13.8358  -18.0009   22.7399 O.3     1  UNL1       -0.4683
     15 O          -9.2925  -20.4469   23.3531 O.3     1  UNL1       -0.4716
     16 C          -9.6734  -20.8510   24.7465 C.3     1  UNL1        0.2525
     17 O         -12.7864  -16.6726   20.2631 O.3     1  UNL1       -0.4684
     18 C         -12.1716  -15.6947   19.3062 C.3     1  UNL1        0.2526
     19 C          -6.3394  -17.7475   22.3521 C.ar    1  UNL1        0.0150
     20 C          -7.2253  -16.6955   22.9508 C.ar    1  UNL1        0.0388
     21 C          -6.6893  -15.7765   24.0083 C.ar    1  UNL1        0.1723
     22 C          -5.2673  -15.9096   24.4670 C.ar    1  UNL1        0.1754
     23 C          -4.3815  -16.9616   23.8683 C.ar    1  UNL1        0.0766
     24 C          -4.9175  -17.8806   22.8108 C.ar    1  UNL1        0.1379
     25 O          -7.5752  -14.7245   24.6070 O.3     1  UNL1       -0.4684
     26 C          -8.8425  -15.1198   25.3055 C.3     1  UNL1        0.2526
     27 O          -4.7313  -14.9907   25.5245 O.3     1  UNL1       -0.4683
     28 C          -5.5018  -14.7775   26.7936 C.3     1  UNL1        0.2526
     29 O          -4.0316  -18.9326   22.2121 O.3     1  UNL1       -0.4716
     30 C          -2.5468  -18.7248   22.1649 C.3     1  UNL1        0.2525
@<TRIPOS>BOND
     1    13    14    1
     2    14     7    1
     3     7     8   ar
     4     8     9   ar
     5     9    15    1
     6    15    16    1
     7     9    10   ar
     8     1    10    1
     9     1     2    1
    10     2     3    1
    11     2     4    1
    12     4     5    1
    13     4     6    1
    14     6    19    1
    15    19    20   ar
    16    20    21   ar
    17    21    25    1
    18    25    26    1
    19    21    22   ar
    20    22    27    1
    21    27    28    1
    22    22    23   ar
    23    23    24   ar
    24    24    29    1
    25    29    30    1
    26    10    11   ar
    27    11    12   ar
    28    12    17    1
    29    17    18    1
    30    12     7   ar
    31     6     1    1
    32    24    19   ar
@<TRIPOS>MOLECULE
*****
 30 32 0 0 0
SMALL
GASTEIGER

@<TRIPOS>ATOM
      1 C          -6.5259  -16.6945   24.2605 C.3     1  UNL1        0.0295
      2 C          -6.3295  -16.0572   25.6042 C.3     1  UNL1        0.0048
      3 C          -5.1621  -15.8645   26.5263 C.3     1  UNL1        0.0004
      4 C          -7.7839  -15.6925   25.6438 C.3     1  UNL1        0.0048
      5 C          -8.6734  -14.9840   26.6220 C.3     1  UNL1        0.0004
      6 C          -7.9804  -16.3297   24.3002 C.3     1  UNL1        0.0295
      7 C          -3.8573  -18.8200   21.3261 C.ar    1  UNL1        0.1754
      8 C          -5.3045  -19.1992   21.4348 C.ar    1  UNL1        0.0766
      9 C          -6.1940  -18.4907   22.4130 C.ar    1  UNL1        0.1379
     10 C          -5.6364  -17.4030   23.2824 C.ar    1  UNL1        0.0150
     11 C          -4.1892  -17.0238   23.1737 C.ar    1  UNL1        0.0388
     12 C          -3.2997  -17.7323   22.1955 C.ar    1  UNL1        0.1723
     13 C          -2.6389  -18.8872   19.0324 C.3     1  UNL1        0.2526
     14 O          -2.9678  -19.5284   20.3480 O.3     1  UNL1       -0.4683
     15 O          -7.6412  -18.8699   22.5217 O.3     1  UNL1       -0.4716
     16 C          -8.3707  -19.3969   21.3216 C.3     1  UNL1        0.2525
     17 O          -1.8524  -17.3530   22.0868 O.3     1  UNL1       -0.4684
     18 C          -1.4381  -16.2253   21.1887 C.3     1  UNL1        0.2526
     19 C          -9.1478  -16.5224   23.3782 C.ar    1  UNL1        0.0150
     20 C         -10.2968  -17.3922   23.7946 C.ar    1  UNL1        0.0388
     21 C         -11.4642  -17.5849   22.8725 C.ar    1  UNL1        0.1723
     22 C         -11.4825  -16.9078   21.5341 C.ar    1  UNL1        0.1754
     23 C         -10.3335  -16.0381   21.1178 C.ar    1  UNL1        0.0766
     24 C          -9.1661  -15.8454   22.0398 C.ar    1  UNL1        0.1379
     25 O         -12.6131  -18.4546   23.2889 O.3     1  UNL1       -0.4684
     26 C         -13.7922  -17.8528   23.9945 C.3     1  UNL1        0.2526
     27 O         -12.6498  -17.1005   20.6121 O.3     1  UNL1       -0.4683
     28 C         -12.9653  -16.0640   19.5747 C.3     1  UNL1        0.2526
     29 O          -8.0171  -14.9757   21.6235 O.3     1  UNL1       -0.4716
     30 C          -8.1898  -13.9881   20.5077 C.3     1  UNL1        0.2525
@<TRIPOS>BOND
     1    13    14    1
     2    14     7    1
     3     7     8   ar
     4     8     9   ar
     5     9    15    1
     6    15    16    1
     7     9    10   ar
     8     1    10    1
     9     1     2    1
    10     2     3    1
    11     2     4    1
    12     4     5    1
    13     4     6    1
    14     6    19    1
    15    19    20   ar
    16    20    21   ar
    17    21    25    1
    18    25    26    1
    19    21    22   ar
    20    22    27    1
    21    27    28    1
    22    22    23   ar
    23    23    24   ar
    24    24    29    1
    25    29    30    1
    26    10    11   ar
    27    11    12   ar
    28    12    17    1
    29    17    18    1
    30    12     7   ar
    31     6     1    1
    32    24    19   ar
@<TRIPOS>MOLECULE
*****
 30 32 0 0 0
SMALL
GASTEIGER

@<TRIPOS>ATOM
      1 C          -7.9672  -16.3360   24.3227 C.3     1  UNL1        0.0295
      2 C          -7.7574  -15.7025   25.6662 C.3     1  UNL1        0.0048
      3 C          -8.6364  -14.9937   26.6535 C.3     1  UNL1        0.0004
      4 C          -6.3045  -16.0716   25.6132 C.3     1  UNL1        0.0048
      5 C          -5.1287  -15.8845   26.5257 C.3     1  UNL1        0.0004
      6 C          -6.5142  -16.7050   24.2698 C.3     1  UNL1        0.0295
      7 C         -11.4944  -16.8971   21.5852 C.ar    1  UNL1        0.1754
      8 C         -10.3486  -16.0259   21.1632 C.ar    1  UNL1        0.0766
      9 C          -9.1729  -15.8389   22.0757 C.ar    1  UNL1        0.1379
     10 C          -9.1429  -16.5231   23.4102 C.ar    1  UNL1        0.0150
     11 C         -10.2887  -17.3943   23.8322 C.ar    1  UNL1        0.0388
     12 C         -11.4644  -17.5813   22.9197 C.ar    1  UNL1        0.1723
     13 C         -12.9261  -16.1019   19.5683 C.3     1  UNL1        0.2526
     14 O         -12.6701  -17.0842   20.6727 O.3     1  UNL1       -0.4683
     15 O          -8.0271  -14.9676   21.6537 O.3     1  UNL1       -0.4716
     16 C          -8.2001  -13.9958   20.5242 C.3     1  UNL1        0.2525
     17 O         -12.6102  -18.4526   23.3417 O.3     1  UNL1       -0.4684
     18 C         -13.8031  -17.8466   24.0198 C.3     1  UNL1        0.2526
     19 C          -5.6351  -17.4139   23.2825 C.ar    1  UNL1        0.0150
     20 C          -4.1857  -17.0448   23.1686 C.ar    1  UNL1        0.0388
     21 C          -3.3066  -17.7537   22.1813 C.ar    1  UNL1        0.1723
     22 C          -3.8770  -18.8316   21.3079 C.ar    1  UNL1        0.1754
     23 C          -5.3264  -19.2006   21.4218 C.ar    1  UNL1        0.0766
     24 C          -6.2055  -18.4918   22.4091 C.ar    1  UNL1        0.1379
     25 O          -1.8572  -17.3847   22.0674 O.3     1  UNL1       -0.4684
     26 C          -1.4398  -16.2492   21.1804 C.3     1  UNL1        0.2526
     27 O          -2.9980  -19.5404   20.3205 O.3     1  UNL1       -0.4683
     28 C          -2.6749  -18.8953   19.0055 C.3     1  UNL1        0.2526
     29 O          -7.6549  -18.8608   22.5230 O.3     1  UNL1       -0.4716
     30 C          -8.3805  -19.4255   21.3378 C.3     1  UNL1        0.2525
@<TRIPOS>BOND
     1    13    14    1
     2    14     7    1
     3     7     8   ar
     4     8     9   ar
     5     9    15    1
     6    15    16    1
     7     9    10   ar
     8     1    10    1
     9     1     2    1
    10     2     3    1
    11     2     4    1
    12     4     5    1
    13     4     6    1
    14     6    19    1
    15    19    20   ar
    16    20    21   ar
    17    21    25    1
    18    25    26    1
    19    21    22   ar
    20    22    27    1
    21    27    28    1
    22    22    23   ar
    23    23    24   ar
    24    24    29    1
    25    29    30    1
    26    10    11   ar
    27    11    12   ar
    28    12    17    1
    29    17    18    1
    30    12     7   ar
    31     6     1    1
    32    24    19   ar
@<TRIPOS>MOLECULE
*****
 30 32 0 0 0
SMALL
GASTEIGER

@<TRIPOS>ATOM
      1 C          -9.0121  -18.7497   21.3494 C.3     1  UNL1        0.0295
      2 C         -10.3057  -18.7790   20.5907 C.3     1  UNL1        0.0048
      3 C         -10.7494  -19.3392   19.2719 C.3     1  UNL1        0.0004
      4 C         -10.9719  -18.0160   21.6971 C.3     1  UNL1        0.0048
      5 C         -12.3577  -17.4973   21.9430 C.3     1  UNL1        0.0004
      6 C          -9.6783  -17.9867   22.4559 C.3     1  UNL1        0.0295
      7 C          -4.8547  -20.3060   20.6119 C.ar    1  UNL1        0.1754
      8 C          -5.9264  -20.5128   19.5831 C.ar    1  UNL1        0.0766
      9 C          -7.3122  -19.9940   19.8289 C.ar    1  UNL1        0.1379
     10 C          -7.6263  -19.2684   21.1036 C.ar    1  UNL1        0.0150
     11 C          -6.5545  -19.0616   22.1325 C.ar    1  UNL1        0.0388
     12 C          -5.1687  -19.5804   21.8866 C.ar    1  UNL1        0.1723
     13 C          -2.3119  -19.8723   20.3020 C.3     1  UNL1        0.2526
     14 O          -3.4689  -20.8247   20.3661 O.3     1  UNL1       -0.4683
     15 O          -8.3840  -20.2008   18.8000 O.3     1  UNL1       -0.4716
     16 C          -8.4381  -21.4811   18.0204 C.3     1  UNL1        0.2525
     17 O          -4.0970  -19.3736   22.9155 O.3     1  UNL1       -0.4684
     18 C          -3.6858  -17.9835   23.3013 C.3     1  UNL1        0.2526
     19 C          -9.2346  -17.4264   23.7747 C.ar    1  UNL1        0.0150
     20 C          -8.2467  -16.2984   23.8162 C.ar    1  UNL1        0.0388
     21 C          -7.8030  -15.7381   25.1350 C.ar    1  UNL1        0.1723
     22 C          -8.3472  -16.3059   26.4123 C.ar    1  UNL1        0.1754
     23 C          -9.3351  -17.4339   26.3708 C.ar    1  UNL1        0.0766
     24 C          -9.7788  -17.9941   25.0520 C.ar    1  UNL1        0.1379
     25 O          -6.8151  -14.6102   25.1765 O.3     1  UNL1       -0.4684
     26 C          -5.3814  -14.8812   25.5244 C.3     1  UNL1        0.2526
     27 O          -7.9035  -15.7457   27.7311 O.3     1  UNL1       -0.4683
     28 C          -8.4494  -14.4333   28.2103 C.3     1  UNL1        0.2526
     29 O         -10.7666  -19.1221   25.0104 O.3     1  UNL1       -0.4716
     30 C         -10.2995  -20.5180   24.7214 C.3     1  UNL1        0.2525
@<TRIPOS>BOND
     1    13    14    1
     2    14     7    1
     3     7     8   ar
     4     8     9   ar
     5     9    15    1
     6    15    16    1
     7     9    10   ar
     8     1    10    1
     9     1     2    1
    10     2     3    1
    11     2     4    1
    12     4     5    1
    13     4     6    1
    14     6    19    1
    15    19    20   ar
    16    20    21   ar
    17    21    25    1
    18    25    26    1
    19    21    22   ar
    20    22    27    1
    21    27    28    1
    22    22    23   ar
    23    23    24   ar
    24    24    29    1
    25    29    30    1
    26    10    11   ar
    27    11    12   ar
    28    12    17    1
    29    17    18    1
    30    12     7   ar
    31     6     1    1
    32    24    19   ar
@<TRIPOS>MOLECULE
*****
 30 32 0 0 0
SMALL
GASTEIGER

@<TRIPOS>ATOM
      1 C          -8.4012  -18.5528   21.2558 C.3     1  UNL1        0.0295
      2 C          -9.4211  -19.0994   20.3013 C.3     1  UNL1        0.0048
      3 C         -10.9182  -19.0651   20.2145 C.3     1  UNL1        0.0004
      4 C          -8.3238  -19.6946   19.4697 C.3     1  UNL1        0.0048
      5 C          -8.2690  -20.5019   18.2066 C.3     1  UNL1        0.0004
      6 C          -7.3038  -19.1480   20.4241 C.3     1  UNL1        0.0295
      7 C          -8.5654  -16.1307   25.0448 C.ar    1  UNL1        0.1754
      8 C          -9.5719  -17.2167   24.8046 C.ar    1  UNL1        0.0766
      9 C          -9.5171  -18.0241   23.5416 C.ar    1  UNL1        0.1379
     10 C          -8.4559  -17.7454   22.5188 C.ar    1  UNL1        0.0150
     11 C          -7.4495  -16.6595   22.7590 C.ar    1  UNL1        0.0388
     12 C          -7.5043  -15.8521   24.0220 C.ar    1  UNL1        0.1723
     13 C          -8.0166  -15.8638   27.5702 C.3     1  UNL1        0.2526
     14 O          -8.6202  -15.3234   26.3078 O.3     1  UNL1       -0.4683
     15 O         -10.5236  -19.1101   23.3015 O.3     1  UNL1       -0.4716
     16 C         -10.3185  -20.4690   23.9024 C.3     1  UNL1        0.2525
     17 O          -6.4978  -14.7661   24.2621 O.3     1  UNL1       -0.4684
     18 C          -5.2927  -15.0353   25.1138 C.3     1  UNL1        0.2526
     19 C          -5.8067  -19.1823   20.5109 C.ar    1  UNL1        0.0150
     20 C          -4.9773  -18.7124   19.3527 C.ar    1  UNL1        0.0388
     21 C          -3.4803  -18.7467   19.4395 C.ar    1  UNL1        0.1723
     22 C          -2.8126  -19.2509   20.6845 C.ar    1  UNL1        0.1754
     23 C          -3.6419  -19.7207   21.8427 C.ar    1  UNL1        0.0766
     24 C          -5.1390  -19.6864   21.7559 C.ar    1  UNL1        0.1379
     25 O          -2.6509  -18.2768   18.2814 O.3     1  UNL1       -0.4684
     26 C          -2.7518  -16.8548   17.8146 C.3     1  UNL1        0.2526
     27 O          -1.3155  -19.2852   20.7714 O.3     1  UNL1       -0.4683
     28 C          -0.5207  -18.0386   20.5175 C.3     1  UNL1        0.2526
     29 O          -5.9684  -20.1562   22.9140 O.3     1  UNL1       -0.4716
     30 C          -6.7594  -21.4261   22.8038 C.3     1  UNL1        0.2525
@<TRIPOS>BOND
     1    13    14    1
     2    14     7    1
     3     7     8   ar
     4     8     9   ar
     5     9    15    1
     6    15    16    1
     7     9    10   ar
     8     1    10    1
     9     1     2    1
    10     2     3    1
    11     2     4    1
    12     4     5    1
    13     4     6    1
    14     6    19    1
    15    19    20   ar
    16    20    21   ar
    17    21    25    1
    18    25    26    1
    19    21    22   ar
    20    22    27    1
    21    27    28    1
    22    22    23   ar
    23    23    24   ar
    24    24    29    1
    25    29    30    1
    26    10    11   ar
    27    11    12   ar
    28    12    17    1
    29    17    18    1
    30    12     7   ar
    31     6     1    1
    32    24    19   ar
@<TRIPOS>MOLECULE
*****
 30 32 0 0 0
SMALL
GASTEIGER

@<TRIPOS>ATOM
      1 C           3.1486   -1.3442   20.9278 C.3     1  UNL1        0.0295
      2 C           3.6677   -2.7067   20.5751 C.3     1  UNL1        0.0048
      3 C           3.5951   -3.5886   19.3639 C.3     1  UNL1        0.0004
      4 C           4.2894   -2.8218   21.9354 C.3     1  UNL1        0.0048
      5 C           5.0960   -3.8667   22.6478 C.3     1  UNL1        0.0004
      6 C           3.7704   -1.4594   22.2881 C.3     1  UNL1        0.0295
      7 C           0.7287    1.7904   18.7905 C.ar    1  UNL1        0.1754
      8 C           2.0008    1.2802   18.1810 C.ar    1  UNL1        0.0766
      9 C           2.8074    0.2353   18.8934 C.ar    1  UNL1        0.1379
     10 C           2.3420   -0.2993   20.2154 C.ar    1  UNL1        0.0150
     11 C           1.0700    0.2109   20.8248 C.ar    1  UNL1        0.0388
     12 C           0.2633    1.2558   20.1124 C.ar    1  UNL1        0.1723
     13 C           0.3350    4.2758   18.1441 C.3     1  UNL1        0.2526
     14 O          -0.0779    2.8353   18.0780 O.3     1  UNL1       -0.4683
     15 O           4.0795   -0.2749   18.2839 O.3     1  UNL1       -0.4716
     16 C           4.0757   -0.8198   16.8864 C.3     1  UNL1        0.2525
     17 O          -1.0088    1.7661   20.7219 O.3     1  UNL1       -0.4684
     18 C          -0.9968    3.0231   21.5403 C.3     1  UNL1        0.2526
     19 C           3.8430   -0.5775   23.4993 C.ar    1  UNL1        0.0150
     20 C           2.5877   -0.2003   24.2287 C.ar    1  UNL1        0.0388
     21 C           2.6603    0.6816   25.4399 C.ar    1  UNL1        0.1723
     22 C           3.9882    1.1863   25.9216 C.ar    1  UNL1        0.1754
     23 C           5.2434    0.8091   25.1922 C.ar    1  UNL1        0.0766
     24 C           5.1708   -0.0728   23.9810 C.ar    1  UNL1        0.1379
     25 O           1.4051    1.0588   26.1693 O.3     1  UNL1       -0.4684
     26 C           0.1424    1.3211   25.4032 C.3     1  UNL1        0.2526
     27 O           4.0608    2.0682   27.1328 O.3     1  UNL1       -0.4683
     28 C           3.9474    1.4703   28.5038 C.3     1  UNL1        0.2526
     29 O           6.4260   -0.4500   23.2516 O.3     1  UNL1       -0.4716
     30 C           7.4913   -1.2409   23.9514 C.3     1  UNL1        0.2525
@<TRIPOS>BOND
     1    13    14    1
     2    14     7    1
     3     7     8   ar
     4     8     9   ar
     5     9    15    1
     6    15    16    1
     7     9    10   ar
     8     1    10    1
     9     1     2    1
    10     2     3    1
    11     2     4    1
    12     4     5    1
    13     4     6    1
    14     6    19    1
    15    19    20   ar
    16    20    21   ar
    17    21    25    1
    18    25    26    1
    19    21    22   ar
    20    22    27    1
    21    27    28    1
    22    22    23   ar
    23    23    24   ar
    24    24    29    1
    25    29    30    1
    26    10    11   ar
    27    11    12   ar
    28    12    17    1
    29    17    18    1
    30    12     7   ar
    31     6     1    1
    32    24    19   ar
@<TRIPOS>MOLECULE
*****
 30 32 0 0 0
SMALL
GASTEIGER

@<TRIPOS>ATOM
      1 C          -7.2730  -19.1477   20.4209 C.3     1  UNL1        0.0295
      2 C          -8.2934  -19.6955   19.4674 C.3     1  UNL1        0.0048
      3 C          -8.2392  -20.5053   18.2060 C.3     1  UNL1        0.0004
      4 C          -9.3902  -19.0980   20.2980 C.3     1  UNL1        0.0048
      5 C         -10.8873  -19.0628   20.2112 C.3     1  UNL1        0.0004
      6 C          -8.3700  -18.5502   21.2515 C.3     1  UNL1        0.0295
      7 C          -2.7818  -19.2532   20.6814 C.ar    1  UNL1        0.1754
      8 C          -3.6115  -19.7134   21.8432 C.ar    1  UNL1        0.0766
      9 C          -5.1086  -19.6783   21.7563 C.ar    1  UNL1        0.1379
     10 C          -5.7760  -19.1828   20.5077 C.ar    1  UNL1        0.0150
     11 C          -4.9463  -18.7226   19.3460 C.ar    1  UNL1        0.0388
     12 C          -3.4492  -18.7577   19.4328 C.ar    1  UNL1        0.1723
     13 C          -0.4878  -18.0495   20.4852 C.3     1  UNL1        0.2526
     14 O          -1.2848  -19.2883   20.7683 O.3     1  UNL1       -0.4683
     15 O          -5.9383  -20.1386   22.9182 O.3     1  UNL1       -0.4716
     16 C          -6.7709  -21.3806   22.7998 C.3     1  UNL1        0.2525
     17 O          -2.6195  -18.2974   18.2710 O.3     1  UNL1       -0.4684
     18 C          -2.7327  -16.8839   17.7819 C.3     1  UNL1        0.2526
     19 C          -8.4241  -17.7404   22.5129 C.ar    1  UNL1        0.0150
     20 C          -7.4112  -16.6609   22.7552 C.ar    1  UNL1        0.0388
     21 C          -7.4654  -15.8510   24.0167 C.ar    1  UNL1        0.1723
     22 C          -8.5325  -16.1208   25.0358 C.ar    1  UNL1        0.1754
     23 C          -9.5454  -17.2002   24.7935 C.ar    1  UNL1        0.0766
     24 C          -9.4912  -18.0101   23.5321 C.ar    1  UNL1        0.1379
     25 O          -6.4525  -14.7716   24.2590 O.3     1  UNL1       -0.4684
     26 C          -5.3094  -15.0131   25.1998 C.3     1  UNL1        0.2526
     27 O          -8.5867  -15.3110   26.2973 O.3     1  UNL1       -0.4683
     28 C          -8.1540  -15.9194   27.5983 C.3     1  UNL1        0.2526
     29 O         -10.5041  -19.0895   23.2897 O.3     1  UNL1       -0.4716
     30 C         -10.3373  -20.4331   23.9355 C.3     1  UNL1        0.2525
@<TRIPOS>BOND
     1    13    14    1
     2    14     7    1
     3     7     8   ar
     4     8     9   ar
     5     9    15    1
     6    15    16    1
     7     9    10   ar
     8     1    10    1
     9     1     2    1
    10     2     3    1
    11     2     4    1
    12     4     5    1
    13     4     6    1
    14     6    19    1
    15    19    20   ar
    16    20    21   ar
    17    21    25    1
    18    25    26    1
    19    21    22   ar
    20    22    27    1
    21    27    28    1
    22    22    23   ar
    23    23    24   ar
    24    24    29    1
    25    29    30    1
    26    10    11   ar
    27    11    12   ar
    28    12    17    1
    29    17    18    1
    30    12     7   ar
    31     6     1    1
    32    24    19   ar
@<TRIPOS>MOLECULE
*****
 30 32 0 0 0
SMALL
GASTEIGER

@<TRIPOS>ATOM
      1 C           3.7708   -1.4500   22.2805 C.3     1  UNL1        0.0295
      2 C           4.2784   -2.8143   21.9184 C.3     1  UNL1        0.0048
      3 C           5.0801   -3.8689   22.6220 C.3     1  UNL1        0.0004
      4 C           3.6521   -2.6871   20.5614 C.3     1  UNL1        0.0048
      5 C           3.5681   -3.5618   19.3458 C.3     1  UNL1        0.0004
      6 C           3.1445   -1.3228   20.9234 C.3     1  UNL1        0.0295
      7 C           4.0226    1.1743   25.9274 C.ar    1  UNL1        0.1754
      8 C           5.2755    0.7543   25.2177 C.ar    1  UNL1        0.0766
      9 C           5.1915   -0.1204   24.0020 C.ar    1  UNL1        0.1379
     10 C           3.8547   -0.5752   23.4962 C.ar    1  UNL1        0.0150
     11 C           2.6018   -0.1553   24.2060 C.ar    1  UNL1        0.0388
     12 C           2.6857    0.7194   25.4216 C.ar    1  UNL1        0.1723
     13 C           4.0365    1.4396   28.5119 C.3     1  UNL1        0.2526
     14 O           4.1065    2.0490   27.1431 O.3     1  UNL1       -0.4683
     15 O           6.4446   -0.5403   23.2922 O.3     1  UNL1       -0.4716
     16 C           7.4776   -1.3548   24.0128 C.3     1  UNL1        0.2525
     17 O           1.4327    1.1394   26.1314 O.3     1  UNL1       -0.4684
     18 C           0.1579    1.3167   25.3610 C.3     1  UNL1        0.2526
     19 C           2.3427   -0.2682   20.2199 C.ar    1  UNL1        0.0150
     20 C           1.0525    0.2141   20.8141 C.ar    1  UNL1        0.0388
     21 C           0.2507    1.2687   20.1106 C.ar    1  UNL1        0.1723
     22 C           0.7392    1.8410   18.8129 C.ar    1  UNL1        0.1754
     23 C           2.0293    1.3588   18.2188 C.ar    1  UNL1        0.0766
     24 C           2.8310    0.3041   18.9223 C.ar    1  UNL1        0.1379
     25 O          -1.0394    1.7509   20.7047 O.3     1  UNL1       -0.4684
     26 C          -1.0629    3.0025   21.5312 C.3     1  UNL1        0.2526
     27 O          -0.0626    2.8956   18.1093 O.3     1  UNL1       -0.4683
     28 C           0.5006    4.2750   17.9361 C.3     1  UNL1        0.2526
     29 O           4.1211   -0.1781   18.3282 O.3     1  UNL1       -0.4716
     30 C           4.1372   -0.7699   16.9499 C.3     1  UNL1        0.2525
@<TRIPOS>BOND
     1    13    14    1
     2    14     7    1
     3     7     8   ar
     4     8     9   ar
     5     9    15    1
     6    15    16    1
     7     9    10   ar
     8     1    10    1
     9     1     2    1
    10     2     3    1
    11     2     4    1
    12     4     5    1
    13     4     6    1
    14     6    19    1
    15    19    20   ar
    16    20    21   ar
    17    21    25    1
    18    25    26    1
    19    21    22   ar
    20    22    27    1
    21    27    28    1
    22    22    23   ar
    23    23    24   ar
    24    24    29    1
    25    29    30    1
    26    10    11   ar
    27    11    12   ar
    28    12    17    1
    29    17    18    1
    30    12     7   ar
    31     6     1    1
    32    24    19   ar
