@<TRIPOS>MOLECULE
*****
 30 32 0 0 0
SMALL
GASTEIGER

@<TRIPOS>ATOM
      1 N          -9.1659  -18.3702   23.0905 N.ar    1  UNL1       -0.3137
      2 C          -8.5818  -18.3198   21.7098 C.ar    1  UNL1        0.1363
      3 N          -7.6859  -17.1195   21.6292 N.ar    1  UNL1       -0.2280
      4 C          -7.7162  -16.4281   22.9600 C.ar    1  UNL1        0.1175
      5 C          -7.0290  -15.1945   23.4660 C.ar    1  UNL1        0.1193
      6 N          -7.2566  -14.7339   24.8752 N.ar    1  UNL1       -0.2382
      7 C          -8.1714  -15.5069   25.7784 C.ar    1  UNL1        0.1542
      8 C          -8.8585  -16.7405   25.2724 C.ar    1  UNL1        0.0418
      9 C          -8.6309  -17.2011   23.8632 C.ar    1  UNL1        0.0816
     10 C          -8.3989  -15.0463   27.1878 C.3     1  UNL1        0.4349
     11 F          -8.6264  -14.5857   28.5970 F       1  UNL1       -0.1644
     12 F          -9.6422  -14.3288   26.7526 F       1  UNL1       -0.1644
     13 F          -7.1556  -15.7637   27.6230 F       1  UNL1       -0.1644
     14 C          -9.5911  -20.6357   24.2892 C.3     1  UNL1        0.0265
     15 C         -10.1178  -19.4076   23.6079 C.3     1  UNL1        0.1073
     16 C          -8.8471  -19.2980   20.6040 C.3     1  UNL1        0.1319
     17 C         -10.1680  -19.2864   19.8934 C.3     1  UNL1        0.0270
     18 N          -7.7916  -20.2876   20.2088 N.3     1  UNL1       -0.1735
     19 H          -8.0015  -20.5762   19.2533 H       1  UNL1        0.1492
     20 S          -6.3451  -19.8914   20.2336 S.O2    1  UNL1        0.0621
     21 O          -6.5809  -18.9585   19.0829 O.2     1  UNL1       -0.1529
     22 O          -6.1092  -20.8243   21.3843 O.2     1  UNL1       -0.1529
     23 C          -4.8985  -19.4952   20.2583 C.ar    1  UNL1        0.1411
     24 C          -3.9945  -20.0235   21.3323 C.ar    1  UNL1        0.0238
     25 C          -2.5480  -19.6273   21.3571 C.ar    1  UNL1        0.0310
     26 C          -2.0055  -18.7028   20.3079 C.ar    1  UNL1        0.1492
     27 N          -2.9096  -18.1744   19.2338 N.ar    1  UNL1       -0.2321
     28 C          -4.3561  -18.5706   19.2090 C.ar    1  UNL1        0.1195
     29 C          -0.5590  -18.3065   20.3326 C.1     1  UNL1        0.1198
     30 N           0.8875  -17.9103   20.3574 N.1     1  UNL1       -0.1893
@<TRIPOS>BOND
     1    14    15    1
     2    15     1    1
     3     1     2   ar
     4     2    16    1
     5    16    17    1
     6    16    18    1
     7    18    20    1
     8    20    21    2
     9    20    22    2
    10    20    23    1
    11    23    24   ar
    12    24    25   ar
    13    25    26   ar
    14    26    29    1
    15    29    30    3
    16    26    27   ar
    17    27    28   ar
    18     2     3   ar
    19     3     4   ar
    20     4     5   ar
    21     5     6   ar
    22     6     7   ar
    23     7    10    1
    24    10    11    1
    25    10    12    1
    26    10    13    1
    27     7     8   ar
    28     8     9   ar
    29     9     1   ar
    30    28    23   ar
    31     9     4   ar
    32    18    19    1
@<TRIPOS>MOLECULE
*****
 30 32 0 0 0
SMALL
GASTEIGER

@<TRIPOS>ATOM
      1 N         -10.1473  -17.6274   23.6879 N.ar    1  UNL1       -0.3137
      2 C         -10.1871  -17.4797   22.1958 C.ar    1  UNL1        0.1363
      3 N          -9.2299  -16.3903   21.8122 N.ar    1  UNL1       -0.2280
      4 C          -8.5986  -15.8647   23.0673 C.ar    1  UNL1        0.1175
      5 C          -7.5808  -14.7888   23.3042 C.ar    1  UNL1        0.1193
      6 N          -7.1299  -14.4774   24.7005 N.ar    1  UNL1       -0.2382
      7 C          -7.6969  -15.2419   25.8598 C.ar    1  UNL1        0.1542
      8 C          -8.7147  -16.3179   25.6229 C.ar    1  UNL1        0.0418
      9 C          -9.1656  -16.6293   24.2266 C.ar    1  UNL1        0.0816
     10 C          -7.2459  -14.9304   27.2562 C.3     1  UNL1        0.4349
     11 F          -6.7950  -14.6190   28.6524 F       1  UNL1       -0.1644
     12 F          -8.6762  -14.8000   27.6890 F       1  UNL1       -0.1644
     13 F          -5.8157  -15.0609   26.8234 F       1  UNL1       -0.1644
     14 C         -10.4003  -19.9684   24.7860 C.3     1  UNL1        0.0265
     15 C         -10.9486  -18.6020   24.4991 C.3     1  UNL1        0.1073
     16 C         -11.0351  -18.2807   21.2528 C.3     1  UNL1        0.1319
     17 C         -12.5173  -18.0561   21.2018 C.3     1  UNL1        0.0270
     18 N         -10.4009  -19.3064   20.3608 N.3     1  UNL1       -0.1735
     19 H         -10.6587  -19.0643   19.4040 H       1  UNL1        0.1492
     20 S          -8.9128  -19.4946   20.3739 S.O2    1  UNL1        0.0621
     21 O          -8.8246  -18.8922   19.0030 O.2     1  UNL1       -0.1529
     22 O          -9.0011  -20.0970   21.7448 O.2     1  UNL1       -0.1529
     23 C          -7.4248  -19.6828   20.3871 C.ar    1  UNL1        0.1411
     24 C          -6.8307  -20.9927   19.9616 C.ar    1  UNL1        0.0238
     25 C          -5.3426  -21.1809   19.9747 C.ar    1  UNL1        0.0310
     26 C          -4.4486  -20.0592   20.4133 C.ar    1  UNL1        0.1492
     27 N          -5.0427  -18.7492   20.8388 N.ar    1  UNL1       -0.2321
     28 C          -6.5308  -18.5610   20.8257 C.ar    1  UNL1        0.1195
     29 C          -2.9605  -20.2474   20.4265 C.1     1  UNL1        0.1198
     30 N          -1.4724  -20.4356   20.4396 N.1     1  UNL1       -0.1893
@<TRIPOS>BOND
     1    14    15    1
     2    15     1    1
     3     1     2   ar
     4     2    16    1
     5    16    17    1
     6    16    18    1
     7    18    20    1
     8    20    21    2
     9    20    22    2
    10    20    23    1
    11    23    24   ar
    12    24    25   ar
    13    25    26   ar
    14    26    29    1
    15    29    30    3
    16    26    27   ar
    17    27    28   ar
    18     2     3   ar
    19     3     4   ar
    20     4     5   ar
    21     5     6   ar
    22     6     7   ar
    23     7    10    1
    24    10    11    1
    25    10    12    1
    26    10    13    1
    27     7     8   ar
    28     8     9   ar
    29     9     1   ar
    30    28    23   ar
    31     9     4   ar
    32    18    19    1
@<TRIPOS>MOLECULE
*****
 30 32 0 0 0
SMALL
GASTEIGER

@<TRIPOS>ATOM
      1 N          -9.6980  -19.6189   22.4868 N.ar    1  UNL1       -0.3137
      2 C          -9.3331  -19.2526   21.0788 C.ar    1  UNL1        0.1363
      3 N         -10.4660  -18.4597   20.4977 N.ar    1  UNL1       -0.2280
      4 C         -11.5311  -18.3360   21.5466 C.ar    1  UNL1        0.1175
      5 C         -12.8719  -17.6635   21.5411 C.ar    1  UNL1        0.1193
      6 N         -13.7380  -17.7074   22.7650 N.ar    1  UNL1       -0.2382
      7 C         -13.2633  -18.4239   23.9944 C.ar    1  UNL1        0.1542
      8 C         -11.9225  -19.0964   23.9999 C.ar    1  UNL1        0.0418
      9 C         -11.0565  -19.0524   22.7760 C.ar    1  UNL1        0.0816
     10 C         -14.1295  -18.4678   25.2183 C.3     1  UNL1        0.4349
     11 F         -14.9956  -18.5118   26.4421 F       1  UNL1       -0.1644
     12 F         -12.9049  -18.4997   26.0839 F       1  UNL1       -0.1644
     13 F         -15.3541  -18.4359   24.3527 F       1  UNL1       -0.1644
     14 C          -9.4976  -21.1718   24.5601 C.3     1  UNL1        0.0265
     15 C          -8.8528  -20.4125   23.4387 C.3     1  UNL1        0.1073
     16 C          -8.0589  -19.6155   20.3753 C.3     1  UNL1        0.1319
     17 C          -7.9167  -19.3635   18.9035 C.3     1  UNL1        0.0270
     18 N          -6.9269  -20.2305   21.1437 N.3     1  UNL1       -0.1735
     19 H          -6.9138  -21.2222   20.9054 H       1  UNL1        0.1492
     20 S          -5.5286  -19.7213   20.9553 S.O2    1  UNL1        0.0621
     21 O          -5.8732  -18.4866   21.7342 O.2     1  UNL1       -0.1529
     22 O          -5.1840  -20.9560   20.1763 O.2     1  UNL1       -0.1529
     23 C          -4.1303  -19.2122   20.7669 C.ar    1  UNL1        0.1411
     24 C          -3.6890  -18.7116   19.4235 C.ar    1  UNL1        0.0238
     25 C          -2.2907  -18.2024   19.2351 C.ar    1  UNL1        0.0310
     26 C          -1.3337  -18.1938   20.3901 C.ar    1  UNL1        0.1492
     27 N          -1.7749  -18.6944   21.7335 N.ar    1  UNL1       -0.2321
     28 C          -3.1732  -19.2036   21.9219 C.ar    1  UNL1        0.1195
     29 C           0.0646  -17.6847   20.2017 C.1     1  UNL1        0.1198
     30 N           1.4629  -17.1755   20.0133 N.1     1  UNL1       -0.1893
@<TRIPOS>BOND
     1    14    15    1
     2    15     1    1
     3     1     2   ar
     4     2    16    1
     5    16    17    1
     6    16    18    1
     7    18    20    1
     8    20    21    2
     9    20    22    2
    10    20    23    1
    11    23    24   ar
    12    24    25   ar
    13    25    26   ar
    14    26    29    1
    15    29    30    3
    16    26    27   ar
    17    27    28   ar
    18     2     3   ar
    19     3     4   ar
    20     4     5   ar
    21     5     6   ar
    22     6     7   ar
    23     7    10    1
    24    10    11    1
    25    10    12    1
    26    10    13    1
    27     7     8   ar
    28     8     9   ar
    29     9     1   ar
    30    28    23   ar
    31     9     4   ar
    32    18    19    1
@<TRIPOS>MOLECULE
*****
 30 32 0 0 0
SMALL
GASTEIGER

@<TRIPOS>ATOM
      1 N           0.1342    2.7272   19.1561 N.ar    1  UNL1       -0.3137
      2 C          -0.8777    2.4468   20.2273 C.ar    1  UNL1        0.1363
      3 N          -0.5328    1.1300   20.8574 N.ar    1  UNL1       -0.2280
      4 C           0.6921    0.5965   20.1757 C.ar    1  UNL1        0.1175
      5 C           1.4854   -0.6606   20.3765 C.ar    1  UNL1        0.1193
      6 N           2.6910   -0.9305   19.5259 N.ar    1  UNL1       -0.2382
      7 C           3.1033    0.0566   18.4744 C.ar    1  UNL1        0.1542
      8 C           2.3100    1.3137   18.2735 C.ar    1  UNL1        0.0418
      9 C           1.1044    1.5836   19.1242 C.ar    1  UNL1        0.0816
     10 C           4.3089   -0.2135   17.6237 C.3     1  UNL1        0.4349
     11 F           5.5145   -0.4835   16.7731 F       1  UNL1       -0.1644
     12 F           3.4254   -0.7754   16.5497 F       1  UNL1       -0.1644
     13 F           5.1925    0.3485   18.6977 F       1  UNL1       -0.1644
     14 C          -0.7890    4.0579   17.1247 C.3     1  UNL1        0.0265
     15 C           0.1697    3.9384   18.2720 C.3     1  UNL1        0.1073
     16 C          -2.0318    3.3285   20.6025 C.3     1  UNL1        0.1319
     17 C          -1.7818    4.7274   21.0826 C.3     1  UNL1        0.0270
     18 N          -3.4358    2.8113   20.4975 N.3     1  UNL1       -0.1735
     19 H          -3.4090    1.8291   20.7713 H       1  UNL1        0.1492
     20 S          -4.5330    3.4531   21.2939 S.O2    1  UNL1        0.0621
     21 O          -5.0721    4.0829   20.0438 O.2     1  UNL1       -0.1529
     22 O          -3.9939    2.8233   22.5441 O.2     1  UNL1       -0.1529
     23 C          -5.6302    4.0948   22.0904 C.ar    1  UNL1        0.1411
     24 C          -5.6259    3.9976   23.5872 C.ar    1  UNL1        0.0238
     25 C          -6.7231    4.6394   24.3836 C.ar    1  UNL1        0.0310
     26 C          -7.8246    5.3784   23.6832 C.ar    1  UNL1        0.1492
     27 N          -7.8289    5.4756   22.1863 N.ar    1  UNL1       -0.2321
     28 C          -6.7317    4.8338   21.3899 C.ar    1  UNL1        0.1195
     29 C          -8.9218    6.0201   24.4797 C.1     1  UNL1        0.1198
     30 N         -10.0190    6.6619   25.2761 N.1     1  UNL1       -0.1893
@<TRIPOS>BOND
     1    14    15    1
     2    15     1    1
     3     1     2   ar
     4     2    16    1
     5    16    17    1
     6    16    18    1
     7    18    20    1
     8    20    21    2
     9    20    22    2
    10    20    23    1
    11    23    24   ar
    12    24    25   ar
    13    25    26   ar
    14    26    29    1
    15    29    30    3
    16    26    27   ar
    17    27    28   ar
    18     2     3   ar
    19     3     4   ar
    20     4     5   ar
    21     5     6   ar
    22     6     7   ar
    23     7    10    1
    24    10    11    1
    25    10    12    1
    26    10    13    1
    27     7     8   ar
    28     8     9   ar
    29     9     1   ar
    30    28    23   ar
    31     9     4   ar
    32    18    19    1
@<TRIPOS>MOLECULE
*****
 30 32 0 0 0
SMALL
GASTEIGER

@<TRIPOS>ATOM
      1 N           4.4406   -1.9452   23.5850 N.ar    1  UNL1       -0.3137
      2 C           3.6960   -0.6909   23.9351 C.ar    1  UNL1        0.1363
      3 N           2.8920   -0.2797   22.7374 N.ar    1  UNL1       -0.2280
      4 C           3.1396   -1.2797   21.6472 C.ar    1  UNL1        0.1175
      5 C           2.6172   -1.3861   20.2451 C.ar    1  UNL1        0.1193
      6 N           3.0519   -2.5217   19.3669 N.ar    1  UNL1       -0.2382
      7 C           4.0090   -3.5511   19.8908 C.ar    1  UNL1        0.1542
      8 C           4.5314   -3.4448   21.2928 C.ar    1  UNL1        0.0418
      9 C           4.0967   -2.3091   22.1710 C.ar    1  UNL1        0.0816
     10 C           4.4437   -4.6868   19.0125 C.3     1  UNL1        0.4349
     11 F           4.8784   -5.8224   18.1343 F       1  UNL1       -0.1644
     12 F           3.5016   -5.6048   19.7333 F       1  UNL1       -0.1644
     13 F           5.3858   -3.7687   18.2917 F       1  UNL1       -0.1644
     14 C           6.7823   -2.2415   24.6705 C.3     1  UNL1        0.0265
     15 C           5.3665   -2.7026   24.4900 C.3     1  UNL1        0.1073
     16 C           3.7467    0.0261   25.2516 C.3     1  UNL1        0.1319
     17 C           4.8915    0.9443   25.5620 C.3     1  UNL1        0.0270
     18 N           2.6525   -0.1750   26.2577 N.3     1  UNL1       -0.1735
     19 H           2.1531   -1.0213   25.9844 H       1  UNL1        0.1492
     20 S           2.9887   -0.3212   27.7122 S.O2    1  UNL1        0.0621
     21 O           3.4606   -1.7229   27.4622 O.2     1  UNL1       -0.1529
     22 O           2.5167    1.0805   27.9622 O.2     1  UNL1       -0.1529
     23 C           3.3248   -0.4674   29.1667 C.ar    1  UNL1        0.1411
     24 C           4.7331   -0.7714   29.5841 C.ar    1  UNL1        0.0238
     25 C           5.0693   -0.9176   31.0387 C.ar    1  UNL1        0.0310
     26 C           3.9971   -0.7599   32.0758 C.ar    1  UNL1        0.1492
     27 N           2.5888   -0.4560   31.6584 N.ar    1  UNL1       -0.2321
     28 C           2.2526   -0.3097   30.2038 C.ar    1  UNL1        0.1195
     29 C           4.3333   -0.9061   33.5303 C.1     1  UNL1        0.1198
     30 N           4.6695   -1.0524   34.9848 N.1     1  UNL1       -0.1893
@<TRIPOS>BOND
     1    14    15    1
     2    15     1    1
     3     1     2   ar
     4     2    16    1
     5    16    17    1
     6    16    18    1
     7    18    20    1
     8    20    21    2
     9    20    22    2
    10    20    23    1
    11    23    24   ar
    12    24    25   ar
    13    25    26   ar
    14    26    29    1
    15    29    30    3
    16    26    27   ar
    17    27    28   ar
    18     2     3   ar
    19     3     4   ar
    20     4     5   ar
    21     5     6   ar
    22     6     7   ar
    23     7    10    1
    24    10    11    1
    25    10    12    1
    26    10    13    1
    27     7     8   ar
    28     8     9   ar
    29     9     1   ar
    30    28    23   ar
    31     9     4   ar
    32    18    19    1
@<TRIPOS>MOLECULE
*****
 30 32 0 0 0
SMALL
GASTEIGER

@<TRIPOS>ATOM
      1 N           7.1799   -4.0899   23.9575 N.ar    1  UNL1       -0.3137
      2 C           7.6894   -4.8049   22.7413 C.ar    1  UNL1        0.1363
      3 N           8.1390   -6.1727   23.1622 N.ar    1  UNL1       -0.2280
      4 C           7.9074   -6.3029   24.6384 C.ar    1  UNL1        0.1175
      5 C           8.1597   -7.4274   25.5986 C.ar    1  UNL1        0.1193
      6 N           7.8192   -7.2645   27.0503 N.ar    1  UNL1       -0.2382
      7 C           7.2265   -5.9773   27.5419 C.ar    1  UNL1        0.1542
      8 C           6.9742   -4.8529   26.5817 C.ar    1  UNL1        0.0418
      9 C           7.3146   -5.0157   25.1300 C.ar    1  UNL1        0.0816
     10 C           6.8860   -5.8145   28.9937 C.3     1  UNL1        0.4349
     11 F           6.5455   -5.6517   30.4454 F       1  UNL1       -0.1644
     12 F           7.8612   -6.8989   29.3440 F       1  UNL1       -0.1644
     13 F           5.9107   -4.7300   28.6433 F       1  UNL1       -0.1644
     14 C           5.1500   -2.4716   24.0600 C.3     1  UNL1        0.0265
     15 C           6.6319   -2.6941   23.9947 C.3     1  UNL1        0.1073
     16 C           7.7403   -4.2497   21.3487 C.3     1  UNL1        0.1319
     17 C           8.8785   -3.3646   20.9354 C.3     1  UNL1        0.0270
     18 N           6.6530   -4.5797   20.3696 N.3     1  UNL1       -0.1735
     19 H           6.1489   -5.3815   20.7484 H       1  UNL1        0.1492
     20 S           5.6229   -3.5480   20.0168 S.O2    1  UNL1        0.0621
     21 O           6.5584   -2.9612   19.0016 O.2     1  UNL1       -0.1529
     22 O           4.6874   -4.1348   21.0319 O.2     1  UNL1       -0.1529
     23 C           4.5928   -2.5162   19.6640 C.ar    1  UNL1        0.1411
     24 C           3.5723   -2.0972   20.6803 C.ar    1  UNL1        0.0238
     25 C           2.5423   -1.0654   20.3274 C.ar    1  UNL1        0.0310
     26 C           2.5327   -0.4527   18.9583 C.ar    1  UNL1        0.1492
     27 N           3.5532   -0.8718   17.9420 N.ar    1  UNL1       -0.2321
     28 C           4.5833   -1.9035   18.2948 C.ar    1  UNL1        0.1195
     29 C           1.5026    0.5790   18.6055 C.1     1  UNL1        0.1198
     30 N           0.4726    1.6107   18.2527 N.1     1  UNL1       -0.1893
@<TRIPOS>BOND
     1    14    15    1
     2    15     1    1
     3     1     2   ar
     4     2    16    1
     5    16    17    1
     6    16    18    1
     7    18    20    1
     8    20    21    2
     9    20    22    2
    10    20    23    1
    11    23    24   ar
    12    24    25   ar
    13    25    26   ar
    14    26    29    1
    15    29    30    3
    16    26    27   ar
    17    27    28   ar
    18     2     3   ar
    19     3     4   ar
    20     4     5   ar
    21     5     6   ar
    22     6     7   ar
    23     7    10    1
    24    10    11    1
    25    10    12    1
    26    10    13    1
    27     7     8   ar
    28     8     9   ar
    29     9     1   ar
    30    28    23   ar
    31     9     4   ar
    32    18    19    1
@<TRIPOS>MOLECULE
*****
 30 32 0 0 0
SMALL
GASTEIGER

@<TRIPOS>ATOM
      1 N           1.8739    0.4835   20.2630 N.ar    1  UNL1       -0.3137
      2 C           1.7257    1.7825   19.5277 C.ar    1  UNL1        0.1363
      3 N           2.4930    1.6780   18.2431 N.ar    1  UNL1       -0.2280
      4 C           3.1154    0.3145   18.1844 C.ar    1  UNL1        0.1175
      5 C           3.9811   -0.3502   17.1555 C.ar    1  UNL1        0.1193
      6 N           4.4641   -1.7532   17.3750 N.ar    1  UNL1       -0.2382
      7 C           4.0814   -2.4915   18.6234 C.ar    1  UNL1        0.1542
      8 C           3.2157   -1.8268   19.6523 C.ar    1  UNL1        0.0418
      9 C           2.7327   -0.4238   19.4328 C.ar    1  UNL1        0.0816
     10 C           4.5645   -3.8946   18.8429 C.3     1  UNL1        0.4349
     11 F           5.0475   -5.2976   19.0623 F       1  UNL1       -0.1644
     12 F           5.9837   -3.4095   18.8209 F       1  UNL1       -0.1644
     13 F           3.1453   -4.3797   18.8648 F       1  UNL1       -0.1644
     14 C           2.1101    0.2072   22.8355 C.3     1  UNL1        0.0265
     15 C           1.2693    0.1502   21.5947 C.3     1  UNL1        0.1073
     16 C           0.9470    2.9763   19.9950 C.3     1  UNL1        0.1319
     17 C           1.3828    3.7231   21.2207 C.3     1  UNL1        0.0270
     18 N          -0.2674    3.4234   19.2366 N.3     1  UNL1       -0.1735
     19 H          -0.4133    2.7457   18.4884 H       1  UNL1        0.1492
     20 S          -1.5806    3.5751   19.9456 S.O2    1  UNL1        0.0621
     21 O          -1.7210    4.9609   19.3889 O.2     1  UNL1       -0.1529
     22 O          -1.4402    2.1893   20.5022 O.2     1  UNL1       -0.1529
     23 C          -2.8938    3.7268   20.6545 C.ar    1  UNL1        0.1411
     24 C          -2.9544    3.6293   22.1500 C.ar    1  UNL1        0.0238
     25 C          -4.2676    3.7810   22.8589 C.ar    1  UNL1        0.0310
     26 C          -5.5201    4.0303   22.0723 C.ar    1  UNL1        0.1492
     27 N          -5.4596    4.1278   20.5766 N.ar    1  UNL1       -0.2321
     28 C          -4.1464    3.9760   19.8677 C.ar    1  UNL1        0.1195
     29 C          -6.8333    4.1820   22.7812 C.1     1  UNL1        0.1198
     30 N          -8.1465    4.3337   23.4901 N.1     1  UNL1       -0.1893
@<TRIPOS>BOND
     1    14    15    1
     2    15     1    1
     3     1     2   ar
     4     2    16    1
     5    16    17    1
     6    16    18    1
     7    18    20    1
     8    20    21    2
     9    20    22    2
    10    20    23    1
    11    23    24   ar
    12    24    25   ar
    13    25    26   ar
    14    26    29    1
    15    29    30    3
    16    26    27   ar
    17    27    28   ar
    18     2     3   ar
    19     3     4   ar
    20     4     5   ar
    21     5     6   ar
    22     6     7   ar
    23     7    10    1
    24    10    11    1
    25    10    12    1
    26    10    13    1
    27     7     8   ar
    28     8     9   ar
    29     9     1   ar
    30    28    23   ar
    31     9     4   ar
    32    18    19    1
@<TRIPOS>MOLECULE
*****
 30 32 0 0 0
SMALL
GASTEIGER

@<TRIPOS>ATOM
      1 N           3.7055   -1.7912   21.1479 N.ar    1  UNL1       -0.3137
      2 C           3.2734   -2.1224   19.7502 C.ar    1  UNL1        0.1363
      3 N           2.0390   -1.3263   19.4458 N.ar    1  UNL1       -0.2280
      4 C           1.7083   -0.5032   20.6554 C.ar    1  UNL1        0.1175
      5 C           0.6023    0.4709   20.9348 C.ar    1  UNL1        0.1193
      6 N           0.5264    1.1576   22.2662 N.ar    1  UNL1       -0.2382
      7 C           1.5564    0.8703   23.3181 C.ar    1  UNL1        0.1542
      8 C           2.6624   -0.1037   23.0387 C.ar    1  UNL1        0.0418
      9 C           2.7383   -0.7904   21.7073 C.ar    1  UNL1        0.0816
     10 C           1.4804    1.5571   24.6496 C.3     1  UNL1        0.4349
     11 F           1.4044    2.2439   25.9809 F       1  UNL1       -0.1644
     12 F           2.8182    2.1882   24.4004 F       1  UNL1       -0.1644
     13 F           0.1427    0.9260   24.8987 F       1  UNL1       -0.1644
     14 C           4.7437   -3.5832   22.7166 C.3     1  UNL1        0.0265
     15 C           4.8960   -2.3607   21.8609 C.3     1  UNL1        0.1073
     16 C           3.9557   -3.0812   18.8202 C.3     1  UNL1        0.1319
     17 C           3.8325   -4.5593   19.0440 C.3     1  UNL1        0.0270
     18 N           4.7613   -2.5621   17.6663 N.3     1  UNL1       -0.1735
     19 H           4.2816   -2.8570   16.8159 H       1  UNL1        0.1492
     20 S           5.0160   -1.0900   17.5315 S.O2    1  UNL1        0.0621
     21 O           6.0470   -1.1688   18.6181 O.2     1  UNL1       -0.1529
     22 O           3.9849   -1.0112   16.4448 O.2     1  UNL1       -0.1529
     23 C           5.2706    0.3821   17.3966 C.ar    1  UNL1        0.1411
     24 C           6.3570    0.8751   16.4874 C.ar    1  UNL1        0.0238
     25 C           6.6116    2.3472   16.3526 C.ar    1  UNL1        0.0310
     26 C           5.7799    3.3262   17.1269 C.ar    1  UNL1        0.1492
     27 N           4.6935    2.8332   18.0362 N.ar    1  UNL1       -0.2321
     28 C           4.4388    1.3611   18.1710 C.ar    1  UNL1        0.1195
     29 C           6.0346    4.7983   16.9921 C.1     1  UNL1        0.1198
     30 N           6.2892    6.2703   16.8572 N.1     1  UNL1       -0.1893
@<TRIPOS>BOND
     1    14    15    1
     2    15     1    1
     3     1     2   ar
     4     2    16    1
     5    16    17    1
     6    16    18    1
     7    18    20    1
     8    20    21    2
     9    20    22    2
    10    20    23    1
    11    23    24   ar
    12    24    25   ar
    13    25    26   ar
    14    26    29    1
    15    29    30    3
    16    26    27   ar
    17    27    28   ar
    18     2     3   ar
    19     3     4   ar
    20     4     5   ar
    21     5     6   ar
    22     6     7   ar
    23     7    10    1
    24    10    11    1
    25    10    12    1
    26    10    13    1
    27     7     8   ar
    28     8     9   ar
    29     9     1   ar
    30    28    23   ar
    31     9     4   ar
    32    18    19    1
@<TRIPOS>MOLECULE
*****
 30 32 0 0 0
SMALL
GASTEIGER

@<TRIPOS>ATOM
      1 N           6.9419   -4.4851   23.3524 N.ar    1  UNL1       -0.3137
      2 C           7.3347   -4.4818   21.9048 C.ar    1  UNL1        0.1363
      3 N           8.3280   -5.5855   21.6916 N.ar    1  UNL1       -0.2280
      4 C           8.5490   -6.2708   23.0074 C.ar    1  UNL1        0.1175
      5 C           9.4196   -7.4263   23.4035 C.ar    1  UNL1        0.1193
      6 N           9.4335   -7.9017   24.8261 N.ar    1  UNL1       -0.2382
      7 C           8.5769   -7.2216   25.8526 C.ar    1  UNL1        0.1542
      8 C           7.7063   -6.0661   25.4565 C.ar    1  UNL1        0.0418
      9 C           7.6924   -5.5908   24.0339 C.ar    1  UNL1        0.0816
     10 C           8.5909   -7.6970   27.2752 C.3     1  UNL1        0.4349
     11 F           8.6049   -8.1724   28.6978 F       1  UNL1       -0.1644
     12 F           9.4639   -6.5376   27.6541 F       1  UNL1       -0.1644
     13 F           7.7180   -8.8564   26.8963 F       1  UNL1       -0.1644
     14 C           6.4705   -2.3463   24.7500 C.3     1  UNL1        0.0265
     15 C           5.9694   -3.5473   24.0042 C.3     1  UNL1        0.1073
     16 C           6.8240   -3.5403   20.8547 C.3     1  UNL1        0.1319
     17 C           7.5846   -2.2870   20.5372 C.3     1  UNL1        0.0270
     18 N           5.5527   -3.8519   20.1222 N.3     1  UNL1       -0.1735
     19 H           5.0312   -4.5080   20.7035 H       1  UNL1        0.1492
     20 S           4.6055   -2.7466   19.7601 S.O2    1  UNL1        0.0621
     21 O           4.1655   -2.6549   21.1912 O.2     1  UNL1       -0.1529
     22 O           5.0455   -2.8383   18.3291 O.2     1  UNL1       -0.1529
     23 C           3.6582   -1.6413   19.3980 C.ar    1  UNL1        0.1411
     24 C           2.4190   -1.4184   20.2133 C.ar    1  UNL1        0.0238
     25 C           1.4718   -0.3132   19.8512 C.ar    1  UNL1        0.0310
     26 C           1.7638    0.5692   18.6739 C.ar    1  UNL1        0.1492
     27 N           3.0030    0.3463   17.8586 N.ar    1  UNL1       -0.2321
     28 C           3.9503   -0.7590   18.2206 C.ar    1  UNL1        0.1195
     29 C           0.8165    1.6745   18.3118 C.1     1  UNL1        0.1198
     30 N          -0.1307    2.7798   17.9497 N.1     1  UNL1       -0.1893
@<TRIPOS>BOND
     1    14    15    1
     2    15     1    1
     3     1     2   ar
     4     2    16    1
     5    16    17    1
     6    16    18    1
     7    18    20    1
     8    20    21    2
     9    20    22    2
    10    20    23    1
    11    23    24   ar
    12    24    25   ar
    13    25    26   ar
    14    26    29    1
    15    29    30    3
    16    26    27   ar
    17    27    28   ar
    18     2     3   ar
    19     3     4   ar
    20     4     5   ar
    21     5     6   ar
    22     6     7   ar
    23     7    10    1
    24    10    11    1
    25    10    12    1
    26    10    13    1
    27     7     8   ar
    28     8     9   ar
    29     9     1   ar
    30    28    23   ar
    31     9     4   ar
    32    18    19    1
