@<TRIPOS>MOLECULE
*****
 30 33 0 0 0
SMALL
GASTEIGER

@<TRIPOS>ATOM
      1 C         -12.5817   -2.5700   18.8155 C.2     1  UNL1        0.0294
      2 C         -11.0972   -2.3550   18.8113 C.2     1  UNL1        0.2320
      3 N         -10.1693   -3.5312   18.7376 N.2     1  UNL1       -0.0311
      4 C         -10.7258   -4.9224   18.6682 C.2     1  UNL1        0.3720
      5 N         -10.0631   -6.2657   18.5883 N.2     1  UNL1       -0.0308
      6 C         -11.1380   -7.3109   18.5432 C.2     1  UNL1        0.2359
      7 C         -12.4651   -6.6136   18.5951 C.2     1  UNL1        0.0536
      8 C         -12.2103   -5.1374   18.6724 C.2     1  UNL1        0.0744
      9 C         -13.1382   -3.9612   18.7461 C.3     1  UNL1        0.0645
     10 C         -13.8107   -7.2761   18.5736 C.ar    1  UNL1        0.0421
     11 C         -14.0506   -8.4579   17.6815 C.ar    1  UNL1        0.1034
     12 N         -15.3962   -9.1204   17.6600 N.ar    1  UNL1       -0.2125
     13 C         -16.5019   -8.6012   18.5306 C.ar    1  UNL1        0.2137
     14 N         -17.8474   -9.2637   18.5090 N.pl3   1  UNL1       -0.3274
     15 N         -16.2619   -7.4194   19.4227 N.ar    1  UNL1       -0.2125
     16 C         -14.9163   -6.7569   19.4442 C.ar    1  UNL1        0.1034
     17 H         -18.0049  -10.0393   17.9235 H       1  UNL1        0.1452
     18 H         -18.5731   -8.9229   19.0804 H       1  UNL1        0.1452
     19 C         -15.7745   -0.3575   19.6286 C.ar    1  UNL1        0.1754
     20 C         -14.8465   -1.5337   19.5550 C.ar    1  UNL1        0.0401
     21 C         -13.5097   -1.3938   18.8892 C.ar    1  UNL1        0.0063
     22 C         -13.1008   -0.0777   18.2970 C.ar    1  UNL1        0.0401
     23 C         -14.0288    1.0985   18.3707 C.ar    1  UNL1        0.1754
     24 C         -15.3657    0.9586   19.0365 C.ar    1  UNL1        0.2061
     25 C         -18.0178   -1.6341   19.9253 C.3     1  UNL1        0.2526
     26 O         -17.1113   -0.4974   20.2944 O.3     1  UNL1       -0.4683
     27 O         -13.6199    2.4146   17.7785 O.3     1  UNL1       -0.4683
     28 C         -12.8384    2.4508   16.4986 C.3     1  UNL1        0.2526
     29 O         -16.2936    2.1348   19.1101 O.3     1  UNL1       -0.4654
     30 C         -16.1859    3.1049   20.2491 C.3     1  UNL1        0.2528
@<TRIPOS>BOND
     1    25    26    1
     2    26    19    1
     3    19    20   ar
     4    20    21   ar
     5    21     1    1
     6     1     2    2
     7     2     3    1
     8     3     4    2
     9     4     5    1
    10     5     6    2
    11     6     7    1
    12     7    10    1
    13    10    11   ar
    14    11    12   ar
    15    12    13   ar
    16    13    14    1
    17    13    15   ar
    18    15    16   ar
    19     7     8    2
    20     8     9    1
    21    21    22   ar
    22    22    23   ar
    23    23    27    1
    24    27    28    1
    25    23    24   ar
    26    24    29    1
    27    29    30    1
    28    24    19   ar
    29     9     1    1
    30     8     4    1
    31    16    10   ar
    32    14    17    1
    33    14    18    1
@<TRIPOS>MOLECULE
*****
 30 33 0 0 0
SMALL
GASTEIGER

@<TRIPOS>ATOM
      1 C           1.2011    0.9392   22.3282 C.2     1  UNL1        0.0294
      2 C           0.3585    1.8956   21.5375 C.2     1  UNL1        0.2320
      3 N          -0.5855    2.8235   22.2431 N.2     1  UNL1       -0.0311
      4 C          -0.6869    2.7949   23.7394 C.2     1  UNL1        0.3720
      5 N          -1.5213    3.5844   24.7041 N.2     1  UNL1       -0.0308
      6 C          -1.1944    3.1159   26.0910 C.2     1  UNL1        0.2359
      7 C          -0.1579    2.0369   25.9834 C.2     1  UNL1        0.0536
      8 C           0.1558    1.8386   24.5301 C.2     1  UNL1        0.0744
      9 C           1.0997    0.9107   23.8245 C.3     1  UNL1        0.0645
     10 C           0.4570    1.2877   27.1283 C.ar    1  UNL1        0.0421
     11 C           1.9420    1.3236   27.3368 C.ar    1  UNL1        0.1034
     12 N           2.5569    0.5744   28.4816 N.ar    1  UNL1       -0.2125
     13 C           1.6869   -0.2106   29.4180 C.ar    1  UNL1        0.2137
     14 N           2.3018   -0.9597   30.5628 N.pl3   1  UNL1       -0.3274
     15 N           0.2019   -0.2464   29.2094 N.ar    1  UNL1       -0.2125
     16 C          -0.4130    0.5027   28.0646 C.ar    1  UNL1        0.1034
     17 H           3.2765   -0.9362   30.6997 H       1  UNL1        0.1452
     18 H           1.7307   -1.4749   31.1774 H       1  UNL1        0.1452
     19 C           3.9115   -1.8922   21.7057 C.ar    1  UNL1        0.1754
     20 C           2.9674   -0.9643   22.4113 C.ar    1  UNL1        0.0401
     21 C           2.1452    0.0113   21.6226 C.ar    1  UNL1        0.0063
     22 C           2.2669    0.0590   20.1283 C.ar    1  UNL1        0.0401
     23 C           3.2109   -0.8689   19.4227 C.ar    1  UNL1        0.1754
     24 C           4.0332   -1.8445   20.2114 C.ar    1  UNL1        0.2061
     25 C           5.0023   -2.6187   23.9490 C.3     1  UNL1        0.2526
     26 O           4.7337   -2.8678   22.4944 O.3     1  UNL1       -0.4683
     27 O           3.3326   -0.8212   17.9284 O.3     1  UNL1       -0.4683
     28 C           4.5325   -0.1828   17.2937 C.3     1  UNL1        0.2526
     29 O           4.9772   -2.7724   19.5058 O.3     1  UNL1       -0.4654
     30 C           4.4782   -4.0775   18.9601 C.3     1  UNL1        0.2528
@<TRIPOS>BOND
     1    25    26    1
     2    26    19    1
     3    19    20   ar
     4    20    21   ar
     5    21     1    1
     6     1     2    2
     7     2     3    1
     8     3     4    2
     9     4     5    1
    10     5     6    2
    11     6     7    1
    12     7    10    1
    13    10    11   ar
    14    11    12   ar
    15    12    13   ar
    16    13    14    1
    17    13    15   ar
    18    15    16   ar
    19     7     8    2
    20     8     9    1
    21    21    22   ar
    22    22    23   ar
    23    23    27    1
    24    27    28    1
    25    23    24   ar
    26    24    29    1
    27    29    30    1
    28    24    19   ar
    29     9     1    1
    30     8     4    1
    31    16    10   ar
    32    14    17    1
    33    14    18    1
@<TRIPOS>MOLECULE
*****
 30 33 0 0 0
SMALL
GASTEIGER

@<TRIPOS>ATOM
      1 C           1.3103    0.8364   21.9452 C.2     1  UNL1        0.0294
      2 C           0.5169    1.7934   21.1058 C.2     1  UNL1        0.2320
      3 N          -0.4153    2.7697   21.7599 N.2     1  UNL1       -0.0311
      4 C          -0.5540    2.7891   23.2533 C.2     1  UNL1        0.3720
      5 N          -1.3872    3.6316   24.1731 N.2     1  UNL1       -0.0308
      6 C          -1.1087    3.1953   25.5810 C.2     1  UNL1        0.2359
      7 C          -0.1033    2.0831   25.5313 C.2     1  UNL1        0.0536
      8 C           0.2395    1.8321   24.0927 C.2     1  UNL1        0.0744
      9 C           1.1716    0.8557   23.4387 C.3     1  UNL1        0.0645
     10 C           0.4602    1.3506   26.7127 C.ar    1  UNL1        0.0421
     11 C           1.9439    1.3049   26.9289 C.ar    1  UNL1        0.1034
     12 N           2.5075    0.5724   28.1103 N.ar    1  UNL1       -0.2125
     13 C           1.5875   -0.1144   29.0756 C.ar    1  UNL1        0.2137
     14 N           2.1511   -0.8470   30.2570 N.pl3   1  UNL1       -0.3274
     15 N           0.1038   -0.0688   28.8594 N.ar    1  UNL1       -0.2125
     16 C          -0.4597    0.6638   27.6780 C.ar    1  UNL1        0.1034
     17 H           3.1248   -0.8769   30.3989 H       1  UNL1        0.1452
     18 H           1.5472   -1.2978   30.8905 H       1  UNL1        0.1452
     19 C           3.3715   -1.0849   19.1504 C.ar    1  UNL1        0.1754
     20 C           2.4393   -0.1084   19.8045 C.ar    1  UNL1        0.0401
     21 C           2.2425   -0.1400   21.2911 C.ar    1  UNL1        0.0063
     22 C           2.9778   -1.1480   22.1238 C.ar    1  UNL1        0.0401
     23 C           3.9099   -2.1244   21.4698 C.ar    1  UNL1        0.1754
     24 C           4.1068   -2.0928   19.9831 C.ar    1  UNL1        0.2061
     25 C           4.7565   -0.3483   17.0793 C.3     1  UNL1        0.2526
     26 O           3.5684   -1.0533   17.6638 O.3     1  UNL1       -0.4683
     27 O           4.6452   -3.1323   22.3025 O.3     1  UNL1       -0.4683
     28 C           5.0464   -2.7948   23.7080 C.3     1  UNL1        0.2526
     29 O           5.0390   -3.0692   19.3291 O.3     1  UNL1       -0.4654
     30 C           4.5447   -4.4296   18.9356 C.3     1  UNL1        0.2528
@<TRIPOS>BOND
     1    25    26    1
     2    26    19    1
     3    19    20   ar
     4    20    21   ar
     5    21     1    1
     6     1     2    2
     7     2     3    1
     8     3     4    2
     9     4     5    1
    10     5     6    2
    11     6     7    1
    12     7    10    1
    13    10    11   ar
    14    11    12   ar
    15    12    13   ar
    16    13    14    1
    17    13    15   ar
    18    15    16   ar
    19     7     8    2
    20     8     9    1
    21    21    22   ar
    22    22    23   ar
    23    23    27    1
    24    27    28    1
    25    23    24   ar
    26    24    29    1
    27    29    30    1
    28    24    19   ar
    29     9     1    1
    30     8     4    1
    31    16    10   ar
    32    14    17    1
    33    14    18    1
@<TRIPOS>MOLECULE
*****
 30 33 0 0 0
SMALL
GASTEIGER

@<TRIPOS>ATOM
      1 C          -4.8748  -16.7781   23.7269 C.2     1  UNL1        0.0294
      2 C          -4.1844  -16.2518   24.9501 C.2     1  UNL1        0.2320
      3 N          -4.9924  -15.7418   26.1064 N.2     1  UNL1       -0.0311
      4 C          -6.4908  -15.7582   26.0394 C.2     1  UNL1        0.3720
      5 N          -7.5439  -15.3244   27.0157 N.2     1  UNL1       -0.0308
      6 C          -8.8851  -15.5827   26.3957 C.2     1  UNL1        0.2359
      7 C          -8.6610  -16.1761   25.0364 C.2     1  UNL1        0.0536
      8 C          -7.1812  -16.2845   24.8162 C.2     1  UNL1        0.0744
      9 C          -6.3732  -16.7945   23.6600 C.3     1  UNL1        0.0645
     10 C          -9.7291  -16.5886   24.0674 C.ar    1  UNL1        0.0421
     11 C          -9.9722  -15.7776   22.8292 C.ar    1  UNL1        0.1034
     12 N         -11.0403  -16.1901   21.8602 N.ar    1  UNL1       -0.2125
     13 C         -11.8653  -17.4136   22.1293 C.ar    1  UNL1        0.2137
     14 N         -12.9333  -17.8261   21.1602 N.pl3   1  UNL1       -0.3274
     15 N         -11.6221  -18.2246   23.3675 N.ar    1  UNL1       -0.2125
     16 C         -10.5540  -17.8121   24.3365 C.ar    1  UNL1        0.1034
     17 H         -13.0929  -17.2938   20.3476 H       1  UNL1        0.1452
     18 H         -13.4748  -18.6292   21.3369 H       1  UNL1        0.1452
     19 C          -1.9982  -17.0923   21.0108 C.ar    1  UNL1        0.1754
     20 C          -2.8062  -16.5823   22.1672 C.ar    1  UNL1        0.0401
     21 C          -4.0667  -17.2881   22.5706 C.ar    1  UNL1        0.0063
     22 C          -4.5194  -18.5040   21.8177 C.ar    1  UNL1        0.0401
     23 C          -3.7114  -19.0140   20.6614 C.ar    1  UNL1        0.1754
     24 C          -2.4508  -18.3082   20.2579 C.ar    1  UNL1        0.2061
     25 C           0.5234  -17.1691   20.3898 C.3     1  UNL1        0.2526
     26 O          -0.7376  -16.3865   20.6074 O.3     1  UNL1       -0.4683
     27 O          -4.1640  -20.2298   19.9085 O.3     1  UNL1       -0.4683
     28 C          -5.4840  -20.8645   20.2327 C.3     1  UNL1        0.2526
     29 O          -1.6428  -18.8182   19.1016 O.3     1  UNL1       -0.4654
     30 C          -1.6350  -18.0675   17.8031 C.3     1  UNL1        0.2528
@<TRIPOS>BOND
     1    25    26    1
     2    26    19    1
     3    19    20   ar
     4    20    21   ar
     5    21     1    1
     6     1     2    2
     7     2     3    1
     8     3     4    2
     9     4     5    1
    10     5     6    2
    11     6     7    1
    12     7    10    1
    13    10    11   ar
    14    11    12   ar
    15    12    13   ar
    16    13    14    1
    17    13    15   ar
    18    15    16   ar
    19     7     8    2
    20     8     9    1
    21    21    22   ar
    22    22    23   ar
    23    23    27    1
    24    27    28    1
    25    23    24   ar
    26    24    29    1
    27    29    30    1
    28    24    19   ar
    29     9     1    1
    30     8     4    1
    31    16    10   ar
    32    14    17    1
    33    14    18    1
@<TRIPOS>MOLECULE
*****
 30 33 0 0 0
SMALL
GASTEIGER

@<TRIPOS>ATOM
      1 C          -4.8731  -16.7835   23.7299 C.2     1  UNL1        0.0294
      2 C          -4.1809  -16.2560   24.9515 C.2     1  UNL1        0.2320
      3 N          -4.9872  -15.7435   26.1079 N.2     1  UNL1       -0.0311
      4 C          -6.4857  -15.7586   26.0426 C.2     1  UNL1        0.3720
      5 N          -7.5374  -15.3224   27.0193 N.2     1  UNL1       -0.0308
      6 C          -8.8795  -15.5803   26.4012 C.2     1  UNL1        0.2359
      7 C          -8.6574  -16.1759   25.0425 C.2     1  UNL1        0.0536
      8 C          -7.1779  -16.2861   24.8209 C.2     1  UNL1        0.0744
      9 C          -6.3716  -16.7985   23.6645 C.3     1  UNL1        0.0645
     10 C          -9.7269  -16.5888   24.0752 C.ar    1  UNL1        0.0421
     11 C         -10.5496  -17.8138   24.3448 C.ar    1  UNL1        0.1034
     12 N         -11.6191  -18.2267   23.3776 N.ar    1  UNL1       -0.2125
     13 C         -11.8660  -17.4148   22.1407 C.ar    1  UNL1        0.2137
     14 N         -12.9355  -17.8277   21.1734 N.pl3   1  UNL1       -0.3274
     15 N         -11.0432  -16.1899   21.8711 N.ar    1  UNL1       -0.2125
     16 C          -9.9737  -15.7769   22.8384 C.ar    1  UNL1        0.1034
     17 H         -13.4755  -18.6317   21.3504 H       1  UNL1        0.1452
     18 H         -13.0974  -17.2948   20.3617 H       1  UNL1        0.1452
     19 C          -3.7069  -19.0339   20.6760 C.ar    1  UNL1        0.1754
     20 C          -4.5132  -18.5214   21.8325 C.ar    1  UNL1        0.0401
     21 C          -4.0668  -17.2960   22.5734 C.ar    1  UNL1        0.0063
     22 C          -2.8142  -16.5830   22.1580 C.ar    1  UNL1        0.0401
     23 C          -2.0079  -17.0954   21.0016 C.ar    1  UNL1        0.1754
     24 C          -2.4542  -18.3209   20.2606 C.ar    1  UNL1        0.2061
     25 C          -5.4927  -20.8672   20.2289 C.3     1  UNL1        0.2526
     26 O          -4.1532  -20.2593   19.9350 O.3     1  UNL1       -0.4683
     27 O          -0.7553  -16.3825   20.5862 O.3     1  UNL1       -0.4683
     28 C           0.5124  -17.1557   20.3735 C.3     1  UNL1        0.2526
     29 O          -1.6480  -18.8334   19.1042 O.3     1  UNL1       -0.4654
     30 C          -1.6418  -18.0852   17.8042 C.3     1  UNL1        0.2528
@<TRIPOS>BOND
     1    25    26    1
     2    26    19    1
     3    19    20   ar
     4    20    21   ar
     5    21     1    1
     6     1     2    2
     7     2     3    1
     8     3     4    2
     9     4     5    1
    10     5     6    2
    11     6     7    1
    12     7    10    1
    13    10    11   ar
    14    11    12   ar
    15    12    13   ar
    16    13    14    1
    17    13    15   ar
    18    15    16   ar
    19     7     8    2
    20     8     9    1
    21    21    22   ar
    22    22    23   ar
    23    23    27    1
    24    27    28    1
    25    23    24   ar
    26    24    29    1
    27    29    30    1
    28    24    19   ar
    29     9     1    1
    30     8     4    1
    31    16    10   ar
    32    14    17    1
    33    14    18    1
@<TRIPOS>MOLECULE
*****
 30 33 0 0 0
SMALL
GASTEIGER

@<TRIPOS>ATOM
      1 C           4.5938   -2.2478   23.7734 C.2     1  UNL1        0.0294
      2 C           5.4271   -3.4883   23.6447 C.2     1  UNL1        0.2320
      3 N           5.5859   -4.1496   22.3077 N.2     1  UNL1       -0.0311
      4 C           4.9114   -3.5704   21.0996 C.2     1  UNL1        0.3720
      5 N           4.8858   -3.9990   19.6623 N.2     1  UNL1       -0.0308
      6 C           4.0366   -3.0233   18.9028 C.2     1  UNL1        0.2359
      7 C           3.5374   -1.9918   19.8707 C.2     1  UNL1        0.0536
      8 C           4.0780   -2.3299   21.2284 C.2     1  UNL1        0.0744
      9 C           3.9192   -1.6686   22.5653 C.3     1  UNL1        0.0645
     10 C           2.6528   -0.8266   19.5392 C.ar    1  UNL1        0.0421
     11 C           1.2957   -0.7124   20.1679 C.ar    1  UNL1        0.1034
     12 N           0.4112    0.4528   19.8364 N.ar    1  UNL1       -0.2125
     13 C           0.8836    1.5037   18.8761 C.ar    1  UNL1        0.2137
     14 N          -0.0010    2.6689   18.5445 N.pl3   1  UNL1       -0.3274
     15 N           2.2407    1.3895   18.2473 N.ar    1  UNL1       -0.2125
     16 C           3.1252    0.2244   18.5789 C.ar    1  UNL1        0.1034
     17 H          -0.8917    2.7438   18.9572 H       1  UNL1        0.1452
     18 H           0.3091    3.3587   17.9142 H       1  UNL1        0.1452
     19 C           3.2963    0.1981   26.6168 C.ar    1  UNL1        0.1754
     20 C           3.4551   -0.4633   25.2799 C.ar    1  UNL1        0.0401
     21 C           4.4349   -1.5864   25.1104 C.ar    1  UNL1        0.0063
     22 C           5.2559   -2.0480   26.2778 C.ar    1  UNL1        0.0401
     23 C           5.0971   -1.3867   27.6147 C.ar    1  UNL1        0.1754
     24 C           4.1173   -0.2636   27.7842 C.ar    1  UNL1        0.2061
     25 C           0.9302    1.0382   27.2847 C.3     1  UNL1        0.2526
     26 O           2.3165    1.3211   26.7863 O.3     1  UNL1       -0.4683
     27 O           5.9181   -1.8483   28.7821 O.3     1  UNL1       -0.4683
     28 C           6.4811   -3.2386   28.8000 C.3     1  UNL1        0.2526
     29 O           3.9585    0.3978   29.1211 O.3     1  UNL1       -0.4654
     30 C           3.0462   -0.2009   30.1503 C.3     1  UNL1        0.2528
@<TRIPOS>BOND
     1    25    26    1
     2    26    19    1
     3    19    20   ar
     4    20    21   ar
     5    21     1    1
     6     1     2    2
     7     2     3    1
     8     3     4    2
     9     4     5    1
    10     5     6    2
    11     6     7    1
    12     7    10    1
    13    10    11   ar
    14    11    12   ar
    15    12    13   ar
    16    13    14    1
    17    13    15   ar
    18    15    16   ar
    19     7     8    2
    20     8     9    1
    21    21    22   ar
    22    22    23   ar
    23    23    27    1
    24    27    28    1
    25    23    24   ar
    26    24    29    1
    27    29    30    1
    28    24    19   ar
    29     9     1    1
    30     8     4    1
    31    16    10   ar
    32    14    17    1
    33    14    18    1
@<TRIPOS>MOLECULE
*****
 30 33 0 0 0
SMALL
GASTEIGER

@<TRIPOS>ATOM
      1 C           5.9043   -3.5283   23.7385 C.2     1  UNL1        0.0294
      2 C           6.5042   -3.9547   22.4315 C.2     1  UNL1        0.2320
      3 N           7.5507   -5.0288   22.4016 N.2     1  UNL1       -0.0311
      4 C           7.9973   -5.6766   23.6787 C.2     1  UNL1        0.3720
      5 N           9.0025   -6.7540   23.9596 N.2     1  UNL1       -0.0308
      6 C           9.0239   -6.9934   25.4402 C.2     1  UNL1        0.2359
      7 C           8.0318   -6.0640   26.0743 C.2     1  UNL1        0.0536
      8 C           7.3973   -5.2502   24.9857 C.2     1  UNL1        0.0744
      9 C           6.3509   -4.1760   25.0156 C.3     1  UNL1        0.0645
     10 C           7.7276   -5.9657   27.5399 C.ar    1  UNL1        0.0421
     11 C           8.5341   -6.7551   28.5279 C.ar    1  UNL1        0.1034
     12 N           8.2299   -6.6568   29.9934 N.ar    1  UNL1       -0.2125
     13 C           7.1192   -5.7691   30.4710 C.ar    1  UNL1        0.2137
     14 N           6.8150   -5.6707   31.9365 N.pl3   1  UNL1       -0.3274
     15 N           6.3126   -4.9796   29.4829 N.ar    1  UNL1       -0.2125
     16 C           6.6168   -5.0779   28.0174 C.ar    1  UNL1        0.1034
     17 H           7.3444   -6.1889   32.5850 H       1  UNL1        0.1452
     18 H           6.0859   -5.0880   32.2499 H       1  UNL1        0.1452
     19 C           3.4241   -0.7459   25.1016 C.ar    1  UNL1        0.1754
     20 C           4.4707   -1.8202   25.0716 C.ar    1  UNL1        0.0401
     21 C           4.8578   -2.4540   23.7684 C.ar    1  UNL1        0.0063
     22 C           4.1984   -2.0136   22.4951 C.ar    1  UNL1        0.0401
     23 C           3.1519   -0.9394   22.5250 C.ar    1  UNL1        0.1754
     24 C           2.7647   -0.3056   23.8282 C.ar    1  UNL1        0.2061
     25 C           3.2110   -0.8692   27.6879 C.3     1  UNL1        0.2526
     26 O           3.0370   -0.1121   26.4047 O.3     1  UNL1       -0.4683
     27 O           2.4925   -0.4991   21.2517 O.3     1  UNL1       -0.4683
     28 C           2.5565   -1.3717   20.0333 C.3     1  UNL1        0.2526
     29 O           1.7183    0.7686   23.8581 O.3     1  UNL1       -0.4654
     30 C           2.1072    2.2008   23.6402 C.3     1  UNL1        0.2528
@<TRIPOS>BOND
     1    25    26    1
     2    26    19    1
     3    19    20   ar
     4    20    21   ar
     5    21     1    1
     6     1     2    2
     7     2     3    1
     8     3     4    2
     9     4     5    1
    10     5     6    2
    11     6     7    1
    12     7    10    1
    13    10    11   ar
    14    11    12   ar
    15    12    13   ar
    16    13    14    1
    17    13    15   ar
    18    15    16   ar
    19     7     8    2
    20     8     9    1
    21    21    22   ar
    22    22    23   ar
    23    23    27    1
    24    27    28    1
    25    23    24   ar
    26    24    29    1
    27    29    30    1
    28    24    19   ar
    29     9     1    1
    30     8     4    1
    31    16    10   ar
    32    14    17    1
    33    14    18    1
@<TRIPOS>MOLECULE
*****
 30 33 0 0 0
SMALL
GASTEIGER

@<TRIPOS>ATOM
      1 C           4.6744   -2.2709   23.7957 C.2     1  UNL1        0.0294
      2 C           5.5084   -3.5123   23.6822 C.2     1  UNL1        0.2320
      3 N           5.6638   -4.1926   22.3544 N.2     1  UNL1       -0.0311
      4 C           4.9851   -3.6314   21.1402 C.2     1  UNL1        0.3720
      5 N           4.9556   -4.0805   19.7092 N.2     1  UNL1       -0.0308
      6 C           4.1032   -3.1165   18.9384 C.2     1  UNL1        0.2359
      7 C           3.6060   -2.0716   19.8930 C.2     1  UNL1        0.0536
      8 C           4.1510   -2.3899   21.2537 C.2     1  UNL1        0.0744
      9 C           3.9957   -1.7096   22.5815 C.3     1  UNL1        0.0645
     10 C           2.7193   -0.9121   19.5475 C.ar    1  UNL1        0.0421
     11 C           1.3581   -0.7981   20.1671 C.ar    1  UNL1        0.1034
     12 N           0.4714    0.3614   19.8216 N.ar    1  UNL1       -0.2125
     13 C           0.9460    1.4069   18.8565 C.ar    1  UNL1        0.2137
     14 N           0.0593    2.5665   18.5110 N.pl3   1  UNL1       -0.3274
     15 N           2.3073    1.2930   18.2368 N.ar    1  UNL1       -0.2125
     16 C           3.1939    0.1334   18.5824 C.ar    1  UNL1        0.1034
     17 H          -0.8341    2.6413   18.9177 H       1  UNL1        0.1452
     18 H           0.3709    3.2527   17.8775 H       1  UNL1        0.1452
     19 C           5.1974   -1.3460   27.6196 C.ar    1  UNL1        0.1754
     20 C           5.3528   -2.0263   26.2918 C.ar    1  UNL1        0.0401
     21 C           4.5189   -1.5905   25.1236 C.ar    1  UNL1        0.0063
     22 C           3.5296   -0.4744   25.2831 C.ar    1  UNL1        0.0401
     23 C           3.3742    0.2060   26.6109 C.ar    1  UNL1        0.1754
     24 C           4.2081   -0.2298   27.7792 C.ar    1  UNL1        0.2061
     25 C           6.4894   -3.2063   28.8923 C.3     1  UNL1        0.2526
     26 O           6.0312   -1.7818   28.7878 O.3     1  UNL1       -0.4683
     27 O           2.3849    1.3221   26.7704 O.3     1  UNL1       -0.4683
     28 C           0.9804    1.0232   27.2045 C.3     1  UNL1        0.2526
     29 O           4.0526    0.4505   29.1069 O.3     1  UNL1       -0.4654
     30 C           3.0765   -0.0830   30.1132 C.3     1  UNL1        0.2528
@<TRIPOS>BOND
     1    25    26    1
     2    26    19    1
     3    19    20   ar
     4    20    21   ar
     5    21     1    1
     6     1     2    2
     7     2     3    1
     8     3     4    2
     9     4     5    1
    10     5     6    2
    11     6     7    1
    12     7    10    1
    13    10    11   ar
    14    11    12   ar
    15    12    13   ar
    16    13    14    1
    17    13    15   ar
    18    15    16   ar
    19     7     8    2
    20     8     9    1
    21    21    22   ar
    22    22    23   ar
    23    23    27    1
    24    27    28    1
    25    23    24   ar
    26    24    29    1
    27    29    30    1
    28    24    19   ar
    29     9     1    1
    30     8     4    1
    31    16    10   ar
    32    14    17    1
    33    14    18    1
@<TRIPOS>MOLECULE
*****
 30 33 0 0 0
SMALL
GASTEIGER

@<TRIPOS>ATOM
      1 C           0.4971    1.8978   23.3359 C.2     1  UNL1        0.0294
      2 C          -0.4479    3.0468   23.1440 C.2     1  UNL1        0.2320
      3 N          -0.8032    3.5024   21.7598 N.2     1  UNL1       -0.0311
      4 C          -0.2135    2.8091   20.5675 C.2     1  UNL1        0.3720
      5 N          -0.3769    3.0337   19.0934 N.2     1  UNL1       -0.0308
      6 C           0.4671    2.0235   18.3743 C.2     1  UNL1        0.2359
      7 C           1.1521    1.1746   19.4039 C.2     1  UNL1        0.0536
      8 C           0.7315    1.6601   20.7594 C.2     1  UNL1        0.0744
      9 C           1.0868    1.2045   22.1436 C.3     1  UNL1        0.0645
     10 C           2.0927    0.0395   19.1268 C.ar    1  UNL1        0.0421
     11 C           2.1211   -1.1508   20.0391 C.ar    1  UNL1        0.1034
     12 N           3.0616   -2.2860   19.7620 N.ar    1  UNL1       -0.2125
     13 C           3.9738   -2.2309   18.5726 C.ar    1  UNL1        0.2137
     14 N           4.9144   -3.3660   18.2954 N.pl3   1  UNL1       -0.3274
     15 N           3.9455   -1.0405   17.6602 N.ar    1  UNL1       -0.2125
     16 C           3.0049    0.0946   17.9374 C.ar    1  UNL1        0.1034
     17 H           4.9330   -4.1472   18.8942 H       1  UNL1        0.1452
     18 H           5.5131   -3.3298   17.5147 H       1  UNL1        0.1452
     19 C           0.1703    0.9987   27.1876 C.ar    1  UNL1        0.1754
     20 C          -0.1851    1.4544   25.8033 C.ar    1  UNL1        0.0401
     21 C           0.8525    1.4421   24.7202 C.ar    1  UNL1        0.0063
     22 C           2.2455    0.9741   25.0212 C.ar    1  UNL1        0.0401
     23 C           2.6008    0.5184   26.4054 C.ar    1  UNL1        0.1754
     24 C           1.5632    0.5307   27.4886 C.ar    1  UNL1        0.2061
     25 C          -1.4049   -0.2817   28.8091 C.3     1  UNL1        0.2526
     26 O          -0.8673    1.0111   28.2707 O.3     1  UNL1       -0.4683
     27 O           3.9938    0.0504   26.7064 O.3     1  UNL1       -0.4683
     28 C           4.2958   -1.4178   26.7635 C.3     1  UNL1        0.2526
     29 O           1.9186    0.0751   28.8728 O.3     1  UNL1       -0.4654
     30 C           2.2648    1.0829   29.9284 C.3     1  UNL1        0.2528
@<TRIPOS>BOND
     1    25    26    1
     2    26    19    1
     3    19    20   ar
     4    20    21   ar
     5    21     1    1
     6     1     2    2
     7     2     3    1
     8     3     4    2
     9     4     5    1
    10     5     6    2
    11     6     7    1
    12     7    10    1
    13    10    11   ar
    14    11    12   ar
    15    12    13   ar
    16    13    14    1
    17    13    15   ar
    18    15    16   ar
    19     7     8    2
    20     8     9    1
    21    21    22   ar
    22    22    23   ar
    23    23    27    1
    24    27    28    1
    25    23    24   ar
    26    24    29    1
    27    29    30    1
    28    24    19   ar
    29     9     1    1
    30     8     4    1
    31    16    10   ar
    32    14    17    1
    33    14    18    1
