@<TRIPOS>MOLECULE
*****
 42 45 0 0 0
SMALL
GASTEIGER

@<TRIPOS>ATOM
      1 C           0.7914    3.1988   18.9311 C.3     1  UNL1        0.0959
      2 C          -0.3015    3.2453   17.9048 C.3     1  UNL1        0.1163
      3 N          -1.5005    3.8915   18.5333 N.am    1  UNL1       -0.2442
      4 C          -2.8197    4.1410   17.8644 C.2     1  UNL1        0.4047
      5 O          -3.0260    3.7310   16.4363 O.2     1  UNL1       -0.2262
      6 C          -1.1485    4.2444   19.9480 C.3     1  UNL1        0.0998
      7 C           0.2679    3.8163   20.1939 C.3     1  UNL1        0.0556
      8 N           3.8373    0.6547   18.9307 N.am    1  UNL1       -0.2485
      9 C           2.4624    1.2195   19.1319 C.2     1  UNL1        0.3059
     10 O           1.3834    0.3698   19.7350 O.2     1  UNL1       -0.2524
     11 N           2.1663    2.6340   18.7300 N.am    1  UNL1       -0.2885
     12 H           4.5455    1.2124   18.5349 H       1  UNL1        0.1583
     13 H           2.8745    3.1918   18.3341 H       1  UNL1        0.1510
     14 C           4.9209   -2.6893   20.5766 C.ar    1  UNL1        0.0803
     15 S           4.8446   -1.1913   20.5808 S.2     1  UNL1       -0.0488
     16 C           4.1333   -0.7597   19.3326 C.ar    1  UNL1        0.1664
     17 N           3.7700   -1.9912   18.5569 N.ar    1  UNL1       -0.2282
     18 C           4.2567   -3.1837   19.3257 C.ar    1  UNL1        0.0701
     19 C           4.1058   -4.6187   18.9157 C.3     1  UNL1        0.0528
     20 C           5.0340   -3.4939   23.0443 C.3     1  UNL1        0.0779
     21 C           5.5507   -3.5430   21.6369 C.2     1  UNL1        0.1807
     22 O           6.6972   -4.4458   21.2900 O.2     1  UNL1       -0.2908
     23 O          -3.9326    4.8005   18.6235 O.3     1  UNL1       -0.4418
     24 C          -5.2675    4.1255   18.7349 C.3     1  UNL1        0.1378
     25 C          -4.7734    3.3433   19.9157 C.3     1  UNL1        0.0437
     26 C          -5.7616    4.9076   17.5542 C.3     1  UNL1        0.0437
     27 C          -6.6024    3.4504   18.8463 C.3     1  UNL1        0.0437
     28 C           1.0275    3.9774   21.4773 C.3     1  UNL1        0.0755
     29 N           0.6197    3.1991   22.6930 N.3     1  UNL1       -0.2726
     30 C           1.1784    1.8269   22.9273 C.3     1  UNL1        0.0721
     31 C           0.7705    1.0486   24.1430 C.3     1  UNL1        0.0174
     32 C          -0.1960    1.6426   25.1244 C.3     1  UNL1        0.0031
     33 C          -0.7546    3.0148   24.8901 C.3     1  UNL1        0.0204
     34 C          -0.3468    3.7930   23.6744 C.3     1  UNL1        0.0724
     35 C          -1.7211    3.6087   25.8715 C.3     1  UNL1        0.0277
     36 C          -3.1489    3.8378   25.4731 C.ar    1  UNL1       -0.0220
     37 C          -4.0668    4.6036   26.3792 C.ar    1  UNL1       -0.0020
     38 C          -5.4947    4.8327   25.9808 C.ar    1  UNL1        0.0293
     39 C          -6.0047    4.2960   24.6762 C.ar    1  UNL1        0.1401
     40 F          -7.4326    4.5251   24.2778 F       1  UNL1       -0.2042
     41 C          -5.0868    3.5302   23.7701 C.ar    1  UNL1        0.0293
     42 C          -3.6589    3.3011   24.1685 C.ar    1  UNL1       -0.0020
@<TRIPOS>BOND
     1    20    21    1
     2    21    22    2
     3    21    14    1
     4    14    15   ar
     5    15    16   ar
     6    16     8    1
     7     8     9   am
     8     9    10    2
     9     9    11   am
    10     1    11    1
    11     1     2    1
    12     2     3    1
    13     3     4   am
    14     4     5    2
    15     4    23    1
    16    23    24    1
    17    24    25    1
    18    24    26    1
    19    24    27    1
    20     3     6    1
    21     6     7    1
    22     7    28    1
    23    28    29    1
    24    29    30    1
    25    30    31    1
    26    31    32    1
    27    32    33    1
    28    33    35    1
    29    35    36    1
    30    36    37   ar
    31    37    38   ar
    32    38    39   ar
    33    39    40    1
    34    39    41   ar
    35    41    42   ar
    36    33    34    1
    37    16    17   ar
    38    17    18   ar
    39    18    19    1
    40    18    14   ar
    41     7     1    1
    42    34    29    1
    43    42    36   ar
    44     8    12    1
    45    11    13    1
@<TRIPOS>MOLECULE
*****
 42 45 0 0 0
SMALL
GASTEIGER

@<TRIPOS>ATOM
      1 C           2.3104    1.0639   19.9001 C.3     1  UNL1        0.0959
      2 C           2.8513    0.6320   18.5694 C.3     1  UNL1        0.1163
      3 N           3.4986   -0.7097   18.7455 N.am    1  UNL1       -0.2442
      4 C           4.1691   -1.5130   17.6708 C.2     1  UNL1        0.4047
      5 O           4.2332   -0.9840   16.2686 O.2     1  UNL1       -0.2262
      6 C           3.3578   -1.1068   20.1851 C.3     1  UNL1        0.0998
      7 C           2.6234   -0.0107   20.8987 C.3     1  UNL1        0.0556
      8 N          -0.6190    3.6101   20.7286 N.am    1  UNL1       -0.2485
      9 C           0.1073    2.3285   20.4461 C.2     1  UNL1        0.3059
     10 O          -0.6429    1.0297   20.4270 O.2     1  UNL1       -0.2524
     11 N           1.5840    2.3455   20.1826 N.am    1  UNL1       -0.2885
     12 H          -0.1267    4.4625   20.7411 H       1  UNL1        0.1583
     13 H           2.0764    3.1980   20.1952 H       1  UNL1        0.1510
     14 C          -4.4976    3.7522   20.6823 C.ar    1  UNL1        0.0803
     15 S          -3.1734    3.8832   19.9899 S.2     1  UNL1       -0.0488
     16 C          -2.0955    3.5929   20.9920 C.ar    1  UNL1        0.1664
     17 N          -2.7537    3.2826   22.3037 N.ar    1  UNL1       -0.2282
     18 C          -4.2381    3.3810   22.1123 C.ar    1  UNL1        0.0701
     19 C          -5.2803    3.1489   23.1660 C.3     1  UNL1        0.0528
     20 C          -6.2433    3.1491   18.8552 C.3     1  UNL1        0.0779
     21 C          -5.8445    3.9565   20.0549 C.2     1  UNL1        0.1807
     22 O          -6.7928    4.9681   20.6270 O.2     1  UNL1       -0.2908
     23 O           4.7754   -2.8453   17.9981 O.3     1  UNL1       -0.4418
     24 C           5.9637   -2.9249   18.9100 C.3     1  UNL1        0.1378
     25 C           5.2691   -3.9766   19.7234 C.3     1  UNL1        0.0437
     26 C           6.6583   -1.8733   18.0967 C.3     1  UNL1        0.0437
     27 C           7.1520   -3.0045   19.8219 C.3     1  UNL1        0.0437
     28 C           2.2650    0.0076   22.3551 C.3     1  UNL1        0.0755
     29 N           3.0423    0.8666   23.3081 N.3     1  UNL1       -0.2726
     30 C           4.4395    1.2915   22.9660 C.3     1  UNL1        0.0721
     31 C           5.2167    2.1504   23.9189 C.3     1  UNL1        0.0174
     32 C           4.5967    2.5844   25.2140 C.3     1  UNL1        0.0031
     33 C           3.1994    2.1595   25.5560 C.3     1  UNL1        0.0204
     34 C           2.4222    1.3006   24.6031 C.3     1  UNL1        0.0724
     35 C           2.5793    2.5936   26.8511 C.3     1  UNL1        0.0277
     36 C           1.4282    1.8233   27.4268 C.ar    1  UNL1       -0.0220
     37 C           0.0211    2.2807   27.1794 C.ar    1  UNL1       -0.0020
     38 C          -1.1300    1.5104   27.7551 C.ar    1  UNL1        0.0293
     39 C          -0.8743    0.2827   28.5781 C.ar    1  UNL1        0.1401
     40 F          -2.0255   -0.4875   29.1538 F       1  UNL1       -0.2042
     41 C           0.5327   -0.1746   28.8255 C.ar    1  UNL1        0.0293
     42 C           1.6839    0.5957   28.2499 C.ar    1  UNL1       -0.0020
@<TRIPOS>BOND
     1    20    21    1
     2    21    22    2
     3    21    14    1
     4    14    15   ar
     5    15    16   ar
     6    16     8    1
     7     8     9   am
     8     9    10    2
     9     9    11   am
    10     1    11    1
    11     1     2    1
    12     2     3    1
    13     3     4   am
    14     4     5    2
    15     4    23    1
    16    23    24    1
    17    24    25    1
    18    24    26    1
    19    24    27    1
    20     3     6    1
    21     6     7    1
    22     7    28    1
    23    28    29    1
    24    29    30    1
    25    30    31    1
    26    31    32    1
    27    32    33    1
    28    33    35    1
    29    35    36    1
    30    36    37   ar
    31    37    38   ar
    32    38    39   ar
    33    39    40    1
    34    39    41   ar
    35    41    42   ar
    36    33    34    1
    37    16    17   ar
    38    17    18   ar
    39    18    19    1
    40    18    14   ar
    41     7     1    1
    42    34    29    1
    43    42    36   ar
    44     8    12    1
    45    11    13    1
@<TRIPOS>MOLECULE
*****
 42 45 0 0 0
SMALL
GASTEIGER

@<TRIPOS>ATOM
      1 C           0.7381    3.2277   18.8402 C.3     1  UNL1        0.0959
      2 C          -0.3793    3.1923   17.8402 C.3     1  UNL1        0.1163
      3 N          -1.5609    3.8949   18.4403 N.am    1  UNL1       -0.2442
      4 C          -2.8954    4.0931   17.7846 C.2     1  UNL1        0.4047
      5 O          -3.1374    3.5648   16.4017 O.2     1  UNL1       -0.2262
      6 C          -1.1738    4.3645   19.8113 C.3     1  UNL1        0.0998
      7 C           0.2471    3.9521   20.0585 C.3     1  UNL1        0.0556
      8 N           3.7497    0.6434   18.8944 N.am    1  UNL1       -0.2485
      9 C           2.3815    1.2296   19.0800 C.2     1  UNL1        0.3059
     10 O           1.2884    0.4039   19.6910 O.2     1  UNL1       -0.2524
     11 N           2.1063    2.6415   18.6546 N.am    1  UNL1       -0.2885
     12 H           4.4671    1.1854   18.4934 H       1  UNL1        0.1583
     13 H           2.8237    3.1835   18.2536 H       1  UNL1        0.1510
     14 C           4.8261   -2.6878   20.5705 C.ar    1  UNL1        0.0803
     15 S           4.7981   -1.1885   20.5344 S.2     1  UNL1       -0.0488
     16 C           4.0248   -0.7684   19.3197 C.ar    1  UNL1        0.1664
     17 N           3.5748   -2.0081   18.6051 N.ar    1  UNL1       -0.2282
     18 C           4.0701   -3.1943   19.3781 C.ar    1  UNL1        0.0701
     19 C           3.8483   -4.6343   19.0214 C.3     1  UNL1        0.0528
     20 C           4.9823   -3.5224   23.0258 C.3     1  UNL1        0.0779
     21 C           5.4930   -3.5322   21.6155 C.2     1  UNL1        0.1807
     22 O           6.6707   -4.3864   21.2502 O.2     1  UNL1       -0.2908
     23 O          -3.9878    4.8195   18.5117 O.3     1  UNL1       -0.4418
     24 C          -5.3343    4.1792   18.6756 C.3     1  UNL1        0.1378
     25 C          -5.8644    5.0033   17.5397 C.3     1  UNL1        0.0437
     26 C          -4.8043    3.3552   19.8113 C.3     1  UNL1        0.0437
     27 C          -6.6808    3.5389   18.8394 C.3     1  UNL1        0.0437
     28 C           1.0381    4.2176   21.3050 C.3     1  UNL1        0.0755
     29 N           1.1007    3.1820   22.3884 N.3     1  UNL1       -0.2726
     30 C           2.1979    2.1593   22.3858 C.3     1  UNL1        0.0721
     31 C           2.2604    1.1237   23.4692 C.3     1  UNL1        0.0174
     32 C           1.2257    1.1109   24.5551 C.3     1  UNL1        0.0031
     33 C           0.1285    2.1337   24.5576 C.3     1  UNL1        0.0204
     34 C           0.0660    3.1692   23.4743 C.3     1  UNL1        0.0724
     35 C          -0.9062    2.1209   25.6436 C.3     1  UNL1        0.0277
     36 C          -0.4850    2.0210   27.0797 C.ar    1  UNL1       -0.0220
     37 C           0.3328    3.1153   27.6993 C.ar    1  UNL1       -0.0020
     38 C           0.7540    3.0155   29.1354 C.ar    1  UNL1        0.0293
     39 C           0.3574    1.8214   29.9521 C.ar    1  UNL1        0.1401
     40 F           0.7787    1.7216   31.3883 F       1  UNL1       -0.2042
     41 C          -0.4603    0.7271   29.3326 C.ar    1  UNL1        0.0293
     42 C          -0.8816    0.8269   27.8963 C.ar    1  UNL1       -0.0020
@<TRIPOS>BOND
     1    20    21    1
     2    21    22    2
     3    21    14    1
     4    14    15   ar
     5    15    16   ar
     6    16     8    1
     7     8     9   am
     8     9    10    2
     9     9    11   am
    10     1    11    1
    11     1     2    1
    12     2     3    1
    13     3     4   am
    14     4     5    2
    15     4    23    1
    16    23    24    1
    17    24    25    1
    18    24    26    1
    19    24    27    1
    20     3     6    1
    21     6     7    1
    22     7    28    1
    23    28    29    1
    24    29    30    1
    25    30    31    1
    26    31    32    1
    27    32    33    1
    28    33    35    1
    29    35    36    1
    30    36    37   ar
    31    37    38   ar
    32    38    39   ar
    33    39    40    1
    34    39    41   ar
    35    41    42   ar
    36    33    34    1
    37    16    17   ar
    38    17    18   ar
    39    18    19    1
    40    18    14   ar
    41     7     1    1
    42    34    29    1
    43    42    36   ar
    44     8    12    1
    45    11    13    1
@<TRIPOS>MOLECULE
*****
 42 45 0 0 0
SMALL
GASTEIGER

@<TRIPOS>ATOM
      1 C           2.5349    0.3897   27.4395 C.3     1  UNL1        0.0959
      2 C           3.6947   -0.1088   28.2496 C.3     1  UNL1        0.1163
      3 N           3.1825   -0.4891   29.6073 N.am    1  UNL1       -0.2442
      4 C           4.0027   -1.0368   30.7375 C.2     1  UNL1        0.4047
      5 O           5.4771   -1.2481   30.5605 O.2     1  UNL1       -0.2262
      6 C           1.7061   -0.2256   29.6361 C.3     1  UNL1        0.0998
      7 C           1.3059    0.3176   28.2964 C.3     1  UNL1        0.0556
      8 N           3.2474    0.4898   23.5366 N.am    1  UNL1       -0.2485
      9 C           3.1884    0.0044   24.9546 C.2     1  UNL1        0.3059
     10 O           3.7242   -1.3520   25.3059 O.2     1  UNL1       -0.2524
     11 N           2.5938    0.8752   26.0215 N.am    1  UNL1       -0.2885
     12 H           2.8958    1.3800   23.3061 H       1  UNL1        0.1583
     13 H           2.2422    1.7654   25.7910 H       1  UNL1        0.1510
     14 C           4.0898   -1.7597   20.4878 C.ar    1  UNL1        0.0803
     15 S           3.1120   -0.9553   21.2920 S.2     1  UNL1       -0.0488
     16 C           3.8419   -0.3810   22.4699 C.ar    1  UNL1        0.1664
     17 N           5.2711   -0.8304   22.3935 N.ar    1  UNL1       -0.2282
     18 C           5.4242   -1.6825   21.1686 C.ar    1  UNL1        0.0701
     19 C           6.6896   -2.3416   20.7056 C.3     1  UNL1        0.0528
     20 C           3.3768   -3.9511   19.2882 C.3     1  UNL1        0.0779
     21 C           3.7865   -2.5095   19.2246 C.2     1  UNL1        0.1807
     22 O           3.8929   -1.8179   17.8979 O.2     1  UNL1       -0.2908
     23 O           3.3484   -1.3731   32.0446 O.3     1  UNL1       -0.4418
     24 C           4.0522   -1.0727   33.3348 C.3     1  UNL1        0.1378
     25 C           3.7001    0.3782   33.1889 C.3     1  UNL1        0.0437
     26 C           4.4042   -2.5235   33.4806 C.3     1  UNL1        0.0437
     27 C           4.7559   -0.7723   34.6249 C.3     1  UNL1        0.0437
     28 C          -0.0800    0.7182   27.8857 C.3     1  UNL1        0.0755
     29 N          -0.3127    2.0454   27.2265 N.3     1  UNL1       -0.2726
     30 C           0.0038    3.3139   27.9619 C.3     1  UNL1        0.0721
     31 C          -0.2290    4.6410   27.3028 C.3     1  UNL1        0.0174
     32 C          -0.7782    4.6996   25.9082 C.3     1  UNL1        0.0031
     33 C          -1.0947    3.4312   25.1728 C.3     1  UNL1        0.0204
     34 C          -0.8620    2.1041   25.8320 C.3     1  UNL1        0.0724
     35 C          -1.6440    3.4899   23.7782 C.3     1  UNL1        0.0277
     36 C          -3.1230    3.6096   23.5590 C.ar    1  UNL1       -0.0220
     37 C          -3.6782    3.5969   22.1656 C.ar    1  UNL1       -0.0020
     38 C          -5.1572    3.7166   21.9464 C.ar    1  UNL1        0.0293
     39 C          -6.0811    3.8491   23.1207 C.ar    1  UNL1        0.1401
     40 F          -7.5603    3.9688   22.9015 F       1  UNL1       -0.2042
     41 C          -5.5260    3.8618   24.5141 C.ar    1  UNL1        0.0293
     42 C          -4.0469    3.7421   24.7333 C.ar    1  UNL1       -0.0020
@<TRIPOS>BOND
     1    20    21    1
     2    21    22    2
     3    21    14    1
     4    14    15   ar
     5    15    16   ar
     6    16     8    1
     7     8     9   am
     8     9    10    2
     9     9    11   am
    10     1    11    1
    11     1     2    1
    12     2     3    1
    13     3     4   am
    14     4     5    2
    15     4    23    1
    16    23    24    1
    17    24    25    1
    18    24    26    1
    19    24    27    1
    20     3     6    1
    21     6     7    1
    22     7    28    1
    23    28    29    1
    24    29    30    1
    25    30    31    1
    26    31    32    1
    27    32    33    1
    28    33    35    1
    29    35    36    1
    30    36    37   ar
    31    37    38   ar
    32    38    39   ar
    33    39    40    1
    34    39    41   ar
    35    41    42   ar
    36    33    34    1
    37    16    17   ar
    38    17    18   ar
    39    18    19    1
    40    18    14   ar
    41     7     1    1
    42    34    29    1
    43    42    36   ar
    44     8    12    1
    45    11    13    1
@<TRIPOS>MOLECULE
*****
 42 45 0 0 0
SMALL
GASTEIGER

@<TRIPOS>ATOM
      1 C           4.0312   -1.0675   26.3729 C.3     1  UNL1        0.0959
      2 C           2.9455   -0.1105   26.7672 C.3     1  UNL1        0.1163
      3 N           3.3908    0.6115   28.0044 N.am    1  UNL1       -0.2442
      4 C           2.6119    1.6601   28.7418 C.2     1  UNL1        0.4047
      5 O           1.2557    2.0714   28.2501 O.2     1  UNL1       -0.2262
      6 C           4.7516    0.1007   28.3746 C.3     1  UNL1        0.0998
      7 C           5.1475   -0.9370   27.3663 C.3     1  UNL1        0.0556
      8 N           4.1695   -2.3724   22.6274 N.am    1  UNL1       -0.2485
      9 C           4.1955   -1.4474   23.8079 C.2     1  UNL1        0.3059
     10 O           4.4118    0.0229   23.6040 O.2     1  UNL1       -0.2524
     11 N           4.0052   -1.9925   25.1924 N.am    1  UNL1       -0.2885
     12 H           4.0275   -3.3374   22.7612 H       1  UNL1        0.1583
     13 H           3.8633   -2.9575   25.3262 H       1  UNL1        0.1510
     14 C           5.3684   -1.2117   19.1230 C.ar    1  UNL1        0.0803
     15 S           5.6298   -1.8683   20.4461 S.2     1  UNL1       -0.0488
     16 C           4.3597   -1.8273   21.2431 C.ar    1  UNL1        0.1664
     17 N           3.3132   -1.1452   20.4125 N.ar    1  UNL1       -0.2282
     18 C           3.9366   -0.7648   19.1023 C.ar    1  UNL1        0.0701
     19 C           3.2490   -0.0611   17.9700 C.3     1  UNL1        0.0528
     20 C           6.8648    0.3379   17.6708 C.3     1  UNL1        0.0779
     21 C           6.3638   -1.0334   18.0153 C.2     1  UNL1        0.1807
     22 O           6.8583   -2.2262   17.2520 O.2     1  UNL1       -0.2908
     23 O           3.1891    2.2974   29.9708 O.3     1  UNL1       -0.4418
     24 C           2.4076    2.3014   31.2511 C.3     1  UNL1        0.1378
     25 C           2.5972    0.8182   31.3714 C.3     1  UNL1        0.0437
     26 C           2.2180    3.7845   31.1307 C.3     1  UNL1        0.0437
     27 C           1.6261    2.3054   32.5314 C.3     1  UNL1        0.0437
     28 C           6.4337   -1.7086   27.3537 C.3     1  UNL1        0.0755
     29 N           6.5721   -2.9496   28.1849 N.3     1  UNL1       -0.2726
     30 C           6.7062   -4.2870   27.5193 C.3     1  UNL1        0.0721
     31 C           6.8445   -5.5279   28.3505 C.3     1  UNL1        0.0174
     32 C           6.8488   -5.4313   29.8474 C.3     1  UNL1        0.0031
     33 C           6.7146   -4.0939   30.5130 C.3     1  UNL1        0.0204
     34 C           6.5763   -2.8530   29.6818 C.3     1  UNL1        0.0724
     35 C           6.7189   -3.9973   32.0099 C.3     1  UNL1        0.0277
     36 C           6.1930   -2.7645   32.6834 C.ar    1  UNL1       -0.0220
     37 C           7.1007   -1.5940   32.9200 C.ar    1  UNL1       -0.0020
     38 C           6.5747   -0.3612   33.5935 C.ar    1  UNL1        0.0293
     39 C           5.1411   -0.2989   34.0305 C.ar    1  UNL1        0.1401
     40 F           4.6152    0.9339   34.7040 F       1  UNL1       -0.2042
     41 C           4.2334   -1.4694   33.7939 C.ar    1  UNL1        0.0293
     42 C           4.7594   -2.7023   33.1203 C.ar    1  UNL1       -0.0020
@<TRIPOS>BOND
     1    20    21    1
     2    21    22    2
     3    21    14    1
     4    14    15   ar
     5    15    16   ar
     6    16     8    1
     7     8     9   am
     8     9    10    2
     9     9    11   am
    10     1    11    1
    11     1     2    1
    12     2     3    1
    13     3     4   am
    14     4     5    2
    15     4    23    1
    16    23    24    1
    17    24    25    1
    18    24    26    1
    19    24    27    1
    20     3     6    1
    21     6     7    1
    22     7    28    1
    23    28    29    1
    24    29    30    1
    25    30    31    1
    26    31    32    1
    27    32    33    1
    28    33    35    1
    29    35    36    1
    30    36    37   ar
    31    37    38   ar
    32    38    39   ar
    33    39    40    1
    34    39    41   ar
    35    41    42   ar
    36    33    34    1
    37    16    17   ar
    38    17    18   ar
    39    18    19    1
    40    18    14   ar
    41     7     1    1
    42    34    29    1
    43    42    36   ar
    44     8    12    1
    45    11    13    1
@<TRIPOS>MOLECULE
*****
 42 45 0 0 0
SMALL
GASTEIGER

@<TRIPOS>ATOM
      1 C           4.3847   -1.5526   26.7668 C.3     1  UNL1        0.0959
      2 C           3.3973   -1.2583   27.8570 C.3     1  UNL1        0.1163
      3 N           4.1649   -0.8553   29.0812 N.am    1  UNL1       -0.2442
      4 C           3.5744   -0.4740   30.4063 C.2     1  UNL1        0.4047
      5 O           2.0860   -0.4749   30.5923 O.2     1  UNL1       -0.2262
      6 C           5.6266   -0.9005   28.7475 C.3     1  UNL1        0.0998
      7 C           5.7624   -1.3314   27.3171 C.3     1  UNL1        0.0556
      8 N           3.4901   -1.4067   22.9030 N.am    1  UNL1       -0.2485
      9 C           3.8223   -0.9682   24.2985 C.2     1  UNL1        0.3059
     10 O           3.9243    0.4931   24.6213 O.2     1  UNL1       -0.2524
     11 N           4.0525   -1.9910   25.3713 N.am    1  UNL1       -0.2885
     12 H           3.4232   -2.3658   22.6912 H       1  UNL1        0.1583
     13 H           3.9856   -2.9501   25.1595 H       1  UNL1        0.1510
     14 C           2.1954    0.9593   20.1118 C.ar    1  UNL1        0.0803
     15 S           1.9753   -0.1561   21.0902 S.2     1  UNL1       -0.0488
     16 C           3.2600   -0.3839   21.8303 C.ar    1  UNL1        0.1664
     17 N           4.2741    0.5909   21.3092 N.ar    1  UNL1       -0.2282
     18 C           3.6161    1.4210   20.2472 C.ar    1  UNL1        0.0701
     19 C           4.2650    2.5199   19.4588 C.3     1  UNL1        0.0528
     20 C           0.5497    2.8522   19.4348 C.3     1  UNL1        0.0779
     21 C           1.1741    1.5154   19.1644 C.2     1  UNL1        0.1807
     22 O           0.7770    0.7347   17.9467 O.2     1  UNL1       -0.2908
     23 O           4.4723   -0.0919   31.5454 O.3     1  UNL1       -0.4418
     24 C           4.3725   -0.8167   32.8549 C.3     1  UNL1        0.1378
     25 C           4.9830   -2.0347   32.2272 C.3     1  UNL1        0.0437
     26 C           3.7620    0.4012   33.4825 C.3     1  UNL1        0.0437
     27 C           4.2727   -1.5415   34.1643 C.3     1  UNL1        0.0437
     28 C           7.0499   -1.5099   26.5685 C.3     1  UNL1        0.0755
     29 N           7.2173   -2.6676   25.6295 N.3     1  UNL1       -0.2726
     30 C           7.0791   -4.0719   26.1382 C.3     1  UNL1        0.0721
     31 C           7.2465   -5.2296   25.1992 C.3     1  UNL1        0.0174
     32 C           7.5520   -4.9829   23.7515 C.3     1  UNL1        0.0031
     33 C           7.6902   -3.5786   23.2428 C.3     1  UNL1        0.0204
     34 C           7.5228   -2.4210   24.1818 C.3     1  UNL1        0.0724
     35 C           7.9957   -3.3319   21.7951 C.3     1  UNL1        0.0277
     36 C           6.8970   -2.9373   20.8534 C.ar    1  UNL1       -0.0220
     37 C           7.0929   -1.7851   19.9130 C.ar    1  UNL1       -0.0020
     38 C           5.9942   -1.3905   18.9712 C.ar    1  UNL1        0.0293
     39 C           4.6994   -2.1479   18.9698 C.ar    1  UNL1        0.1401
     40 F           3.6007   -1.7532   18.0280 F       1  UNL1       -0.2042
     41 C           4.5035   -3.3000   19.9101 C.ar    1  UNL1        0.0293
     42 C           5.6023   -3.6947   20.8519 C.ar    1  UNL1       -0.0020
@<TRIPOS>BOND
     1    20    21    1
     2    21    22    2
     3    21    14    1
     4    14    15   ar
     5    15    16   ar
     6    16     8    1
     7     8     9   am
     8     9    10    2
     9     9    11   am
    10     1    11    1
    11     1     2    1
    12     2     3    1
    13     3     4   am
    14     4     5    2
    15     4    23    1
    16    23    24    1
    17    24    25    1
    18    24    26    1
    19    24    27    1
    20     3     6    1
    21     6     7    1
    22     7    28    1
    23    28    29    1
    24    29    30    1
    25    30    31    1
    26    31    32    1
    27    32    33    1
    28    33    35    1
    29    35    36    1
    30    36    37   ar
    31    37    38   ar
    32    38    39   ar
    33    39    40    1
    34    39    41   ar
    35    41    42   ar
    36    33    34    1
    37    16    17   ar
    38    17    18   ar
    39    18    19    1
    40    18    14   ar
    41     7     1    1
    42    34    29    1
    43    42    36   ar
    44     8    12    1
    45    11    13    1
@<TRIPOS>MOLECULE
*****
 42 45 0 0 0
SMALL
GASTEIGER

@<TRIPOS>ATOM
      1 C           4.2503   -1.4601   25.8018 C.3     1  UNL1        0.0959
      2 C           3.8051   -1.2146   24.3906 C.3     1  UNL1        0.1163
      3 N           5.0288   -1.0097   23.5475 N.am    1  UNL1       -0.2442
      4 C           5.0477   -0.7342   22.0731 C.2     1  UNL1        0.4047
      5 O           3.7592   -0.6426   21.3107 O.2     1  UNL1       -0.2262
      6 C           6.2302   -1.1285   24.4377 C.3     1  UNL1        0.0998
      7 C           5.7490   -1.4069   25.8310 C.3     1  UNL1        0.0556
      8 N           2.2689   -0.9065   29.1956 N.am    1  UNL1       -0.2485
      9 C           3.1652   -0.6524   28.0200 C.2     1  UNL1        0.3059
     10 O           3.8727    0.6636   27.8869 O.2     1  UNL1       -0.2524
     11 N           3.3540   -1.7142   26.9774 N.am    1  UNL1       -0.2885
     12 H           1.8045   -1.7702   29.2830 H       1  UNL1        0.1583
     13 H           2.8896   -2.5779   27.0647 H       1  UNL1        0.1510
     14 C           2.3876    1.5309   32.2140 C.ar    1  UNL1        0.0803
     15 S           2.9367    0.3613   31.4521 S.2     1  UNL1       -0.0488
     16 C           2.0801    0.1553   30.2381 C.ar    1  UNL1        0.1664
     17 N           1.0015    1.1977   30.2497 N.ar    1  UNL1       -0.2282
     18 C           1.1915    2.0478   31.4709 C.ar    1  UNL1        0.0701
     19 C           0.3358    3.2107   31.8775 C.3     1  UNL1        0.0528
     20 C           4.3690    2.5297   33.5653 C.3     1  UNL1        0.0779
     21 C           2.9379    2.0860   33.4942 C.2     1  UNL1        0.1807
     22 O           2.0571    2.1974   34.7032 O.2     1  UNL1       -0.2908
     23 O           6.3551   -0.5505   21.3612 O.3     1  UNL1       -0.4418
     24 C           6.6135   -1.2690   20.0701 C.3     1  UNL1        0.1378
     25 C           6.5248    0.0319   19.3284 C.3     1  UNL1        0.0437
     26 C           6.7023   -2.5697   20.8118 C.3     1  UNL1        0.0437
     27 C           6.8720   -1.9875   18.7791 C.3     1  UNL1        0.0437
     28 C           6.6147   -1.5984   27.0409 C.3     1  UNL1        0.0755
     29 N           6.6546   -2.9294   27.7314 N.3     1  UNL1       -0.2726
     30 C           6.6155   -4.1939   26.9256 C.3     1  UNL1        0.0721
     31 C           6.6554   -5.5249   27.6161 C.3     1  UNL1        0.0174
     32 C           6.7345   -5.5913   29.1126 C.3     1  UNL1        0.0031
     33 C           6.7736   -4.3269   29.9184 C.3     1  UNL1        0.0204
     34 C           6.7337   -2.9959   29.2279 C.3     1  UNL1        0.0724
     35 C           6.8527   -4.3933   31.4149 C.3     1  UNL1        0.0277
     36 C           6.8657   -3.1292   32.2221 C.ar    1  UNL1       -0.0220
     37 C           8.1635   -2.4300   32.5000 C.ar    1  UNL1       -0.0020
     38 C           8.1765   -1.1659   33.3072 C.ar    1  UNL1        0.0293
     39 C           6.8919   -0.6008   33.8367 C.ar    1  UNL1        0.1401
     40 F           6.9050    0.6634   34.6439 F       1  UNL1       -0.2042
     41 C           5.5942   -1.2998   33.5589 C.ar    1  UNL1        0.0293
     42 C           5.5811   -2.5641   32.7516 C.ar    1  UNL1       -0.0020
@<TRIPOS>BOND
     1    20    21    1
     2    21    22    2
     3    21    14    1
     4    14    15   ar
     5    15    16   ar
     6    16     8    1
     7     8     9   am
     8     9    10    2
     9     9    11   am
    10     1    11    1
    11     1     2    1
    12     2     3    1
    13     3     4   am
    14     4     5    2
    15     4    23    1
    16    23    24    1
    17    24    25    1
    18    24    26    1
    19    24    27    1
    20     3     6    1
    21     6     7    1
    22     7    28    1
    23    28    29    1
    24    29    30    1
    25    30    31    1
    26    31    32    1
    27    32    33    1
    28    33    35    1
    29    35    36    1
    30    36    37   ar
    31    37    38   ar
    32    38    39   ar
    33    39    40    1
    34    39    41   ar
    35    41    42   ar
    36    33    34    1
    37    16    17   ar
    38    17    18   ar
    39    18    19    1
    40    18    14   ar
    41     7     1    1
    42    34    29    1
    43    42    36   ar
    44     8    12    1
    45    11    13    1
@<TRIPOS>MOLECULE
*****
 42 45 0 0 0
SMALL
GASTEIGER

@<TRIPOS>ATOM
      1 C           3.8220   -0.7637   26.4672 C.3     1  UNL1        0.0959
      2 C           4.6824   -1.9278   26.8603 C.3     1  UNL1        0.1163
      3 N           5.2074   -1.6706   28.2417 N.am    1  UNL1       -0.2442
      4 C           6.1098   -2.5773   29.0250 C.2     1  UNL1        0.4047
      5 O           6.5669   -3.8765   28.4307 O.2     1  UNL1       -0.2262
      6 C           4.6714   -0.3475   28.7023 C.3     1  UNL1        0.0998
      7 C           3.8152    0.2130   27.6056 C.3     1  UNL1        0.0556
      8 N           2.9618   -1.0003   22.6000 N.am    1  UNL1       -0.2485
      9 C           3.6879   -1.1597   23.9029 C.2     1  UNL1        0.3059
     10 O           5.0059   -1.8747   23.9444 O.2     1  UNL1       -0.2524
     11 N           3.0960   -0.6043   25.1643 N.am    1  UNL1       -0.2885
     12 H           2.0967   -0.5311   22.5728 H       1  UNL1        0.1583
     13 H           2.2309   -0.1350   25.1371 H       1  UNL1        0.1510
     14 C           4.5068   -1.7183   19.1125 C.ar    1  UNL1        0.0803
     15 S           3.9700   -0.7620   20.1360 S.2     1  UNL1       -0.0488
     16 C           3.5537   -1.5558   21.3388 C.ar    1  UNL1        0.1664
     17 N           3.8333   -3.0027   21.0586 N.ar    1  UNL1       -0.2282
     18 C           4.4223   -3.1031   19.6828 C.ar    1  UNL1        0.0701
     19 C           4.8516   -4.3664   18.9975 C.3     1  UNL1        0.0528
     20 C           4.1418   -0.6753   16.7612 C.3     1  UNL1        0.0779
     21 C           5.0353   -1.3537   17.7570 C.2     1  UNL1        0.1807
     22 O           6.4572   -1.6675   17.3970 O.2     1  UNL1       -0.2908
     23 O           6.5551   -2.1848   30.4025 O.3     1  UNL1       -0.4418
     24 C           7.7817   -2.8079   31.0002 C.3     1  UNL1        0.1378
     25 C           6.9183   -3.7093   31.8323 C.3     1  UNL1        0.0437
     26 C           8.6450   -1.9066   30.1681 C.3     1  UNL1        0.0437
     27 C           9.0083   -3.4310   31.5979 C.3     1  UNL1        0.0437
     28 C           3.0812    1.5206   27.6410 C.3     1  UNL1        0.0755
     29 N           1.5826    1.5380   27.7049 N.3     1  UNL1       -0.2726
     30 C           0.8404    0.3446   28.2293 C.3     1  UNL1        0.0721
     31 C          -0.6581    0.3620   28.2931 C.3     1  UNL1        0.0174
     32 C          -1.4144    1.5728   27.8325 C.3     1  UNL1        0.0031
     33 C          -0.6722    2.7661   27.3081 C.3     1  UNL1        0.0204
     34 C           0.8263    2.7487   27.2443 C.3     1  UNL1        0.0724
     35 C          -1.4285    3.9768   26.8475 C.3     1  UNL1        0.0277
     36 C          -2.5513    3.8304   25.8636 C.ar    1  UNL1       -0.0220
     37 C          -3.9741    3.8924   26.3346 C.ar    1  UNL1       -0.0020
     38 C          -5.0968    3.7460   25.3507 C.ar    1  UNL1        0.0293
     39 C          -4.7968    3.5376   23.8959 C.ar    1  UNL1        0.1401
     40 F          -5.9196    3.3912   22.9120 F       1  UNL1       -0.2042
     41 C          -3.3740    3.4755   23.4249 C.ar    1  UNL1        0.0293
     42 C          -2.2512    3.6220   24.4088 C.ar    1  UNL1       -0.0020
@<TRIPOS>BOND
     1    20    21    1
     2    21    22    2
     3    21    14    1
     4    14    15   ar
     5    15    16   ar
     6    16     8    1
     7     8     9   am
     8     9    10    2
     9     9    11   am
    10     1    11    1
    11     1     2    1
    12     2     3    1
    13     3     4   am
    14     4     5    2
    15     4    23    1
    16    23    24    1
    17    24    25    1
    18    24    26    1
    19    24    27    1
    20     3     6    1
    21     6     7    1
    22     7    28    1
    23    28    29    1
    24    29    30    1
    25    30    31    1
    26    31    32    1
    27    32    33    1
    28    33    35    1
    29    35    36    1
    30    36    37   ar
    31    37    38   ar
    32    38    39   ar
    33    39    40    1
    34    39    41   ar
    35    41    42   ar
    36    33    34    1
    37    16    17   ar
    38    17    18   ar
    39    18    19    1
    40    18    14   ar
    41     7     1    1
    42    34    29    1
    43    42    36   ar
    44     8    12    1
    45    11    13    1
@<TRIPOS>MOLECULE
*****
 42 45 0 0 0
SMALL
GASTEIGER

@<TRIPOS>ATOM
      1 C           1.7833    2.6657   20.7665 C.3     1  UNL1        0.0959
      2 C           2.3154    1.3969   21.3642 C.3     1  UNL1        0.1163
      3 N           2.3519    0.3558   20.2849 N.am    1  UNL1       -0.2442
      4 C           2.8163   -1.0617   20.4427 C.2     1  UNL1        0.4047
      5 O           3.3016   -1.5480   21.7761 O.2     1  UNL1       -0.2262
      6 C           1.8425    0.9812   19.0203 C.3     1  UNL1        0.0998
      7 C           1.4911    2.4087   19.3179 C.3     1  UNL1        0.0556
      8 N           0.1012    5.5088   22.9660 N.am    1  UNL1       -0.2485
      9 C           0.3051    4.2110   22.2421 C.2     1  UNL1        0.3059
     10 O          -0.7653    3.1605   22.2698 O.2     1  UNL1       -0.2524
     11 N           1.5794    3.9635   21.4904 N.am    1  UNL1       -0.2885
     12 H           0.8037    6.1983   22.9478 H       1  UNL1        0.1583
     13 H           2.2820    4.6529   21.4722 H       1  UNL1        0.1510
     14 C          -2.8664    5.7471   25.4563 C.ar    1  UNL1        0.0803
     15 S          -1.4891    5.2708   25.1012 S.2     1  UNL1       -0.0488
     16 C          -1.1731    5.7562   23.7175 C.ar    1  UNL1        0.1664
     17 N          -2.3552    6.5325   23.2174 N.ar    1  UNL1       -0.2282
     18 C          -3.4017    6.5268   24.2920 C.ar    1  UNL1        0.0701
     19 C          -4.7473    7.1853   24.2158 C.3     1  UNL1        0.0528
     20 C          -4.6178    4.4062   26.8291 C.3     1  UNL1        0.0779
     21 C          -3.5827    5.4889   26.7486 C.2     1  UNL1        0.1807
     22 O          -3.2639    6.3133   27.9605 O.2     1  UNL1       -0.2908
     23 O           2.7954   -1.9930   19.2670 O.3     1  UNL1       -0.4418
     24 C           4.0445   -2.7183   18.8625 C.3     1  UNL1        0.1378
     25 C           4.6778   -1.4137   18.4789 C.3     1  UNL1        0.0437
     26 C           3.4112   -4.0229   19.2460 C.3     1  UNL1        0.0437
     27 C           5.2936   -3.4436   18.4579 C.3     1  UNL1        0.0437
     28 C           0.9436    3.4045   18.3388 C.3     1  UNL1        0.0755
     29 N          -0.2593    4.2258   18.6977 N.3     1  UNL1       -0.2726
     30 C          -0.1259    5.7075   18.8888 C.3     1  UNL1        0.0721
     31 C          -1.3288    6.5287   19.2477 C.3     1  UNL1        0.0174
     32 C          -2.6650    5.8681   19.4153 C.3     1  UNL1        0.0031
     33 C          -2.7984    4.3863   19.2241 C.3     1  UNL1        0.0204
     34 C          -1.5955    3.5652   18.8653 C.3     1  UNL1        0.0724
     35 C          -4.1346    3.7257   19.3918 C.3     1  UNL1        0.0277
     36 C          -4.8816    3.8619   20.6854 C.ar    1  UNL1       -0.0220
     37 C          -6.1788    4.6140   20.7269 C.ar    1  UNL1       -0.0020
     38 C          -6.9257    4.7502   22.0205 C.ar    1  UNL1        0.0293
     39 C          -6.3755    4.1343   23.2727 C.ar    1  UNL1        0.1401
     40 F          -7.1225    4.2705   24.5664 F       1  UNL1       -0.2042
     41 C          -5.0784    3.3822   23.2313 C.ar    1  UNL1        0.0293
     42 C          -4.3313    3.2460   21.9376 C.ar    1  UNL1       -0.0020
@<TRIPOS>BOND
     1    20    21    1
     2    21    22    2
     3    21    14    1
     4    14    15   ar
     5    15    16   ar
     6    16     8    1
     7     8     9   am
     8     9    10    2
     9     9    11   am
    10     1    11    1
    11     1     2    1
    12     2     3    1
    13     3     4   am
    14     4     5    2
    15     4    23    1
    16    23    24    1
    17    24    25    1
    18    24    26    1
    19    24    27    1
    20     3     6    1
    21     6     7    1
    22     7    28    1
    23    28    29    1
    24    29    30    1
    25    30    31    1
    26    31    32    1
    27    32    33    1
    28    33    35    1
    29    35    36    1
    30    36    37   ar
    31    37    38   ar
    32    38    39   ar
    33    39    40    1
    34    39    41   ar
    35    41    42   ar
    36    33    34    1
    37    16    17   ar
    38    17    18   ar
    39    18    19    1
    40    18    14   ar
    41     7     1    1
    42    34    29    1
    43    42    36   ar
    44     8    12    1
    45    11    13    1
