@<TRIPOS>MOLECULE
*****
 41 44 0 0 0
SMALL
GASTEIGER

@<TRIPOS>ATOM
      1 C           7.7485   -6.8158   25.4991 C.3     1  UNL1        0.0889
      2 C           7.1912   -5.4827   25.9018 C.3     1  UNL1        0.0383
      3 C           7.7508   -4.4466   24.9727 C.3     1  UNL1        0.0739
      4 N           8.6541   -5.1393   23.9958 N.3     1  UNL1       -0.2700
      5 C           8.6527   -6.6036   24.3212 C.3     1  UNL1        0.0919
      6 O           9.4874   -7.7936   27.7397 O.2     1  UNL1       -0.2733
      7 C           8.3230   -8.6193   27.2789 C.2     1  UNL1        0.2425
      8 N           7.4536   -8.1305   26.1586 N.am    1  UNL1       -0.3032
      9 H           6.6894   -8.6724   25.8562 H       1  UNL1        0.1495
     10 C           8.0281   -9.9339   27.9383 C.3     1  UNL1        0.1759
     11 N           6.6857  -10.5787   27.7584 N.am    1  UNL1       -0.2931
     12 C           6.5157  -12.0446   28.0274 C.2     1  UNL1        0.2462
     13 O           7.6881  -12.8656   28.4764 O.2     1  UNL1       -0.2701
     14 H           5.9163  -10.0399   27.4638 H       1  UNL1        0.1502
     15 C           5.1734  -12.6894   27.8475 C.ar    1  UNL1        0.0533
     16 C           4.8431  -13.3879   26.5619 C.ar    1  UNL1        0.0045
     17 C           3.5008  -14.0327   26.3820 C.ar    1  UNL1        0.0001
     18 C           2.4888  -13.9791   27.4878 C.ar    1  UNL1        0.0039
     19 C           2.8190  -13.2806   28.7735 C.ar    1  UNL1        0.0716
     20 C           4.1613  -12.6358   28.9534 C.ar    1  UNL1        0.0084
     21 C           1.8070  -13.2269   29.8794 C.3     1  UNL1        0.4186
     22 F           0.7949  -13.1733   30.9852 F       1  UNL1       -0.1659
     23 F           2.5734  -12.1118   30.5267 F       1  UNL1       -0.1659
     24 F           1.0405  -14.3420   29.2320 F       1  UNL1       -0.1659
     25 C           9.4236   -4.4830   22.8881 C.3     1  UNL1        0.0897
     26 C           8.9876   -3.1483   22.3605 C.3     1  UNL1        0.0897
     27 N           7.6729   -3.0155   21.6507 N.3     1  UNL1       -0.2686
     28 C           6.9551   -1.6984   21.6418 C.3     1  UNL1        0.0939
     29 C           5.6402   -1.5656   20.9320 C.3     1  UNL1        0.1110
     30 N           5.0434   -2.7499   20.2311 N.am    1  UNL1       -0.2732
     31 C           3.7286   -2.6171   19.5213 C.2     1  UNL1        0.2499
     32 O           3.1317   -3.8013   18.8204 O.2     1  UNL1       -0.2699
     33 C           5.7613   -4.0670   20.2400 C.3     1  UNL1        0.1110
     34 C           7.0760   -4.1997   20.9498 C.3     1  UNL1        0.0939
     35 C           3.0108   -1.3000   19.5124 C.ar    1  UNL1        0.0641
     36 C           2.0976   -0.9360   20.6453 C.ar    1  UNL1        0.0054
     37 C           1.3798    0.3811   20.6364 C.ar    1  UNL1        0.0002
     38 C           1.5752    1.3340   19.4946 C.ar    1  UNL1        0.0009
     39 C           2.4884    0.9699   18.3617 C.ar    1  UNL1        0.0115
     40 C           3.2063   -0.3471   18.3706 C.ar    1  UNL1        0.0620
     41 CL          4.1194   -0.7112   17.2377 Cl      1  UNL1       -0.0821
@<TRIPOS>BOND
     1     6     7    2
     2     7    10    1
     3    10    11    1
     4    11    12   am
     5    12    13    2
     6    12    15    1
     7    15    16   ar
     8    16    17   ar
     9    17    18   ar
    10    18    19   ar
    11    19    21    1
    12    21    22    1
    13    21    23    1
    14    21    24    1
    15    19    20   ar
    16     7     8   am
    17     1     8    1
    18     1     2    1
    19     2     3    1
    20     3     4    1
    21     4    25    1
    22    25    26    1
    23    26    27    1
    24    27    28    1
    25    28    29    1
    26    29    30    1
    27    30    31   am
    28    31    32    2
    29    31    35    1
    30    35    36   ar
    31    36    37   ar
    32    37    38   ar
    33    38    39   ar
    34    39    40   ar
    35    40    41    1
    36    30    33    1
    37    33    34    1
    38     4     5    1
    39    20    15   ar
    40     5     1    1
    41    34    27    1
    42    40    35   ar
    43    11    14    1
    44     8     9    1
@<TRIPOS>MOLECULE
*****
 41 44 0 0 0
SMALL
GASTEIGER

@<TRIPOS>ATOM
      1 C           7.3411   -6.1397   27.5121 C.3     1  UNL1        0.0889
      2 C           6.9122   -5.2744   28.6598 C.3     1  UNL1        0.0383
      3 C           7.2318   -3.8508   28.3117 C.3     1  UNL1        0.0739
      4 N           7.8582   -3.8362   26.9488 N.3     1  UNL1       -0.2700
      5 C           7.9258   -5.2509   26.4547 C.3     1  UNL1        0.0919
      6 O           9.4437   -7.8972   28.7329 O.2     1  UNL1       -0.2733
      7 C           8.2598   -8.5106   28.0457 C.2     1  UNL1        0.2425
      8 N           7.2085   -7.6319   27.4353 N.am    1  UNL1       -0.3032
      9 H           6.4315   -8.0345   26.9843 H       1  UNL1        0.1495
     10 C           8.1273  -10.0027   27.9688 C.3     1  UNL1        0.1759
     11 N           6.7795  -10.6260   27.7563 N.am    1  UNL1       -0.2931
     12 C           6.5679  -12.0786   28.0648 C.2     1  UNL1        0.2462
     13 O           7.7040  -12.9080   28.5857 O.2     1  UNL1       -0.2701
     14 H           6.0338  -10.0817   27.4144 H       1  UNL1        0.1502
     15 C           5.2201  -12.7019   27.8523 C.ar    1  UNL1        0.0533
     16 C           4.9041  -13.3805   26.5525 C.ar    1  UNL1        0.0045
     17 C           3.5564  -14.0038   26.3400 C.ar    1  UNL1        0.0001
     18 C           2.5247  -13.9484   27.4274 C.ar    1  UNL1        0.0039
     19 C           2.8406  -13.2698   28.7273 C.ar    1  UNL1        0.0716
     20 C           4.1884  -12.6466   28.9397 C.ar    1  UNL1        0.0084
     21 C           1.8089  -13.2144   29.8146 C.3     1  UNL1        0.4186
     22 F           0.7771  -13.1591   30.9020 F       1  UNL1       -0.1659
     23 F           1.0306  -14.2996   29.1315 F       1  UNL1       -0.1659
     24 F           2.5871  -12.1293   30.4978 F       1  UNL1       -0.1659
     25 C           8.3337   -2.6205   26.2099 C.3     1  UNL1        0.0897
     26 C           7.3394   -1.6680   25.6149 C.3     1  UNL1        0.0897
     27 N           6.5821   -2.0502   24.3779 N.3     1  UNL1       -0.2686
     28 C           6.1347   -0.9906   23.4150 C.3     1  UNL1        0.0939
     29 C           5.3773   -1.3728   22.1779 C.3     1  UNL1        0.1110
     30 N           5.0674   -2.8146   21.9037 N.am    1  UNL1       -0.2732
     31 C           4.3101   -3.1969   20.6666 C.2     1  UNL1        0.2499
     32 O           4.0002   -4.6387   20.3924 O.2     1  UNL1       -0.2699
     33 C           5.5148   -3.8742   22.8666 C.3     1  UNL1        0.1110
     34 C           6.2721   -3.4920   24.1036 C.3     1  UNL1        0.0939
     35 C           3.8627   -2.1373   19.7037 C.ar    1  UNL1        0.0641
     36 C           2.6701   -1.2865   20.0258 C.ar    1  UNL1        0.0054
     37 C           2.2227   -0.2269   19.0629 C.ar    1  UNL1        0.0002
     38 C           2.9680   -0.0182   17.7780 C.ar    1  UNL1        0.0009
     39 C           4.1606   -0.8690   17.4559 C.ar    1  UNL1        0.0115
     40 C           4.6080   -1.9286   18.4188 C.ar    1  UNL1        0.0620
     41 CL          5.8006   -2.7794   18.0968 Cl      1  UNL1       -0.0821
@<TRIPOS>BOND
     1     6     7    2
     2     7    10    1
     3    10    11    1
     4    11    12   am
     5    12    13    2
     6    12    15    1
     7    15    16   ar
     8    16    17   ar
     9    17    18   ar
    10    18    19   ar
    11    19    21    1
    12    21    22    1
    13    21    23    1
    14    21    24    1
    15    19    20   ar
    16     7     8   am
    17     1     8    1
    18     1     2    1
    19     2     3    1
    20     3     4    1
    21     4    25    1
    22    25    26    1
    23    26    27    1
    24    27    28    1
    25    28    29    1
    26    29    30    1
    27    30    31   am
    28    31    32    2
    29    31    35    1
    30    35    36   ar
    31    36    37   ar
    32    37    38   ar
    33    38    39   ar
    34    39    40   ar
    35    40    41    1
    36    30    33    1
    37    33    34    1
    38     4     5    1
    39    20    15   ar
    40     5     1    1
    41    34    27    1
    42    40    35   ar
    43    11    14    1
    44     8     9    1
@<TRIPOS>MOLECULE
*****
 41 44 0 0 0
SMALL
GASTEIGER

@<TRIPOS>ATOM
      1 C           7.3604   -6.6445   26.1014 C.3     1  UNL1        0.0889
      2 C           7.9424   -6.1842   24.7978 C.3     1  UNL1        0.0383
      3 C           7.9579   -4.6843   24.8009 C.3     1  UNL1        0.0739
      4 N           7.3854   -4.2175   26.1065 N.3     1  UNL1       -0.2700
      5 C           7.0162   -5.4290   26.9102 C.3     1  UNL1        0.0919
      6 O           9.2531   -7.9159   28.0511 O.2     1  UNL1       -0.2733
      7 C           8.1044   -8.7057   27.4972 C.2     1  UNL1        0.2425
      8 N           7.1580   -8.0700   26.5224 N.am    1  UNL1       -0.3032
      9 H           6.4041   -8.5883   26.1588 H       1  UNL1        0.1495
     10 C           7.9020  -10.1311   27.9181 C.3     1  UNL1        0.1759
     11 N           6.5591  -10.7786   27.7525 N.am    1  UNL1       -0.2931
     12 C           6.3699  -12.2190   28.1256 C.2     1  UNL1        0.2462
     13 O           7.5236  -13.0120   28.6643 O.2     1  UNL1       -0.2701
     14 H           5.8019  -10.2581   27.3989 H       1  UNL1        0.1502
     15 C           5.0270  -12.8666   27.9600 C.ar    1  UNL1        0.0533
     16 C           4.7176  -13.6439   26.7150 C.ar    1  UNL1        0.0045
     17 C           3.3747  -14.2914   26.5495 C.ar    1  UNL1        0.0001
     18 C           2.3413  -14.1615   27.6288 C.ar    1  UNL1        0.0039
     19 C           2.6507  -13.3841   28.8738 C.ar    1  UNL1        0.0716
     20 C           3.9935  -12.7367   29.0393 C.ar    1  UNL1        0.0084
     21 C           1.6172  -13.2543   29.9532 C.3     1  UNL1        0.4186
     22 F           0.5837  -13.1244   31.0326 F       1  UNL1       -0.1659
     23 F           0.7675  -14.2799   29.2631 F       1  UNL1       -0.1659
     24 F           2.4668  -12.2286   30.6433 F       1  UNL1       -0.1659
     25 C           7.2126   -2.7900   26.5334 C.3     1  UNL1        0.0897
     26 C           7.1720   -2.4431   27.9921 C.3     1  UNL1        0.0897
     27 N           5.9648   -1.7644   28.5682 N.3     1  UNL1       -0.2686
     28 C           4.8524   -1.3194   27.6656 C.3     1  UNL1        0.0939
     29 C           3.6451   -0.6406   28.2417 C.3     1  UNL1        0.1110
     30 N           3.5503   -0.4069   29.7204 N.am    1  UNL1       -0.2732
     31 C           2.3430    0.2719   30.2965 C.2     1  UNL1        0.2499
     32 O           2.2481    0.5056   31.7751 O.2     1  UNL1       -0.2699
     33 C           4.6627   -0.8519   30.6230 C.3     1  UNL1        0.1110
     34 C           5.8699   -1.5306   30.0469 C.3     1  UNL1        0.0939
     35 C           1.2306    0.7169   29.3939 C.ar    1  UNL1        0.0641
     36 C           0.1009   -0.2181   29.0790 C.ar    1  UNL1        0.0054
     37 C          -1.0115    0.2268   28.1764 C.ar    1  UNL1        0.0002
     38 C          -0.9940    1.6069   27.5888 C.ar    1  UNL1        0.0009
     39 C           0.1358    2.5419   27.9038 C.ar    1  UNL1        0.0115
     40 C           1.2482    2.0969   28.8064 C.ar    1  UNL1        0.0620
     41 CL          2.3780    3.0319   29.1214 Cl      1  UNL1       -0.0821
@<TRIPOS>BOND
     1     6     7    2
     2     7    10    1
     3    10    11    1
     4    11    12   am
     5    12    13    2
     6    12    15    1
     7    15    16   ar
     8    16    17   ar
     9    17    18   ar
    10    18    19   ar
    11    19    21    1
    12    21    22    1
    13    21    23    1
    14    21    24    1
    15    19    20   ar
    16     7     8   am
    17     1     8    1
    18     1     2    1
    19     2     3    1
    20     3     4    1
    21     4    25    1
    22    25    26    1
    23    26    27    1
    24    27    28    1
    25    28    29    1
    26    29    30    1
    27    30    31   am
    28    31    32    2
    29    31    35    1
    30    35    36   ar
    31    36    37   ar
    32    37    38   ar
    33    38    39   ar
    34    39    40   ar
    35    40    41    1
    36    30    33    1
    37    33    34    1
    38     4     5    1
    39    20    15   ar
    40     5     1    1
    41    34    27    1
    42    40    35   ar
    43    11    14    1
    44     8     9    1
@<TRIPOS>MOLECULE
*****
 41 44 0 0 0
SMALL
GASTEIGER

@<TRIPOS>ATOM
      1 C           7.2628   -5.7901   28.3887 C.3     1  UNL1        0.0889
      2 C           7.1014   -5.3601   29.8166 C.3     1  UNL1        0.0383
      3 C           7.2107   -3.8649   29.8656 C.3     1  UNL1        0.0739
      4 N           7.4396   -3.3708   28.4679 N.3     1  UNL1       -0.2700
      5 C           7.4718   -4.5607   27.5552 C.3     1  UNL1        0.0919
      6 O           9.4146   -7.7273   29.1744 O.2     1  UNL1       -0.2733
      7 C           8.2982   -8.1703   28.2758 C.2     1  UNL1        0.2425
      8 N           7.2223   -7.2018   27.8830 N.am    1  UNL1       -0.3032
      9 H           6.4896   -7.4926   27.2933 H       1  UNL1        0.1495
     10 C           8.2577   -9.5819   27.7702 C.3     1  UNL1        0.1759
     11 N           6.9425  -10.2876   27.6208 N.am    1  UNL1       -0.2931
     12 C           6.8292  -11.7433   27.9643 C.2     1  UNL1        0.2462
     13 O           8.0311  -12.4934   28.4571 O.2     1  UNL1       -0.2701
     14 H           6.1536   -9.7954   27.2973 H       1  UNL1        0.1502
     15 C           5.5140  -12.4491   27.8149 C.ar    1  UNL1        0.0533
     16 C           5.2240  -13.2401   26.5739 C.ar    1  UNL1        0.0045
     17 C           3.9088  -13.9458   26.4246 C.ar    1  UNL1        0.0001
     18 C           2.8837  -13.8605   27.5163 C.ar    1  UNL1        0.0039
     19 C           3.1737  -13.0695   28.7574 C.ar    1  UNL1        0.0716
     20 C           4.4889  -12.3638   28.9067 C.ar    1  UNL1        0.0084
     21 C           2.1486  -12.9842   29.8491 C.3     1  UNL1        0.4186
     22 F           1.1235  -12.8988   30.9408 F       1  UNL1       -0.1659
     23 F           1.3602  -14.0795   29.1943 F       1  UNL1       -0.1659
     24 F           2.9370  -11.8889   30.5038 F       1  UNL1       -0.1659
     25 C           7.6069   -1.9384   28.0555 C.3     1  UNL1        0.0897
     26 C           7.3187   -0.8379   29.0332 C.3     1  UNL1        0.0897
     27 N           5.9020   -0.4233   29.2997 N.3     1  UNL1       -0.2686
     28 C           5.6203    0.8342   30.0673 C.3     1  UNL1        0.0939
     29 C           4.2035    1.2488   30.3338 C.3     1  UNL1        0.1110
     30 N           3.0686    0.4058   29.8326 N.am    1  UNL1       -0.2732
     31 C           1.6518    0.8204   30.0991 C.2     1  UNL1        0.2499
     32 O           0.5168   -0.0226   29.5980 O.2     1  UNL1       -0.2699
     33 C           3.3503   -0.8517   29.0650 C.3     1  UNL1        0.1110
     34 C           4.7670   -1.2663   28.7985 C.3     1  UNL1        0.0939
     35 C           1.3701    2.0779   30.8668 C.ar    1  UNL1        0.0641
     36 C           1.5273    2.0972   32.3583 C.ar    1  UNL1        0.0054
     37 C           1.2456    3.3548   33.1259 C.ar    1  UNL1        0.0002
     38 C           0.8067    4.5930   32.4019 C.ar    1  UNL1        0.0009
     39 C           0.6496    4.5736   30.9103 C.ar    1  UNL1        0.0115
     40 C           0.9313    3.3161   30.1427 C.ar    1  UNL1        0.0620
     41 CL          0.7741    3.2968   28.6511 Cl      1  UNL1       -0.0821
@<TRIPOS>BOND
     1     6     7    2
     2     7    10    1
     3    10    11    1
     4    11    12   am
     5    12    13    2
     6    12    15    1
     7    15    16   ar
     8    16    17   ar
     9    17    18   ar
    10    18    19   ar
    11    19    21    1
    12    21    22    1
    13    21    23    1
    14    21    24    1
    15    19    20   ar
    16     7     8   am
    17     1     8    1
    18     1     2    1
    19     2     3    1
    20     3     4    1
    21     4    25    1
    22    25    26    1
    23    26    27    1
    24    27    28    1
    25    28    29    1
    26    29    30    1
    27    30    31   am
    28    31    32    2
    29    31    35    1
    30    35    36   ar
    31    36    37   ar
    32    37    38   ar
    33    38    39   ar
    34    39    40   ar
    35    40    41    1
    36    30    33    1
    37    33    34    1
    38     4     5    1
    39    20    15   ar
    40     5     1    1
    41    34    27    1
    42    40    35   ar
    43    11    14    1
    44     8     9    1
@<TRIPOS>MOLECULE
*****
 41 44 0 0 0
SMALL
GASTEIGER

@<TRIPOS>ATOM
      1 C          -0.5609    2.3454   24.7580 C.3     1  UNL1        0.0889
      2 C          -1.3484    3.2777   25.6301 C.3     1  UNL1        0.0383
      3 C          -1.3249    2.7353   27.0284 C.3     1  UNL1        0.0739
      4 N          -0.5228    1.4677   27.0205 N.3     1  UNL1       -0.2700
      5 C          -0.0506    1.2268   25.6173 C.3     1  UNL1        0.0919
      6 O           1.6524    4.1162   23.7752 O.2     1  UNL1       -0.2733
      7 C           0.7816    3.3892   22.7938 C.2     1  UNL1        0.2425
      8 N          -0.3250    2.5038   23.2851 N.am    1  UNL1       -0.3032
      9 H          -0.8965    2.0267   22.6409 H       1  UNL1        0.1495
     10 C           1.0174    3.5476   21.3209 C.3     1  UNL1        0.1759
     11 N           1.8781    2.5610   20.5888 N.am    1  UNL1       -0.2931
     12 C           1.3417    1.2006   20.2546 C.2     1  UNL1        0.2462
     13 O          -0.0554    0.8268   20.6526 O.2     1  UNL1       -0.2701
     14 H           2.7951    2.8063   20.3276 H       1  UNL1        0.1502
     15 C           2.2023    0.2140   19.5225 C.ar    1  UNL1        0.0533
     16 C           2.7697    0.5655   18.1792 C.ar    1  UNL1        0.0045
     17 C           3.6303   -0.4210   17.4472 C.ar    1  UNL1        0.0001
     18 C           3.9235   -1.7591   18.0584 C.ar    1  UNL1        0.0039
     19 C           3.3561   -2.1106   19.4016 C.ar    1  UNL1        0.0716
     20 C           2.4955   -1.1240   20.1337 C.ar    1  UNL1        0.0084
     21 C           3.6493   -3.4487   20.0129 C.3     1  UNL1        0.4186
     22 F           3.9425   -4.7868   20.6241 F       1  UNL1       -0.1659
     23 F           3.2841   -4.1186   18.7214 F       1  UNL1       -0.1659
     24 F           4.0146   -2.7788   21.3043 F       1  UNL1       -0.1659
     25 C          -0.2421    0.5945   28.2074 C.3     1  UNL1        0.0897
     26 C          -0.0731    1.2073   29.5661 C.3     1  UNL1        0.0897
     27 N           1.1398    0.8862   30.3880 N.3     1  UNL1       -0.2686
     28 C           2.0698   -0.2087   29.9565 C.3     1  UNL1        0.0939
     29 C           3.2828   -0.5299   30.7784 C.3     1  UNL1        0.1110
     30 N           3.5657    0.2439   32.0318 N.am    1  UNL1       -0.2732
     31 C           4.7788   -0.0772   32.8538 C.2     1  UNL1        0.2499
     32 O           5.0618    0.6966   34.1073 O.2     1  UNL1       -0.2699
     33 C           2.6358    1.3389   32.4634 C.3     1  UNL1        0.1110
     34 C           1.4228    1.6600   31.6415 C.3     1  UNL1        0.0939
     35 C           5.7088   -1.1721   32.4222 C.ar    1  UNL1        0.0641
     36 C           6.9367   -0.8429   31.6264 C.ar    1  UNL1        0.0054
     37 C           7.8667   -1.9378   31.1948 C.ar    1  UNL1        0.0002
     38 C           7.5687   -3.3620   31.5592 C.ar    1  UNL1        0.0009
     39 C           6.3406   -3.6913   32.3551 C.ar    1  UNL1        0.0115
     40 C           5.4106   -2.5963   32.7867 C.ar    1  UNL1        0.0620
     41 CL          4.1826   -2.9256   33.5826 Cl      1  UNL1       -0.0821
@<TRIPOS>BOND
     1     6     7    2
     2     7    10    1
     3    10    11    1
     4    11    12   am
     5    12    13    2
     6    12    15    1
     7    15    16   ar
     8    16    17   ar
     9    17    18   ar
    10    18    19   ar
    11    19    21    1
    12    21    22    1
    13    21    23    1
    14    21    24    1
    15    19    20   ar
    16     7     8   am
    17     1     8    1
    18     1     2    1
    19     2     3    1
    20     3     4    1
    21     4    25    1
    22    25    26    1
    23    26    27    1
    24    27    28    1
    25    28    29    1
    26    29    30    1
    27    30    31   am
    28    31    32    2
    29    31    35    1
    30    35    36   ar
    31    36    37   ar
    32    37    38   ar
    33    38    39   ar
    34    39    40   ar
    35    40    41    1
    36    30    33    1
    37    33    34    1
    38     4     5    1
    39    20    15   ar
    40     5     1    1
    41    34    27    1
    42    40    35   ar
    43    11    14    1
    44     8     9    1
@<TRIPOS>MOLECULE
*****
 41 44 0 0 0
SMALL
GASTEIGER

@<TRIPOS>ATOM
      1 C           7.0396   -4.6388   26.0790 C.3     1  UNL1        0.0889
      2 C           6.5229   -5.8217   26.8431 C.3     1  UNL1        0.0383
      3 C           6.2664   -5.3853   28.2551 C.3     1  UNL1        0.0739
      4 N           6.6246   -3.9327   28.3638 N.3     1  UNL1       -0.2700
      5 C           7.1024   -3.4714   27.0188 C.3     1  UNL1        0.0919
      6 O           5.2871   -3.2594   24.0724 O.2     1  UNL1       -0.2733
      7 C           6.5494   -3.9359   23.6263 C.2     1  UNL1        0.2425
      8 N           7.4256   -4.6256   24.6296 N.am    1  UNL1       -0.3032
      9 H           8.2541   -5.0696   24.3367 H       1  UNL1        0.1495
     10 C           6.9354   -3.9227   22.1769 C.3     1  UNL1        0.1759
     11 N           6.3155   -2.9244   21.2447 N.am    1  UNL1       -0.2931
     12 C           5.0285   -3.2492   20.5460 C.2     1  UNL1        0.2462
     13 O           4.3614   -4.5722   20.7796 O.2     1  UNL1       -0.2701
     14 H           6.7533   -2.0560   21.0913 H       1  UNL1        0.1502
     15 C           4.4085   -2.2509   19.6137 C.ar    1  UNL1        0.0533
     16 C           5.0743   -1.9291   18.3087 C.ar    1  UNL1        0.0045
     17 C           4.4543   -0.9309   17.3765 C.ar    1  UNL1        0.0001
     18 C           3.1685   -0.2543   17.7494 C.ar    1  UNL1        0.0039
     19 C           2.5027   -0.5760   19.0544 C.ar    1  UNL1        0.0716
     20 C           3.1227   -1.5743   19.9866 C.ar    1  UNL1        0.0084
     21 C           1.2169    0.1005   19.4272 C.3     1  UNL1        0.4186
     22 F          -0.0689    0.7771   19.8001 F       1  UNL1       -0.1659
     23 F           1.4814    1.1663   18.4054 F       1  UNL1       -0.1659
     24 F           0.9524   -0.9652   20.4491 F       1  UNL1       -0.1659
     25 C           6.5229   -3.0896   29.6002 C.3     1  UNL1        0.0897
     26 C           6.4852   -1.5944   29.4873 C.3     1  UNL1        0.0897
     27 N           5.2013   -0.8564   29.7261 N.3     1  UNL1       -0.2686
     28 C           4.4583   -0.2511   28.5722 C.3     1  UNL1        0.0939
     29 C           3.1744    0.4869   28.8110 C.3     1  UNL1        0.1110
     30 N           2.6336    0.6197   30.2038 N.am    1  UNL1       -0.2732
     31 C           1.3497    1.3577   30.4426 C.2     1  UNL1        0.2499
     32 O           0.8089    1.4905   31.8354 O.2     1  UNL1       -0.2699
     33 C           3.3766    0.0144   31.3578 C.3     1  UNL1        0.1110
     34 C           4.6605   -0.7236   31.1189 C.3     1  UNL1        0.0939
     35 C           0.6067    1.9629   29.2886 C.ar    1  UNL1        0.0641
     36 C           0.8576    3.3899   28.9007 C.ar    1  UNL1        0.0054
     37 C           0.1146    3.9952   27.7467 C.ar    1  UNL1        0.0002
     38 C          -0.8793    3.1733   26.9807 C.ar    1  UNL1        0.0009
     39 C          -1.1302    1.7462   27.3687 C.ar    1  UNL1        0.0115
     40 C          -0.3872    1.1410   28.5227 C.ar    1  UNL1        0.0620
     41 CL         -0.6381   -0.2860   28.9107 Cl      1  UNL1       -0.0821
@<TRIPOS>BOND
     1     6     7    2
     2     7    10    1
     3    10    11    1
     4    11    12   am
     5    12    13    2
     6    12    15    1
     7    15    16   ar
     8    16    17   ar
     9    17    18   ar
    10    18    19   ar
    11    19    21    1
    12    21    22    1
    13    21    23    1
    14    21    24    1
    15    19    20   ar
    16     7     8   am
    17     1     8    1
    18     1     2    1
    19     2     3    1
    20     3     4    1
    21     4    25    1
    22    25    26    1
    23    26    27    1
    24    27    28    1
    25    28    29    1
    26    29    30    1
    27    30    31   am
    28    31    32    2
    29    31    35    1
    30    35    36   ar
    31    36    37   ar
    32    37    38   ar
    33    38    39   ar
    34    39    40   ar
    35    40    41    1
    36    30    33    1
    37    33    34    1
    38     4     5    1
    39    20    15   ar
    40     5     1    1
    41    34    27    1
    42    40    35   ar
    43    11    14    1
    44     8     9    1
@<TRIPOS>MOLECULE
*****
 41 44 0 0 0
SMALL
GASTEIGER

@<TRIPOS>ATOM
      1 C           8.6226   -6.1185   24.3566 C.3     1  UNL1        0.0889
      2 C           7.9898   -7.4413   24.6726 C.3     1  UNL1        0.0383
      3 C           7.9295   -7.5816   26.1647 C.3     1  UNL1        0.0739
      4 N           8.5251   -6.3456   26.7711 N.3     1  UNL1       -0.2700
      5 C           8.9534   -5.4414   25.6535 C.3     1  UNL1        0.0919
      6 O           6.5119   -4.4996   22.9694 O.2     1  UNL1       -0.2733
      7 C           7.8241   -4.7599   22.2910 C.2     1  UNL1        0.2425
      8 N           8.8795   -5.5693   22.9845 N.am    1  UNL1       -0.3032
      9 H           9.7407   -5.7401   22.5393 H       1  UNL1        0.1495
     10 C           8.0811   -4.2107   20.9190 C.3     1  UNL1        0.1759
     11 N           7.1985   -3.1312   20.3658 N.am    1  UNL1       -0.2931
     12 C           5.8722   -3.4837   19.7604 C.2     1  UNL1        0.2462
     13 O           5.4283   -4.9155   19.7082 O.2     1  UNL1       -0.2701
     14 H           7.4899   -2.1914   20.4001 H       1  UNL1        0.1502
     15 C           4.9896   -2.4042   19.2072 C.ar    1  UNL1        0.0533
     16 C           5.3854   -1.6805   17.9544 C.ar    1  UNL1        0.0045
     17 C           4.5029   -0.6011   17.4013 C.ar    1  UNL1        0.0001
     18 C           3.2246   -0.2454   18.1009 C.ar    1  UNL1        0.0039
     19 C           2.8288   -0.9692   19.3537 C.ar    1  UNL1        0.0716
     20 C           3.7114   -2.0486   19.9069 C.ar    1  UNL1        0.0084
     21 C           1.5506   -0.6135   20.0534 C.3     1  UNL1        0.4186
     22 F           0.2723   -0.2579   20.7530 F       1  UNL1       -0.1659
     23 F           1.0206   -0.0182   18.7826 F       1  UNL1       -0.1659
     24 F           2.0805   -1.2088   21.3241 F       1  UNL1       -0.1659
     25 C           8.6673   -6.0634   28.2374 C.3     1  UNL1        0.0897
     26 C           7.4503   -6.0117   29.1127 C.3     1  UNL1        0.0897
     27 N           7.0321   -4.7149   29.7399 N.3     1  UNL1       -0.2686
     28 C           7.0838   -4.5515   31.2300 C.3     1  UNL1        0.0939
     29 C           6.6655   -3.2547   31.8573 C.3     1  UNL1        0.1110
     30 N           6.1956   -2.1214   30.9943 N.am    1  UNL1       -0.2732
     31 C           5.7774   -0.8245   31.6215 C.2     1  UNL1        0.2499
     32 O           5.3074    0.3088   30.7585 O.2     1  UNL1       -0.2699
     33 C           6.1439   -2.2848   29.5041 C.3     1  UNL1        0.1110
     34 C           6.5621   -3.5816   28.8769 C.3     1  UNL1        0.0939
     35 C           5.8291   -0.6611   33.1117 C.ar    1  UNL1        0.0641
     36 C           4.6084   -0.9353   33.9390 C.ar    1  UNL1        0.0054
     37 C           4.6601   -0.7718   35.4292 C.ar    1  UNL1        0.0002
     38 C           5.9326   -0.3342   36.0920 C.ar    1  UNL1        0.0009
     39 C           7.1533   -0.0600   35.2645 C.ar    1  UNL1        0.0115
     40 C           7.1016   -0.2234   33.7744 C.ar    1  UNL1        0.0620
     41 CL          8.3223    0.0508   32.9470 Cl      1  UNL1       -0.0821
@<TRIPOS>BOND
     1     6     7    2
     2     7    10    1
     3    10    11    1
     4    11    12   am
     5    12    13    2
     6    12    15    1
     7    15    16   ar
     8    16    17   ar
     9    17    18   ar
    10    18    19   ar
    11    19    21    1
    12    21    22    1
    13    21    23    1
    14    21    24    1
    15    19    20   ar
    16     7     8   am
    17     1     8    1
    18     1     2    1
    19     2     3    1
    20     3     4    1
    21     4    25    1
    22    25    26    1
    23    26    27    1
    24    27    28    1
    25    28    29    1
    26    29    30    1
    27    30    31   am
    28    31    32    2
    29    31    35    1
    30    35    36   ar
    31    36    37   ar
    32    37    38   ar
    33    38    39   ar
    34    39    40   ar
    35    40    41    1
    36    30    33    1
    37    33    34    1
    38     4     5    1
    39    20    15   ar
    40     5     1    1
    41    34    27    1
    42    40    35   ar
    43    11    14    1
    44     8     9    1
@<TRIPOS>MOLECULE
*****
 41 44 0 0 0
SMALL
GASTEIGER

@<TRIPOS>ATOM
      1 C           8.0511   -4.9616   27.9800 C.3     1  UNL1        0.0889
      2 C           7.6574   -6.1022   28.8711 C.3     1  UNL1        0.0383
      3 C           6.9488   -5.5344   30.0650 C.3     1  UNL1        0.0739
      4 N           6.9046   -4.0428   29.9118 N.3     1  UNL1       -0.2700
      5 C           7.5859   -3.6889   28.6232 C.3     1  UNL1        0.0919
      6 O           6.5360   -4.8139   25.3950 O.2     1  UNL1       -0.2733
      7 C           8.0243   -5.0001   25.3823 C.2     1  UNL1        0.2425
      8 N           8.7819   -5.0740   26.6748 N.am    1  UNL1       -0.3032
      9 H           9.7588   -5.1962   26.6665 H       1  UNL1        0.1495
     10 C           8.7551   -5.1125   24.0772 C.3     1  UNL1        0.1759
     11 N           8.0319   -4.8561   22.7882 N.am    1  UNL1       -0.2931
     12 C           8.0749   -3.4937   22.1623 C.2     1  UNL1        0.2462
     13 O           8.8409   -2.3875   22.8253 O.2     1  UNL1       -0.2701
     14 H           7.5292   -5.5821   22.3531 H       1  UNL1        0.1502
     15 C           7.3518   -3.2374   20.8733 C.ar    1  UNL1        0.0533
     16 C           7.9869   -2.3871   19.8133 C.ar    1  UNL1        0.0045
     17 C           7.2637   -2.1308   18.5244 C.ar    1  UNL1        0.0001
     18 C           5.9055   -2.7248   18.2955 C.ar    1  UNL1        0.0039
     19 C           5.2704   -3.5750   19.3555 C.ar    1  UNL1        0.0716
     20 C           5.9935   -3.8313   20.6444 C.ar    1  UNL1        0.0084
     21 C           3.9121   -4.1690   19.1266 C.3     1  UNL1        0.4186
     22 F           2.5539   -4.7629   18.8977 F       1  UNL1       -0.1659
     23 F           3.2760   -2.9223   19.6662 F       1  UNL1       -0.1659
     24 F           4.5482   -5.4156   18.5869 F       1  UNL1       -0.1659
     25 C           6.2874   -3.0752   30.8777 C.3     1  UNL1        0.0897
     26 C           6.2848   -1.6072   30.5700 C.3     1  UNL1        0.0897
     27 N           4.9912   -0.8481   30.5463 N.3     1  UNL1       -0.2686
     28 C           4.4256   -0.3706   29.2417 C.3     1  UNL1        0.0939
     29 C           3.1320    0.3885   29.2181 C.3     1  UNL1        0.1110
     30 N           2.4041    0.6699   30.4991 N.am    1  UNL1       -0.2732
     31 C           1.1105    1.4289   30.4754 C.2     1  UNL1        0.2499
     32 O           0.3825    1.7104   31.7564 O.2     1  UNL1       -0.2699
     33 C           2.9697    0.1923   31.8037 C.3     1  UNL1        0.1110
     34 C           4.2633   -0.5667   31.8273 C.3     1  UNL1        0.0939
     35 C           0.5449    1.9065   29.1708 C.ar    1  UNL1        0.0641
     36 C           0.9174    3.2599   28.6424 C.ar    1  UNL1        0.0054
     37 C           0.3518    3.7375   27.3378 C.ar    1  UNL1        0.0002
     38 C          -0.5864    2.8615   26.5616 C.ar    1  UNL1        0.0009
     39 C          -0.9589    1.5079   27.0900 C.ar    1  UNL1        0.0115
     40 C          -0.3933    1.0304   28.3947 C.ar    1  UNL1        0.0620
     41 CL         -0.7658   -0.3231   28.9230 Cl      1  UNL1       -0.0821
@<TRIPOS>BOND
     1     6     7    2
     2     7    10    1
     3    10    11    1
     4    11    12   am
     5    12    13    2
     6    12    15    1
     7    15    16   ar
     8    16    17   ar
     9    17    18   ar
    10    18    19   ar
    11    19    21    1
    12    21    22    1
    13    21    23    1
    14    21    24    1
    15    19    20   ar
    16     7     8   am
    17     1     8    1
    18     1     2    1
    19     2     3    1
    20     3     4    1
    21     4    25    1
    22    25    26    1
    23    26    27    1
    24    27    28    1
    25    28    29    1
    26    29    30    1
    27    30    31   am
    28    31    32    2
    29    31    35    1
    30    35    36   ar
    31    36    37   ar
    32    37    38   ar
    33    38    39   ar
    34    39    40   ar
    35    40    41    1
    36    30    33    1
    37    33    34    1
    38     4     5    1
    39    20    15   ar
    40     5     1    1
    41    34    27    1
    42    40    35   ar
    43    11    14    1
    44     8     9    1
@<TRIPOS>MOLECULE
*****
 41 44 0 0 0
SMALL
GASTEIGER

@<TRIPOS>ATOM
      1 C           6.5878   -4.5676   27.8111 C.3     1  UNL1        0.0889
      2 C           6.9159   -5.7422   28.6845 C.3     1  UNL1        0.0383
      3 C           6.9020   -5.2775   30.1106 C.3     1  UNL1        0.0739
      4 N           6.5652   -3.8158   30.1187 N.3     1  UNL1       -0.2700
      5 C           6.3710   -3.3771   28.6975 C.3     1  UNL1        0.0919
      6 O           9.0372   -5.0837   26.1576 O.2     1  UNL1       -0.2733
      7 C           7.7177   -4.8392   25.4874 C.2     1  UNL1        0.2425
      8 N           6.4930   -4.5812   26.3141 N.am    1  UNL1       -0.3032
      9 H           5.6270   -4.4208   25.8742 H       1  UNL1        0.1495
     10 C           7.6229   -4.8528   23.9905 C.3     1  UNL1        0.1759
     11 N           6.4774   -4.1683   23.3053 N.am    1  UNL1       -0.2931
     12 C           6.4345   -4.0958   21.8077 C.2     1  UNL1        0.2462
     13 O           7.5369   -4.7078   20.9952 O.2     1  UNL1       -0.2701
     14 H           5.7539   -3.7666   23.8385 H       1  UNL1        0.1502
     15 C           5.2890   -3.4114   21.1225 C.ar    1  UNL1        0.0533
     16 C           4.9507   -3.7556   19.7022 C.ar    1  UNL1        0.0045
     17 C           3.8053   -3.0711   19.0171 C.ar    1  UNL1        0.0001
     18 C           2.9982   -2.0424   19.7522 C.ar    1  UNL1        0.0039
     19 C           3.3364   -1.6982   21.1724 C.ar    1  UNL1        0.0716
     20 C           4.4818   -2.3827   21.8575 C.ar    1  UNL1        0.0084
     21 C           2.5292   -0.6696   21.9074 C.3     1  UNL1        0.4186
     22 F           1.7221    0.3591   22.6425 F       1  UNL1       -0.1659
     23 F           3.3853   -0.8667   23.1233 F       1  UNL1       -0.1659
     24 F           1.6732   -0.4725   20.6916 F       1  UNL1       -0.1659
     25 C           6.4439   -2.9457   31.3345 C.3     1  UNL1        0.0897
     26 C           6.4249   -1.4528   31.1894 C.3     1  UNL1        0.0897
     27 N           5.1212   -0.7336   31.0076 N.3     1  UNL1       -0.2686
     28 C           4.6649   -0.3442   29.6327 C.3     1  UNL1        0.0939
     29 C           3.3612    0.3751   29.4508 C.3     1  UNL1        0.1110
     30 N           2.5139    0.7050   30.6439 N.am    1  UNL1       -0.2732
     31 C           1.2102    1.4243   30.4620 C.2     1  UNL1        0.2499
     32 O           0.3628    1.7542   31.6550 O.2     1  UNL1       -0.2699
     33 C           2.9702    0.3156   32.0187 C.3     1  UNL1        0.1110
     34 C           4.2739   -0.4037   32.2005 C.3     1  UNL1        0.0939
     35 C           0.7539    1.8137   29.0871 C.ar    1  UNL1        0.0641
     36 C           1.1633    3.1350   28.5072 C.ar    1  UNL1        0.0054
     37 C           0.7070    3.5244   27.1324 C.ar    1  UNL1        0.0002
     38 C          -0.1588    2.5923   26.3375 C.ar    1  UNL1        0.0009
     39 C          -0.5682    1.2710   26.9175 C.ar    1  UNL1        0.0115
     40 C          -0.1119    0.8816   28.2923 C.ar    1  UNL1        0.0620
     41 CL         -0.5213   -0.4397   28.8722 Cl      1  UNL1       -0.0821
@<TRIPOS>BOND
     1     6     7    2
     2     7    10    1
     3    10    11    1
     4    11    12   am
     5    12    13    2
     6    12    15    1
     7    15    16   ar
     8    16    17   ar
     9    17    18   ar
    10    18    19   ar
    11    19    21    1
    12    21    22    1
    13    21    23    1
    14    21    24    1
    15    19    20   ar
    16     7     8   am
    17     1     8    1
    18     1     2    1
    19     2     3    1
    20     3     4    1
    21     4    25    1
    22    25    26    1
    23    26    27    1
    24    27    28    1
    25    28    29    1
    26    29    30    1
    27    30    31   am
    28    31    32    2
    29    31    35    1
    30    35    36   ar
    31    36    37   ar
    32    37    38   ar
    33    38    39   ar
    34    39    40   ar
    35    40    41    1
    36    30    33    1
    37    33    34    1
    38     4     5    1
    39    20    15   ar
    40     5     1    1
    41    34    27    1
    42    40    35   ar
    43    11    14    1
    44     8     9    1
