@<TRIPOS>MOLECULE
*****
 32 36 0 0 0
SMALL
GASTEIGER

@<TRIPOS>ATOM
      1 O          -4.6215  -20.8190   20.0118 O.2     1  UNL1       -0.2728
      2 C          -5.7166  -19.9088   20.4836 C.2     1  UNL1        0.2488
      3 N          -7.0977  -20.0386   19.9128 N.am    1  UNL1       -0.2779
      4 C          -7.3837  -21.0786   18.8704 C.3     1  UNL1        0.0935
      5 C          -8.7648  -21.2085   18.2996 C.3     1  UNL1        0.0219
      6 C          -9.8598  -20.2984   18.7713 C.3     1  UNL1        0.0078
      7 C          -9.5738  -19.2584   19.8136 C.3     1  UNL1        0.0419
      8 C          -8.1927  -19.1285   20.3844 C.3     1  UNL1        0.0953
      9 C         -10.6688  -18.3482   20.2853 C.ar    1  UNL1       -0.0209
     10 C         -11.6467  -18.8239   21.3185 C.ar    1  UNL1       -0.0042
     11 C         -12.7417  -17.9136   21.7901 C.ar    1  UNL1       -0.0003
     12 C         -12.8588  -16.5276   21.2286 C.ar    1  UNL1       -0.0000
     13 C         -11.8810  -16.0519   20.1954 C.ar    1  UNL1       -0.0003
     14 C         -10.7860  -16.9622   19.7238 C.ar    1  UNL1       -0.0042
     15 C          -5.4305  -18.8688   21.5259 C.3     1  UNL1        0.1946
     16 N          -4.0202  -18.4207   21.7711 N.ar    1  UNL1       -0.2808
     17 C          -3.3884  -18.1913   23.1121 C.ar    1  UNL1        0.2927
     18 O          -4.0561  -18.3698   24.4434 O.2     1  UNL1       -0.2594
     19 S          -1.9718  -17.7521   22.8880 S.2     1  UNL1       -0.0260
     20 C          -1.7280  -17.7100   21.4085 C.ar    1  UNL1        0.0498
     21 C          -0.5168  -17.3488   20.6008 C.ar    1  UNL1        0.0089
     22 C          -0.5716  -17.4008   19.1027 C.ar    1  UNL1        0.0120
     23 C          -1.8376  -17.8140   18.4124 C.ar    1  UNL1        0.0591
     24 CL         -1.8924  -17.8660   16.9142 Cl      1  UNL1       -0.0822
     25 C          -3.0488  -18.1752   19.2201 C.ar    1  UNL1        0.0292
     26 C          -2.9940  -18.1232   20.7182 C.ar    1  UNL1        0.0704
     27 C          -7.9067  -18.0885   21.4268 C.3     1  UNL1        0.0924
     28 N          -8.6509  -18.1073   22.7290 N.3     1  UNL1       -0.2713
     29 C          -9.2018  -16.9110   23.4469 C.3     1  UNL1        0.0722
     30 C          -9.8662  -17.3898   24.7036 C.3     1  UNL1        0.0188
     31 C          -9.7259  -18.8822   24.7624 C.3     1  UNL1        0.0188
     32 C          -8.9747  -19.3255   23.5420 C.3     1  UNL1        0.0722
@<TRIPOS>BOND
     1     1     2    2
     2     2    15    1
     3    15    16    1
     4    16    17   ar
     5    17    18    2
     6    17    19   ar
     7    19    20   ar
     8    20    21   ar
     9    21    22   ar
    10    22    23   ar
    11    23    24    1
    12    23    25   ar
    13    25    26   ar
    14     2     3   am
    15     3     4    1
    16     4     5    1
    17     5     6    1
    18     6     7    1
    19     7     9    1
    20     9    10   ar
    21    10    11   ar
    22    11    12   ar
    23    12    13   ar
    24    13    14   ar
    25     7     8    1
    26     8    27    1
    27    27    28    1
    28    28    29    1
    29    29    30    1
    30    30    31    1
    31    31    32    1
    32    26    16   ar
    33     8     3    1
    34    32    28    1
    35    26    20   ar
    36    14     9   ar
@<TRIPOS>MOLECULE
*****
 32 36 0 0 0
SMALL
GASTEIGER

@<TRIPOS>ATOM
      1 O          -5.2578  -21.5196   19.9002 O.2     1  UNL1       -0.2728
      2 C          -6.2054  -20.6554   20.6783 C.2     1  UNL1        0.2488
      3 N          -7.5319  -20.2775   20.0888 N.am    1  UNL1       -0.2779
      4 C          -7.9109  -20.7637   18.7214 C.3     1  UNL1        0.0935
      5 C          -9.2374  -20.3858   18.1319 C.3     1  UNL1        0.0219
      6 C         -10.1850  -19.5216   18.9098 C.3     1  UNL1        0.0078
      7 C          -9.8060  -19.0354   20.2773 C.3     1  UNL1        0.0419
      8 C          -8.4795  -19.4133   20.8668 C.3     1  UNL1        0.0953
      9 C         -10.7536  -18.1712   21.0553 C.ar    1  UNL1       -0.0209
     10 C         -10.5000  -16.6975   21.1732 C.ar    1  UNL1       -0.0042
     11 C         -11.4476  -15.8333   21.9513 C.ar    1  UNL1       -0.0003
     12 C         -12.6488  -16.4429   22.6114 C.ar    1  UNL1       -0.0000
     13 C         -12.9023  -17.9165   22.4934 C.ar    1  UNL1       -0.0003
     14 C         -11.9547  -18.7807   21.7154 C.ar    1  UNL1       -0.0042
     15 C          -5.8264  -20.1692   22.0457 C.3     1  UNL1        0.1946
     16 N          -4.7924  -19.0934   22.1994 N.ar    1  UNL1       -0.2808
     17 C          -3.3466  -19.1987   21.8141 C.ar    1  UNL1        0.2927
     18 O          -2.6808  -20.3982   21.2076 O.2     1  UNL1       -0.2594
     19 S          -2.6834  -17.8938   22.1420 S.2     1  UNL1       -0.0260
     20 C          -3.7193  -16.9821   22.7298 C.ar    1  UNL1        0.0498
     21 C          -3.6441  -15.5726   23.2373 C.ar    1  UNL1        0.0089
     22 C          -4.8724  -14.9045   23.7803 C.ar    1  UNL1        0.0120
     23 C          -6.1759  -15.6459   23.8158 C.ar    1  UNL1        0.0591
     24 CL         -7.4042  -14.9777   24.3588 Cl      1  UNL1       -0.0822
     25 C          -6.2511  -17.0554   23.3083 C.ar    1  UNL1        0.0292
     26 C          -5.0228  -17.7235   22.7653 C.ar    1  UNL1        0.0704
     27 C          -8.1006  -18.9270   22.2342 C.3     1  UNL1        0.0924
     28 N          -8.9819  -19.2309   23.4093 N.3     1  UNL1       -0.2713
     29 C          -9.5425  -18.2281   24.3736 C.3     1  UNL1        0.0722
     30 C         -10.3645  -18.9683   25.3867 C.3     1  UNL1        0.0188
     31 C         -10.3118  -20.4288   25.0485 C.3     1  UNL1        0.0188
     32 C          -9.4573  -20.5911   23.8264 C.3     1  UNL1        0.0722
@<TRIPOS>BOND
     1     1     2    2
     2     2    15    1
     3    15    16    1
     4    16    17   ar
     5    17    18    2
     6    17    19   ar
     7    19    20   ar
     8    20    21   ar
     9    21    22   ar
    10    22    23   ar
    11    23    24    1
    12    23    25   ar
    13    25    26   ar
    14     2     3   am
    15     3     4    1
    16     4     5    1
    17     5     6    1
    18     6     7    1
    19     7     9    1
    20     9    10   ar
    21    10    11   ar
    22    11    12   ar
    23    12    13   ar
    24    13    14   ar
    25     7     8    1
    26     8    27    1
    27    27    28    1
    28    28    29    1
    29    29    30    1
    30    30    31    1
    31    31    32    1
    32    26    16   ar
    33     8     3    1
    34    32    28    1
    35    26    20   ar
    36    14     9   ar
@<TRIPOS>MOLECULE
*****
 32 36 0 0 0
SMALL
GASTEIGER

@<TRIPOS>ATOM
      1 O          -3.8354  -17.9121   24.0822 O.2     1  UNL1       -0.2728
      2 C          -5.1620  -18.0201   23.3903 C.2     1  UNL1        0.2488
      3 N          -6.2126  -16.9734   23.6155 N.am    1  UNL1       -0.2779
      4 C          -5.9366  -15.8188   24.5324 C.3     1  UNL1        0.0935
      5 C          -6.9872  -14.7721   24.7576 C.3     1  UNL1        0.0219
      6 C          -8.3138  -14.8800   24.0658 C.3     1  UNL1        0.0078
      7 C          -8.5898  -16.0346   23.1489 C.3     1  UNL1        0.0419
      8 C          -7.5392  -17.0813   22.9237 C.3     1  UNL1        0.0953
      9 C          -9.9163  -16.1425   22.4571 C.ar    1  UNL1       -0.0209
     10 C         -10.0314  -15.8084   20.9994 C.ar    1  UNL1       -0.0042
     11 C         -11.3581  -15.9164   20.3076 C.ar    1  UNL1       -0.0003
     12 C         -12.5695  -16.3585   21.0736 C.ar    1  UNL1       -0.0000
     13 C         -12.4544  -16.6927   22.5314 C.ar    1  UNL1       -0.0003
     14 C         -11.1279  -16.5847   23.2231 C.ar    1  UNL1       -0.0042
     15 C          -5.4379  -19.1747   22.4735 C.3     1  UNL1        0.1946
     16 N          -4.5719  -19.4001   21.2696 N.ar    1  UNL1       -0.2808
     17 C          -4.7444  -20.4871   20.2506 C.ar    1  UNL1        0.2927
     18 O          -5.8131  -21.5396   20.2564 O.2     1  UNL1       -0.2594
     19 S          -3.6605  -20.3368   19.2247 S.2     1  UNL1       -0.0260
     20 C          -2.8181  -19.1569   19.6097 C.ar    1  UNL1        0.0498
     21 C          -1.6109  -18.5349   18.9727 C.ar    1  UNL1        0.0089
     22 C          -0.9671  -17.3340   19.5996 C.ar    1  UNL1        0.0120
     23 C          -1.5304  -16.7550   20.8635 C.ar    1  UNL1        0.0591
     24 CL         -0.8865  -15.5540   21.4905 Cl      1  UNL1       -0.0822
     25 C          -2.7376  -17.3770   21.5005 C.ar    1  UNL1        0.0292
     26 C          -3.3814  -18.5780   20.8736 C.ar    1  UNL1        0.0704
     27 C          -7.8152  -18.2359   22.0068 C.3     1  UNL1        0.0924
     28 N          -9.0303  -19.0891   22.2200 N.3     1  UNL1       -0.2713
     29 C         -10.0471  -19.4511   21.1784 C.3     1  UNL1        0.0722
     30 C         -11.0872  -20.3159   21.8267 C.3     1  UNL1        0.0188
     31 C         -10.7132  -20.4884   23.2691 C.3     1  UNL1        0.0188
     32 C          -9.4419  -19.7301   23.5121 C.3     1  UNL1        0.0722
@<TRIPOS>BOND
     1     1     2    2
     2     2    15    1
     3    15    16    1
     4    16    17   ar
     5    17    18    2
     6    17    19   ar
     7    19    20   ar
     8    20    21   ar
     9    21    22   ar
    10    22    23   ar
    11    23    24    1
    12    23    25   ar
    13    25    26   ar
    14     2     3   am
    15     3     4    1
    16     4     5    1
    17     5     6    1
    18     6     7    1
    19     7     9    1
    20     9    10   ar
    21    10    11   ar
    22    11    12   ar
    23    12    13   ar
    24    13    14   ar
    25     7     8    1
    26     8    27    1
    27    27    28    1
    28    28    29    1
    29    29    30    1
    30    30    31    1
    31    31    32    1
    32    26    16   ar
    33     8     3    1
    34    32    28    1
    35    26    20   ar
    36    14     9   ar
@<TRIPOS>MOLECULE
*****
 32 36 0 0 0
SMALL
GASTEIGER

@<TRIPOS>ATOM
      1 O           5.5092   -0.7020   27.0257 O.2     1  UNL1       -0.2728
      2 C           5.7202   -1.4820   25.7619 C.2     1  UNL1        0.2488
      3 N           4.7767   -1.3104   24.6084 N.am    1  UNL1       -0.2779
      4 C           3.6225   -0.3588   24.7187 C.3     1  UNL1        0.0935
      5 C           2.6790   -0.1872   23.5652 C.3     1  UNL1        0.0219
      6 C           2.8899   -0.9672   22.3014 C.3     1  UNL1        0.0078
      7 C           4.0441   -1.9187   22.1911 C.3     1  UNL1        0.0419
      8 C           4.9876   -2.0903   23.3446 C.3     1  UNL1        0.0953
      9 C           4.2551   -2.6987   20.9274 C.ar    1  UNL1       -0.0209
     10 C           4.8146   -2.0206   19.7120 C.ar    1  UNL1       -0.0042
     11 C           5.0255   -2.8007   18.4482 C.ar    1  UNL1       -0.0003
     12 C           4.6768   -4.2588   18.3998 C.ar    1  UNL1       -0.0000
     13 C           4.1173   -4.9369   19.6152 C.ar    1  UNL1       -0.0003
     14 C           3.9064   -4.1569   20.8789 C.ar    1  UNL1       -0.0042
     15 C           6.8744   -2.4335   25.6516 C.3     1  UNL1        0.1946
     16 N           6.8677   -3.7145   26.4320 N.ar    1  UNL1       -0.2808
     17 C           6.4085   -3.8805   27.8503 C.ar    1  UNL1        0.2927
     18 O           5.8754   -2.7946   28.7373 O.2     1  UNL1       -0.2594
     19 S           6.5760   -5.3230   28.2259 S.2     1  UNL1       -0.0260
     20 C           7.1387   -6.0485   27.0397 C.ar    1  UNL1        0.0498
     21 C           7.5102   -7.4860   26.8260 C.ar    1  UNL1        0.0089
     22 C           8.0619   -7.9293   25.5035 C.ar    1  UNL1        0.0120
     23 C           8.2422   -6.9352   24.3948 C.ar    1  UNL1        0.0591
     24 CL          8.7940   -7.3786   23.0723 Cl      1  UNL1       -0.0822
     25 C           7.8707   -5.4978   24.6086 C.ar    1  UNL1        0.0292
     26 C           7.3189   -5.0544   25.9310 C.ar    1  UNL1        0.0704
     27 C           6.1418   -3.0419   23.2343 C.3     1  UNL1        0.0924
     28 N           7.1598   -2.8634   22.1472 N.3     1  UNL1       -0.2713
     29 C           7.8763   -1.5892   21.8109 C.3     1  UNL1        0.0722
     30 C           8.7994   -1.8659   20.6614 C.3     1  UNL1        0.0188
     31 C           8.6533   -3.3112   20.2871 C.3     1  UNL1        0.0188
     32 C           7.6400   -3.9276   21.2055 C.3     1  UNL1        0.0722
@<TRIPOS>BOND
     1     1     2    2
     2     2    15    1
     3    15    16    1
     4    16    17   ar
     5    17    18    2
     6    17    19   ar
     7    19    20   ar
     8    20    21   ar
     9    21    22   ar
    10    22    23   ar
    11    23    24    1
    12    23    25   ar
    13    25    26   ar
    14     2     3   am
    15     3     4    1
    16     4     5    1
    17     5     6    1
    18     6     7    1
    19     7     9    1
    20     9    10   ar
    21    10    11   ar
    22    11    12   ar
    23    12    13   ar
    24    13    14   ar
    25     7     8    1
    26     8    27    1
    27    27    28    1
    28    28    29    1
    29    29    30    1
    30    30    31    1
    31    31    32    1
    32    26    16   ar
    33     8     3    1
    34    32    28    1
    35    26    20   ar
    36    14     9   ar
@<TRIPOS>MOLECULE
*****
 32 36 0 0 0
SMALL
GASTEIGER

@<TRIPOS>ATOM
      1 O          -0.0571    2.3441   22.6930 O.2     1  UNL1       -0.2728
      2 C           0.6637    1.4747   21.7058 C.2     1  UNL1        0.2488
      3 N           1.6972    0.4973   22.1817 N.am    1  UNL1       -0.2779
      4 C           2.0099    0.3893   23.6448 C.3     1  UNL1        0.0935
      5 C           3.0434   -0.5881   24.1208 C.3     1  UNL1        0.0219
      6 C           3.7642   -1.4575   23.1337 C.3     1  UNL1        0.0078
      7 C           3.4516   -1.3496   21.6707 C.3     1  UNL1        0.0419
      8 C           2.4181   -0.3722   21.1947 C.3     1  UNL1        0.0953
      9 C           4.1724   -2.2190   20.6835 C.ar    1  UNL1       -0.0209
     10 C           5.6046   -1.9353   20.3397 C.ar    1  UNL1       -0.0042
     11 C           6.3254   -2.8048   19.3525 C.ar    1  UNL1       -0.0003
     12 C           5.6139   -3.9581   18.7091 C.ar    1  UNL1       -0.0000
     13 C           4.1817   -4.2418   19.0530 C.ar    1  UNL1       -0.0003
     14 C           3.4610   -3.3723   20.0401 C.ar    1  UNL1       -0.0042
     15 C           0.3510    1.5826   20.2428 C.3     1  UNL1        0.1946
     16 N          -0.1732    2.8709   19.6809 N.ar    1  UNL1       -0.2808
     17 C          -1.5570    3.4175   19.8714 C.ar    1  UNL1        0.2927
     18 O          -2.6595    2.7720   20.6573 O.2     1  UNL1       -0.2594
     19 S          -1.6446    4.7231   19.1381 S.2     1  UNL1       -0.0260
     20 C          -0.3150    4.9833   18.4943 C.ar    1  UNL1        0.0498
     21 C           0.1851    6.1147   17.6459 C.ar    1  UNL1        0.0089
     22 C           1.5946    6.1014   17.1331 C.ar    1  UNL1        0.0120
     23 C           2.5040    4.9566   17.4685 C.ar    1  UNL1        0.0591
     24 CL          3.9136    4.9433   16.9556 Cl      1  UNL1       -0.0822
     25 C           2.0039    3.8252   18.3169 C.ar    1  UNL1        0.0292
     26 C           0.5944    3.8385   18.8297 C.ar    1  UNL1        0.0704
     27 C           2.1054   -0.2643   19.7316 C.3     1  UNL1        0.0924
     28 N           3.2016    0.0261   18.7498 N.3     1  UNL1       -0.2713
     29 C           3.4514   -0.7066   17.4650 C.3     1  UNL1        0.0722
     30 C           4.6446   -0.0854   16.8014 C.3     1  UNL1        0.0188
     31 C           5.1324    1.0313   17.6762 C.3     1  UNL1        0.0188
     32 C           4.2405    1.1002   18.8804 C.3     1  UNL1        0.0722
@<TRIPOS>BOND
     1     1     2    2
     2     2    15    1
     3    15    16    1
     4    16    17   ar
     5    17    18    2
     6    17    19   ar
     7    19    20   ar
     8    20    21   ar
     9    21    22   ar
    10    22    23   ar
    11    23    24    1
    12    23    25   ar
    13    25    26   ar
    14     2     3   am
    15     3     4    1
    16     4     5    1
    17     5     6    1
    18     6     7    1
    19     7     9    1
    20     9    10   ar
    21    10    11   ar
    22    11    12   ar
    23    12    13   ar
    24    13    14   ar
    25     7     8    1
    26     8    27    1
    27    27    28    1
    28    28    29    1
    29    29    30    1
    30    30    31    1
    31    31    32    1
    32    26    16   ar
    33     8     3    1
    34    32    28    1
    35    26    20   ar
    36    14     9   ar
@<TRIPOS>MOLECULE
*****
 32 36 0 0 0
SMALL
GASTEIGER

@<TRIPOS>ATOM
      1 O          -0.1186    2.5633   22.5122 O.2     1  UNL1       -0.2728
      2 C           0.6173    1.6814   21.5473 C.2     1  UNL1        0.2488
      3 N           1.6090    0.6773   22.0555 N.am    1  UNL1       -0.2779
      4 C           1.8648    0.5550   23.5285 C.3     1  UNL1        0.0935
      5 C           2.8565   -0.4491   24.0366 C.3     1  UNL1        0.0219
      6 C           3.5925   -1.3310   23.0719 C.3     1  UNL1        0.0078
      7 C           3.3367   -1.2086   21.5989 C.3     1  UNL1        0.0419
      8 C           2.3449   -0.2045   21.0907 C.3     1  UNL1        0.0953
      9 C           4.0725   -2.0904   20.6341 C.ar    1  UNL1       -0.0209
     10 C           3.3576   -3.2217   19.9566 C.ar    1  UNL1       -0.0042
     11 C           4.0935   -4.1035   18.9917 C.ar    1  UNL1       -0.0003
     12 C           5.5444   -3.8539   18.7043 C.ar    1  UNL1       -0.0000
     13 C           6.2594   -2.7226   19.3818 C.ar    1  UNL1       -0.0003
     14 C           5.5235   -1.8409   20.3466 C.ar    1  UNL1       -0.0042
     15 C           0.3615    1.8038   20.0745 C.3     1  UNL1        0.1946
     16 N          -0.1014    3.1096   19.4995 N.ar    1  UNL1       -0.2808
     17 C           0.7365    4.0727   18.7118 C.ar    1  UNL1        0.2927
     18 O           2.1845    3.8990   18.3609 O.2     1  UNL1       -0.2594
     19 S          -0.1277    5.2399   18.3368 S.2     1  UNL1       -0.0260
     20 C          -1.4998    4.9982   18.8927 C.ar    1  UNL1        0.0498
     21 C          -2.7619    5.8069   18.8374 C.ar    1  UNL1        0.0089
     22 C          -4.0077    5.2990   19.5006 C.ar    1  UNL1        0.0120
     23 C          -3.9915    3.9825   20.2192 C.ar    1  UNL1        0.0591
     24 CL         -5.2374    3.4746   20.8825 Cl      1  UNL1       -0.0822
     25 C          -2.7294    3.1738   20.2745 C.ar    1  UNL1        0.0292
     26 C          -1.4836    3.6816   19.6113 C.ar    1  UNL1        0.0704
     27 C           2.0891   -0.0822   19.6178 C.3     1  UNL1        0.0924
     28 N           3.2308    0.1617   18.6760 N.3     1  UNL1       -0.2713
     29 C           4.3006    1.2006   18.8377 C.3     1  UNL1        0.0722
     30 C           5.2342    1.0906   17.6687 C.3     1  UNL1        0.0188
     31 C           4.7413   -0.0165   16.7845 C.3     1  UNL1        0.0188
     32 C           3.5031   -0.5905   17.4071 C.3     1  UNL1        0.0722
@<TRIPOS>BOND
     1     1     2    2
     2     2    15    1
     3    15    16    1
     4    16    17   ar
     5    17    18    2
     6    17    19   ar
     7    19    20   ar
     8    20    21   ar
     9    21    22   ar
    10    22    23   ar
    11    23    24    1
    12    23    25   ar
    13    25    26   ar
    14     2     3   am
    15     3     4    1
    16     4     5    1
    17     5     6    1
    18     6     7    1
    19     7     9    1
    20     9    10   ar
    21    10    11   ar
    22    11    12   ar
    23    12    13   ar
    24    13    14   ar
    25     7     8    1
    26     8    27    1
    27    27    28    1
    28    28    29    1
    29    29    30    1
    30    30    31    1
    31    31    32    1
    32    26    16   ar
    33     8     3    1
    34    32    28    1
    35    26    20   ar
    36    14     9   ar
@<TRIPOS>MOLECULE
*****
 32 36 0 0 0
SMALL
GASTEIGER

@<TRIPOS>ATOM
      1 O           0.1350    2.0196   24.1437 O.2     1  UNL1       -0.2728
      2 C           1.1629    1.0789   23.5881 C.2     1  UNL1        0.2488
      3 N           1.2103    0.8054   22.1140 N.am    1  UNL1       -0.2779
      4 C           0.2297    1.4725   21.1956 C.3     1  UNL1        0.0935
      5 C           0.2770    1.1990   19.7214 C.3     1  UNL1        0.0219
      6 C           1.3049    0.2584   19.1658 C.3     1  UNL1        0.0078
      7 C           2.2854   -0.4086   20.0842 C.3     1  UNL1        0.0419
      8 C           2.2381   -0.1351   21.5583 C.3     1  UNL1        0.0953
      9 C           3.3134   -1.3491   19.5286 C.ar    1  UNL1       -0.0209
     10 C           3.1524   -2.8292   19.7115 C.ar    1  UNL1       -0.0042
     11 C           4.1804   -3.7698   19.1558 C.ar    1  UNL1       -0.0003
     12 C           5.3694   -3.2302   18.4173 C.ar    1  UNL1       -0.0000
     13 C           5.5303   -1.7501   18.2344 C.ar    1  UNL1       -0.0003
     14 C           4.5023   -0.8096   18.7901 C.ar    1  UNL1       -0.0042
     15 C           2.1434    0.4120   24.5065 C.3     1  UNL1        0.1946
     16 N           2.5200    1.0647   25.8035 N.ar    1  UNL1       -0.2808
     17 C           3.8083    1.7773   26.0905 C.ar    1  UNL1        0.2927
     18 O           4.9463    1.9624   25.1309 O.2     1  UNL1       -0.2594
     19 S           3.7588    2.2724   27.5056 S.2     1  UNL1       -0.0260
     20 C           2.4399    1.8657   28.0931 C.ar    1  UNL1        0.0498
     21 C           1.8373    2.0787   29.4501 C.ar    1  UNL1        0.0089
     22 C           0.4690    1.5452   29.7551 C.ar    1  UNL1        0.0120
     23 C          -0.2967    0.7988   28.7031 C.ar    1  UNL1        0.0591
     24 CL         -1.6651    0.2653   29.0082 Cl      1  UNL1       -0.0822
     25 C           0.3060    0.5858   27.3462 C.ar    1  UNL1        0.0292
     26 C           1.6743    1.1193   27.0412 C.ar    1  UNL1        0.0704
     27 C           3.2187   -0.8021   22.4767 C.3     1  UNL1        0.0924
     28 N           4.6920   -0.6325   22.2519 N.3     1  UNL1       -0.2713
     29 C           5.7155   -1.7290   22.2499 C.3     1  UNL1        0.0722
     30 C           7.0566   -1.1110   21.9864 C.3     1  UNL1        0.0188
     31 C           6.8619    0.3677   21.8255 C.3     1  UNL1        0.0188
     32 C           5.4005    0.6633   21.9897 C.3     1  UNL1        0.0722
@<TRIPOS>BOND
     1     1     2    2
     2     2    15    1
     3    15    16    1
     4    16    17   ar
     5    17    18    2
     6    17    19   ar
     7    19    20   ar
     8    20    21   ar
     9    21    22   ar
    10    22    23   ar
    11    23    24    1
    12    23    25   ar
    13    25    26   ar
    14     2     3   am
    15     3     4    1
    16     4     5    1
    17     5     6    1
    18     6     7    1
    19     7     9    1
    20     9    10   ar
    21    10    11   ar
    22    11    12   ar
    23    12    13   ar
    24    13    14   ar
    25     7     8    1
    26     8    27    1
    27    27    28    1
    28    28    29    1
    29    29    30    1
    30    30    31    1
    31    31    32    1
    32    26    16   ar
    33     8     3    1
    34    32    28    1
    35    26    20   ar
    36    14     9   ar
@<TRIPOS>MOLECULE
*****
 32 36 0 0 0
SMALL
GASTEIGER

@<TRIPOS>ATOM
      1 O           7.4840   -1.9008   25.7546 O.2     1  UNL1       -0.2728
      2 C           6.4892   -2.0055   24.6367 C.2     1  UNL1        0.2488
      3 N           5.9376   -0.7619   24.0049 N.am    1  UNL1       -0.2779
      4 C           6.3807    0.5862   24.4910 C.3     1  UNL1        0.0935
      5 C           5.8290    1.8298   23.8592 C.3     1  UNL1        0.0219
      6 C           4.8343    1.7253   22.7413 C.3     1  UNL1        0.0078
      7 C           4.3913    0.3772   22.2552 C.3     1  UNL1        0.0419
      8 C           4.9429   -0.8664   22.8870 C.3     1  UNL1        0.0953
      9 C           3.3966    0.2726   21.1374 C.ar    1  UNL1       -0.0209
     10 C           3.8320    0.5083   19.7215 C.ar    1  UNL1       -0.0042
     11 C           2.8372    0.4037   18.6036 C.ar    1  UNL1       -0.0003
     12 C           1.4070    0.0633   18.9017 C.ar    1  UNL1       -0.0000
     13 C           0.9717   -0.1724   20.3176 C.ar    1  UNL1       -0.0003
     14 C           1.9664   -0.0677   21.4354 C.ar    1  UNL1       -0.0042
     15 C           6.0462   -3.3536   24.1507 C.3     1  UNL1        0.1946
     16 N           6.9153   -4.5551   24.3765 N.ar    1  UNL1       -0.2808
     17 C           7.6826   -5.2987   23.3236 C.ar    1  UNL1        0.2927
     18 O           7.7154   -4.9712   21.8602 O.2     1  UNL1       -0.2594
     19 S           8.4112   -6.4271   23.9912 S.2     1  UNL1       -0.0260
     20 C           8.0943   -6.3810   25.4567 C.ar    1  UNL1        0.0498
     21 C           8.5281   -7.2430   26.6050 C.ar    1  UNL1        0.0089
     22 C           8.0374   -6.9481   27.9914 C.ar    1  UNL1        0.0120
     23 C           7.1129   -5.7911   28.2295 C.ar    1  UNL1        0.0591
     24 CL          6.6222   -5.4962   29.6160 Cl      1  UNL1       -0.0822
     25 C           6.6791   -4.9291   27.0812 C.ar    1  UNL1        0.0292
     26 C           7.1698   -5.2240   25.6948 C.ar    1  UNL1        0.0704
     27 C           4.4998   -2.2145   22.4010 C.3     1  UNL1        0.0924
     28 N           4.7467   -2.6168   20.9772 N.3     1  UNL1       -0.2713
     29 C           3.7558   -3.2727   20.0620 C.3     1  UNL1        0.0722
     30 C           4.4243   -3.4953   18.7378 C.3     1  UNL1        0.0188
     31 C           5.8286   -2.9768   18.8347 C.3     1  UNL1        0.0188
     32 C           6.0278   -2.4339   20.2188 C.3     1  UNL1        0.0722
@<TRIPOS>BOND
     1     1     2    2
     2     2    15    1
     3    15    16    1
     4    16    17   ar
     5    17    18    2
     6    17    19   ar
     7    19    20   ar
     8    20    21   ar
     9    21    22   ar
    10    22    23   ar
    11    23    24    1
    12    23    25   ar
    13    25    26   ar
    14     2     3   am
    15     3     4    1
    16     4     5    1
    17     5     6    1
    18     6     7    1
    19     7     9    1
    20     9    10   ar
    21    10    11   ar
    22    11    12   ar
    23    12    13   ar
    24    13    14   ar
    25     7     8    1
    26     8    27    1
    27    27    28    1
    28    28    29    1
    29    29    30    1
    30    30    31    1
    31    31    32    1
    32    26    16   ar
    33     8     3    1
    34    32    28    1
    35    26    20   ar
    36    14     9   ar
@<TRIPOS>MOLECULE
*****
 32 36 0 0 0
SMALL
GASTEIGER

@<TRIPOS>ATOM
      1 O           5.3869   -2.2685   26.3178 O.2     1  UNL1       -0.2728
      2 C           4.6483   -1.4161   25.3287 C.2     1  UNL1        0.2488
      3 N           4.4663   -1.8915   23.9177 N.am    1  UNL1       -0.2779
      4 C           5.0228   -3.2190   23.4958 C.3     1  UNL1        0.0935
      5 C           4.8408   -3.6943   22.0848 C.3     1  UNL1        0.0219
      6 C           4.1023   -2.8421   21.0957 C.3     1  UNL1        0.0078
      7 C           3.5458   -1.5146   21.5176 C.3     1  UNL1        0.0419
      8 C           3.7278   -1.0393   22.9286 C.3     1  UNL1        0.0953
      9 C           2.8073   -0.6623   20.5286 C.ar    1  UNL1       -0.0209
     10 C           1.3168   -0.5234   20.6236 C.ar    1  UNL1       -0.0042
     11 C           0.5783    0.3289   19.6345 C.ar    1  UNL1       -0.0003
     12 C           1.3304    1.0423   18.5503 C.ar    1  UNL1       -0.0000
     13 C           2.8209    0.9035   18.4552 C.ar    1  UNL1       -0.0003
     14 C           3.5594    0.0512   19.4443 C.ar    1  UNL1       -0.0042
     15 C           4.0919   -0.0887   25.7507 C.3     1  UNL1        0.1946
     16 N           3.1359   -0.0084   26.9038 N.ar    1  UNL1       -0.2808
     17 C           3.3714   -0.5480   28.2835 C.ar    1  UNL1        0.2927
     18 O           4.6041   -1.2625   28.7523 O.2     1  UNL1       -0.2594
     19 S           2.1576   -0.2475   29.1120 S.2     1  UNL1       -0.0260
     20 C           1.1720    0.4777   28.2444 C.ar    1  UNL1        0.0498
     21 C          -0.1978    1.0226   28.5208 C.ar    1  UNL1        0.0089
     22 C          -0.9631    1.7153   27.4325 C.ar    1  UNL1        0.0120
     23 C          -0.3584    1.8631   26.0677 C.ar    1  UNL1        0.0591
     24 CL         -1.1238    2.5558   24.9793 Cl      1  UNL1       -0.0822
     25 C           1.0114    1.3181   25.7913 C.ar    1  UNL1        0.0292
     26 C           1.7767    0.6255   26.8797 C.ar    1  UNL1        0.0704
     27 C           3.1714    0.2883   23.3505 C.3     1  UNL1        0.0924
     28 N           3.6108    1.5415   22.6533 N.3     1  UNL1       -0.2713
     29 C           2.7112    2.6270   22.1408 C.3     1  UNL1        0.0722
     30 C           3.5713    3.6858   21.5169 C.3     1  UNL1        0.0188
     31 C           5.0025    3.2547   21.6438 C.3     1  UNL1        0.0188
     32 C           5.0268    1.9295   22.3462 C.3     1  UNL1        0.0722
@<TRIPOS>BOND
     1     1     2    2
     2     2    15    1
     3    15    16    1
     4    16    17   ar
     5    17    18    2
     6    17    19   ar
     7    19    20   ar
     8    20    21   ar
     9    21    22   ar
    10    22    23   ar
    11    23    24    1
    12    23    25   ar
    13    25    26   ar
    14     2     3   am
    15     3     4    1
    16     4     5    1
    17     5     6    1
    18     6     7    1
    19     7     9    1
    20     9    10   ar
    21    10    11   ar
    22    11    12   ar
    23    12    13   ar
    24    13    14   ar
    25     7     8    1
    26     8    27    1
    27    27    28    1
    28    28    29    1
    29    29    30    1
    30    30    31    1
    31    31    32    1
    32    26    16   ar
    33     8     3    1
    34    32    28    1
    35    26    20   ar
    36    14     9   ar
