@<TRIPOS>MOLECULE
*****
 22 25 0 0 0
SMALL
GASTEIGER

@<TRIPOS>ATOM
      1 C          -8.8247  -19.5237   19.5012 C.2     1  UNL1        0.3425
      2 O          -9.0202  -20.4698   18.3539 O.2     1  UNL1       -0.2448
      3 C         -13.4362  -17.7103   23.6757 C.3     1  UNL1        0.0286
      4 C         -12.1524  -18.4269   23.3786 C.2     1  UNL1       -0.0179
      5 C         -11.4226  -19.1440   24.4754 C.2     1  UNL1       -0.0063
      6 C         -10.1388  -19.8606   24.1783 C.2     1  UNL1       -0.0008
      7 C          -9.5847  -19.8601   22.7844 C.2     1  UNL1       -0.0019
      8 C         -10.3145  -19.1429   21.6876 C.2     1  UNL1        0.0114
      9 C         -10.0143  -18.9703   20.2281 C.2     1  UNL1        0.0925
     10 C         -11.1126  -18.1469   19.6232 C.2     1  UNL1        0.1000
     11 N         -12.0916  -17.8108   20.7088 N.2     1  UNL1       -0.2621
     12 C         -11.5984  -18.4263   21.9847 C.3     1  UNL1        0.1441
     13 O          -7.4393  -19.1311   19.9218 O.3     1  UNL1       -0.4454
     14 C          -6.5391  -20.1391   20.5727 C.3     1  UNL1        0.2087
     15 C          -5.1873  -19.7245   21.0733 C.3     1  UNL1        0.0445
     16 C          -5.0701  -18.8973   22.3191 C.3     1  UNL1        0.0210
     17 C          -3.7182  -18.4827   22.8196 C.3     1  UNL1        0.0722
     18 N          -2.4835  -18.8954   22.0744 N.3     1  UNL1       -0.2727
     19 C          -2.6007  -19.7226   20.8287 C.3     1  UNL1        0.0722
     20 C          -3.9527  -20.1371   20.3281 C.3     1  UNL1        0.0210
     21 C          -3.2025  -19.1465   21.7616 C.3     1  UNL1        0.0722
     22 C          -4.4249  -19.5214   21.3089 C.3     1  UNL1        0.0210
@<TRIPOS>BOND
     1     3     4    1
     2     4     5    2
     3     5     6    1
     4     6     7    2
     5     7     8    1
     6     8     9    2
     7     9     1    1
     8     1     2    2
     9     1    13    1
    10    13    14    1
    11    14    15    1
    12    15    16    1
    13    16    17    1
    14    17    18    1
    15    18    19    1
    16    19    20    1
    17    18    21    1
    18    21    22    1
    19     9    10    1
    20    10    11    2
    21    11    12    1
    22    12     4    1
    23    12     8    1
    24    20    15    1
    25    22    15    1
@<TRIPOS>MOLECULE
*****
 22 25 0 0 0
SMALL
GASTEIGER

@<TRIPOS>ATOM
      1 C          -7.8294  -18.0991   22.5538 C.2     1  UNL1        0.3425
      2 O          -6.9606  -19.3050   22.3519 O.2     1  UNL1       -0.2448
      3 C         -14.1099  -18.1685   24.1450 C.3     1  UNL1        0.0286
      4 C         -13.0099  -17.8252   23.1847 C.2     1  UNL1       -0.0179
      5 C         -13.3335  -17.1561   21.8818 C.2     1  UNL1       -0.0063
      6 C         -12.2335  -16.8128   20.9215 C.2     1  UNL1       -0.0008
      7 C         -10.8100  -17.1386   21.2640 C.2     1  UNL1       -0.0019
      8 C         -10.4864  -17.8077   22.5669 C.2     1  UNL1        0.0114
      9 C          -9.1872  -18.2480   23.1736 C.2     1  UNL1        0.0925
     10 C          -9.4841  -18.8634   24.5090 C.2     1  UNL1        0.1000
     11 N         -10.9669  -18.8034   24.7275 N.2     1  UNL1       -0.2621
     12 C         -11.5864  -18.1510   23.5272 C.3     1  UNL1        0.1441
     13 O          -7.3403  -16.7439   22.1359 O.3     1  UNL1       -0.4454
     14 C          -7.6905  -15.5354   22.9525 C.3     1  UNL1        0.2087
     15 C          -7.3532  -15.4941   24.4135 C.3     1  UNL1        0.0445
     16 C          -5.9197  -15.4338   24.8509 C.3     1  UNL1        0.0210
     17 C          -5.5826  -15.3925   26.3119 C.3     1  UNL1        0.0722
     18 N          -6.6789  -15.4115   27.3356 N.3     1  UNL1       -0.2727
     19 C          -8.1124  -15.4718   26.8981 C.3     1  UNL1        0.0722
     20 C          -8.4496  -15.5131   25.4370 C.3     1  UNL1        0.0210
     21 C          -6.9127  -15.4357   26.5464 C.3     1  UNL1        0.0722
     22 C          -7.2177  -15.4730   25.2254 C.3     1  UNL1        0.0210
@<TRIPOS>BOND
     1     3     4    1
     2     4     5    2
     3     5     6    1
     4     6     7    2
     5     7     8    1
     6     8     9    2
     7     9     1    1
     8     1     2    2
     9     1    13    1
    10    13    14    1
    11    14    15    1
    12    15    16    1
    13    16    17    1
    14    17    18    1
    15    18    19    1
    16    19    20    1
    17    18    21    1
    18    21    22    1
    19     9    10    1
    20    10    11    2
    21    11    12    1
    22    12     4    1
    23    12     8    1
    24    20    15    1
    25    22    15    1
@<TRIPOS>MOLECULE
*****
 22 25 0 0 0
SMALL
GASTEIGER

@<TRIPOS>ATOM
      1 C          -7.4097  -17.6531   22.2463 C.2     1  UNL1        0.3425
      2 O          -6.2979  -16.9792   22.9944 O.2     1  UNL1       -0.2448
      3 C         -13.6762  -18.0043   23.8553 C.3     1  UNL1        0.0286
      4 C         -12.6005  -17.7307   22.8463 C.2     1  UNL1       -0.0179
      5 C         -12.9677  -17.3179   21.4518 C.2     1  UNL1       -0.0063
      6 C         -11.8921  -17.0443   20.4428 C.2     1  UNL1       -0.0008
      7 C         -10.4492  -17.1834   20.8282 C.2     1  UNL1       -0.0019
      8 C         -10.0820  -17.5962   22.2227 C.2     1  UNL1        0.0114
      9 C          -8.7556  -17.8148   22.8884 C.2     1  UNL1        0.0925
     10 C          -9.0115  -18.2235   24.3088 C.2     1  UNL1        0.1000
     11 N         -10.4960  -18.2575   24.5210 N.2     1  UNL1       -0.2621
     12 C         -11.1576  -17.8699   23.2318 C.3     1  UNL1        0.1441
     13 O          -7.1755  -18.1653   20.8560 O.3     1  UNL1       -0.4454
     14 C          -6.3300  -19.3851   20.6386 C.3     1  UNL1        0.2087
     15 C          -4.8343  -19.2754   20.6663 C.3     1  UNL1        0.0445
     16 C          -4.0884  -18.8767   19.4275 C.3     1  UNL1        0.0210
     17 C          -2.5926  -18.7671   19.4554 C.3     1  UNL1        0.0722
     18 N          -1.8428  -19.0562   20.7219 N.3     1  UNL1       -0.2727
     19 C          -2.5887  -19.4549   21.9607 C.3     1  UNL1        0.0722
     20 C          -4.0845  -19.5646   21.9329 C.3     1  UNL1        0.0210
     21 C          -2.6622  -19.1296   20.7553 C.3     1  UNL1        0.0722
     22 C          -4.0147  -19.2288   20.7303 C.3     1  UNL1        0.0210
@<TRIPOS>BOND
     1     3     4    1
     2     4     5    2
     3     5     6    1
     4     6     7    2
     5     7     8    1
     6     8     9    2
     7     9     1    1
     8     1     2    2
     9     1    13    1
    10    13    14    1
    11    14    15    1
    12    15    16    1
    13    16    17    1
    14    17    18    1
    15    18    19    1
    16    19    20    1
    17    18    21    1
    18    21    22    1
    19     9    10    1
    20    10    11    2
    21    11    12    1
    22    12     4    1
    23    12     8    1
    24    20    15    1
    25    22    15    1
@<TRIPOS>MOLECULE
*****
 22 25 0 0 0
SMALL
GASTEIGER

@<TRIPOS>ATOM
      1 C          -8.7122  -17.0940   21.7344 C.2     1  UNL1        0.3425
      2 O          -9.9202  -16.6905   20.9422 O.2     1  UNL1       -0.2448
      3 C          -7.1942  -15.4219   27.8073 C.3     1  UNL1        0.0286
      4 C          -6.8219  -15.5690   26.3617 C.2     1  UNL1       -0.0179
      5 C          -5.4474  -15.1868   25.8984 C.2     1  UNL1       -0.0063
      6 C          -5.0752  -15.3340   24.4528 C.2     1  UNL1       -0.0008
      7 C          -6.0775  -15.8633   23.4704 C.2     1  UNL1       -0.0019
      8 C          -7.4520  -16.2455   23.9336 C.2     1  UNL1        0.0114
      9 C          -8.6421  -16.7915   23.2019 C.2     1  UNL1        0.0925
     10 C          -9.7499  -16.9818   24.1952 C.2     1  UNL1        0.1000
     11 N          -9.2444  -16.5534   25.5409 N.2     1  UNL1       -0.2621
     12 C          -7.8242  -16.0983   25.3793 C.3     1  UNL1        0.1441
     13 O          -7.5740  -17.8002   21.0590 O.3     1  UNL1       -0.4454
     14 C          -7.0081  -19.0538   21.6576 C.3     1  UNL1        0.2087
     15 C          -5.5662  -19.4045   21.4391 C.3     1  UNL1        0.0445
     16 C          -5.1696  -20.2514   20.2663 C.3     1  UNL1        0.0210
     17 C          -3.7277  -20.6020   20.0479 C.3     1  UNL1        0.0722
     18 N          -2.6821  -20.1059   21.0022 N.3     1  UNL1       -0.2727
     19 C          -3.0787  -19.2590   22.1751 C.3     1  UNL1        0.0722
     20 C          -4.5207  -18.9083   22.3935 C.3     1  UNL1        0.0210
     21 C          -3.4596  -19.8877   21.1632 C.3     1  UNL1        0.0722
     22 C          -4.7635  -19.5705   21.3608 C.3     1  UNL1        0.0210
@<TRIPOS>BOND
     1     3     4    1
     2     4     5    2
     3     5     6    1
     4     6     7    2
     5     7     8    1
     6     8     9    2
     7     9     1    1
     8     1     2    2
     9     1    13    1
    10    13    14    1
    11    14    15    1
    12    15    16    1
    13    16    17    1
    14    17    18    1
    15    18    19    1
    16    19    20    1
    17    18    21    1
    18    21    22    1
    19     9    10    1
    20    10    11    2
    21    11    12    1
    22    12     4    1
    23    12     8    1
    24    20    15    1
    25    22    15    1
@<TRIPOS>MOLECULE
*****
 22 25 0 0 0
SMALL
GASTEIGER

@<TRIPOS>ATOM
      1 C          -8.5867  -17.7329   22.7210 C.2     1  UNL1        0.3425
      2 O          -9.2792  -18.3924   23.8765 O.2     1  UNL1       -0.2448
      3 C          -3.7054  -20.7462   19.7086 C.3     1  UNL1        0.0286
      4 C          -4.2131  -19.8558   20.8038 C.2     1  UNL1       -0.0179
      5 C          -3.2561  -19.2742   21.8017 C.2     1  UNL1       -0.0063
      6 C          -3.7637  -18.3838   22.8969 C.2     1  UNL1       -0.0008
      7 C          -5.2283  -18.0749   22.9942 C.2     1  UNL1       -0.0019
      8 C          -6.1853  -18.6565   21.9962 C.2     1  UNL1        0.0114
      9 C          -7.6719  -18.5311   21.8401 C.2     1  UNL1        0.0925
     10 C          -8.0830  -19.3441   20.6484 C.2     1  UNL1        0.1000
     11 N          -6.8505  -19.9718   20.0680 N.2     1  UNL1       -0.2621
     12 C          -5.6777  -19.5469   20.9010 C.3     1  UNL1        0.1441
     13 O          -8.8090  -16.2751   22.4463 O.3     1  UNL1       -0.4454
     14 C          -7.8855  -15.2513   23.0370 C.3     1  UNL1        0.2087
     15 C          -7.4780  -15.3510   24.4771 C.3     1  UNL1        0.0445
     16 C          -6.0241  -15.3828   24.8448 C.3     1  UNL1        0.0210
     17 C          -5.6167  -15.4825   26.2849 C.3     1  UNL1        0.0722
     18 N          -6.6631  -15.5506   27.3575 N.3     1  UNL1       -0.2727
     19 C          -8.1170  -15.5188   26.9898 C.3     1  UNL1        0.0722
     20 C          -8.5245  -15.4191   25.5496 C.3     1  UNL1        0.0210
     21 C          -6.9349  -15.4966   26.5821 C.3     1  UNL1        0.0722
     22 C          -7.3034  -15.4064   25.2799 C.3     1  UNL1        0.0210
@<TRIPOS>BOND
     1     3     4    1
     2     4     5    2
     3     5     6    1
     4     6     7    2
     5     7     8    1
     6     8     9    2
     7     9     1    1
     8     1     2    2
     9     1    13    1
    10    13    14    1
    11    14    15    1
    12    15    16    1
    13    16    17    1
    14    17    18    1
    15    18    19    1
    16    19    20    1
    17    18    21    1
    18    21    22    1
    19     9    10    1
    20    10    11    2
    21    11    12    1
    22    12     4    1
    23    12     8    1
    24    20    15    1
    25    22    15    1
@<TRIPOS>MOLECULE
*****
 22 25 0 0 0
SMALL
GASTEIGER

@<TRIPOS>ATOM
      1 C          -8.2347  -19.0465   20.3264 C.2     1  UNL1        0.3425
      2 O          -8.0972  -20.2102   19.3901 O.2     1  UNL1       -0.2448
      3 C         -13.6518  -17.9177   23.6972 C.3     1  UNL1        0.0286
      4 C         -12.2573  -18.4634   23.6113 C.2     1  UNL1       -0.0179
      5 C         -11.6306  -19.1123   24.8097 C.2     1  UNL1       -0.0063
      6 C         -10.2360  -19.6580   24.7237 C.2     1  UNL1       -0.0008
      7 C          -9.4681  -19.5548   23.4394 C.2     1  UNL1       -0.0019
      8 C         -10.0948  -18.9060   22.2410 C.2     1  UNL1        0.0114
      9 C          -9.5863  -18.6617   20.8511 C.2     1  UNL1        0.0925
     10 C         -10.6665  -17.9650   20.0780 C.2     1  UNL1        0.1000
     11 N         -11.8427  -17.7787   20.9901 N.2     1  UNL1       -0.2621
     12 C         -11.4893  -18.3603   22.3269 C.3     1  UNL1        0.1441
     13 O          -7.0207  -18.2676   20.7381 O.3     1  UNL1       -0.4454
     14 C          -6.5031  -18.3720   22.1422 C.3     1  UNL1        0.2087
     15 C          -6.4766  -17.1588   23.0238 C.3     1  UNL1        0.0445
     16 C          -7.7431  -16.4037   23.2989 C.3     1  UNL1        0.0210
     17 C          -7.7165  -15.1905   24.1806 C.3     1  UNL1        0.0722
     18 N          -6.4234  -14.7324   24.7873 N.3     1  UNL1       -0.2727
     19 C          -5.1569  -15.4875   24.5123 C.3     1  UNL1        0.0722
     20 C          -5.1835  -16.7008   23.6305 C.3     1  UNL1        0.0210
     21 C          -6.3883  -15.4029   24.3106 C.3     1  UNL1        0.0722
     22 C          -6.4123  -16.4999   23.5134 C.3     1  UNL1        0.0210
@<TRIPOS>BOND
     1     3     4    1
     2     4     5    2
     3     5     6    1
     4     6     7    2
     5     7     8    1
     6     8     9    2
     7     9     1    1
     8     1     2    2
     9     1    13    1
    10    13    14    1
    11    14    15    1
    12    15    16    1
    13    16    17    1
    14    17    18    1
    15    18    19    1
    16    19    20    1
    17    18    21    1
    18    21    22    1
    19     9    10    1
    20    10    11    2
    21    11    12    1
    22    12     4    1
    23    12     8    1
    24    20    15    1
    25    22    15    1
@<TRIPOS>MOLECULE
*****
 22 25 0 0 0
SMALL
GASTEIGER

@<TRIPOS>ATOM
      1 C          -7.3570  -19.3572   20.7639 C.2     1  UNL1        0.3425
      2 O          -7.7800  -19.1708   19.3370 O.2     1  UNL1       -0.2448
      3 C          -8.5896  -15.2304   25.6045 C.3     1  UNL1        0.0286
      4 C          -7.6194  -15.9202   24.6919 C.2     1  UNL1       -0.0179
      5 C          -6.1504  -15.6406   24.8095 C.2     1  UNL1       -0.0063
      6 C          -5.1802  -16.3304   23.8969 C.2     1  UNL1       -0.0008
      7 C          -5.6790  -17.2997   22.8666 C.2     1  UNL1       -0.0019
      8 C          -7.1479  -17.5793   22.7490 C.2     1  UNL1        0.0114
      9 C          -7.9286  -18.4783   21.8366 C.2     1  UNL1        0.0925
     10 C          -9.3814  -18.3442   22.1854 C.2     1  UNL1        0.1000
     11 N          -9.4985  -17.3623   23.3132 N.2     1  UNL1       -0.2621
     12 C          -8.1182  -16.8896   23.6616 C.3     1  UNL1        0.1441
     13 O          -6.3621  -20.4225   21.1181 O.3     1  UNL1       -0.4454
     14 C          -5.1184  -20.5903   20.2965 C.3     1  UNL1        0.2087
     15 C          -3.9706  -19.6405   20.4709 C.3     1  UNL1        0.0445
     16 C          -3.1471  -19.6812   21.7239 C.3     1  UNL1        0.0210
     17 C          -1.9993  -18.7314   21.8982 C.3     1  UNL1        0.0722
     18 N          -1.6750  -17.7408   20.8195 N.3     1  UNL1       -0.2727
     19 C          -2.4985  -17.7001   19.5665 C.3     1  UNL1        0.0722
     20 C          -3.6464  -18.6500   19.3921 C.3     1  UNL1        0.0210
     21 C          -2.3136  -18.2412   20.6788 C.3     1  UNL1        0.0722
     22 C          -3.3514  -19.1001   20.5211 C.3     1  UNL1        0.0210
@<TRIPOS>BOND
     1     3     4    1
     2     4     5    2
     3     5     6    1
     4     6     7    2
     5     7     8    1
     6     8     9    2
     7     9     1    1
     8     1     2    2
     9     1    13    1
    10    13    14    1
    11    14    15    1
    12    15    16    1
    13    16    17    1
    14    17    18    1
    15    18    19    1
    16    19    20    1
    17    18    21    1
    18    21    22    1
    19     9    10    1
    20    10    11    2
    21    11    12    1
    22    12     4    1
    23    12     8    1
    24    20    15    1
    25    22    15    1
@<TRIPOS>MOLECULE
*****
 22 25 0 0 0
SMALL
GASTEIGER

@<TRIPOS>ATOM
      1 C          -6.1938  -16.0333   24.2386 C.2     1  UNL1        0.3425
      2 O          -5.6474  -15.6070   25.5688 O.2     1  UNL1       -0.2448
      3 C          -3.9100  -20.4901   20.1273 C.3     1  UNL1        0.0286
      4 C          -5.0590  -19.8220   20.8226 C.2     1  UNL1       -0.0179
      5 C          -6.4631  -20.2800   20.5605 C.2     1  UNL1       -0.0063
      6 C          -7.6121  -19.6119   21.2557 C.2     1  UNL1       -0.0008
      7 C          -7.3570  -18.4857   22.2131 C.2     1  UNL1       -0.0019
      8 C          -5.9530  -18.0277   22.4753 C.2     1  UNL1        0.0114
      9 C          -5.3970  -16.9514   23.3598 C.2     1  UNL1        0.0925
     10 C          -3.9044  -16.9542   23.2112 C.2     1  UNL1        0.1000
     11 N          -3.5379  -18.0324   22.2349 N.2     1  UNL1       -0.2621
     12 C          -4.8040  -18.6958   21.7800 C.3     1  UNL1        0.1441
     13 O          -7.5371  -15.5415   23.7871 O.3     1  UNL1       -0.4454
     14 C          -8.7533  -15.8076   24.6239 C.3     1  UNL1        0.2087
     15 C          -9.7433  -16.8507   24.1977 C.3     1  UNL1        0.0445
     16 C         -10.6861  -16.5716   23.0649 C.3     1  UNL1        0.0210
     17 C         -11.6761  -17.6148   22.6388 C.3     1  UNL1        0.0722
     18 N         -11.7234  -18.9372   23.3454 N.3     1  UNL1       -0.2727
     19 C         -10.7806  -19.2162   24.4782 C.3     1  UNL1        0.0722
     20 C          -9.7905  -18.1730   24.9044 C.3     1  UNL1        0.0210
     21 C         -11.1635  -18.3966   23.6146 C.3     1  UNL1        0.0722
     22 C         -10.2683  -17.4534   24.0000 C.3     1  UNL1        0.0210
@<TRIPOS>BOND
     1     3     4    1
     2     4     5    2
     3     5     6    1
     4     6     7    2
     5     7     8    1
     6     8     9    2
     7     9     1    1
     8     1     2    2
     9     1    13    1
    10    13    14    1
    11    14    15    1
    12    15    16    1
    13    16    17    1
    14    17    18    1
    15    18    19    1
    16    19    20    1
    17    18    21    1
    18    21    22    1
    19     9    10    1
    20    10    11    2
    21    11    12    1
    22    12     4    1
    23    12     8    1
    24    20    15    1
    25    22    15    1
@<TRIPOS>MOLECULE
*****
 22 25 0 0 0
SMALL
GASTEIGER

@<TRIPOS>ATOM
      1 C          -9.4806  -18.8298   20.5172 C.2     1  UNL1        0.3425
      2 O         -10.5165  -19.9143   20.4904 O.2     1  UNL1       -0.2448
      3 C          -3.2121  -19.4108   22.0500 C.3     1  UNL1        0.0286
      4 C          -4.5459  -18.7499   22.2355 C.2     1  UNL1       -0.0179
      5 C          -4.7021  -17.6439   23.2366 C.2     1  UNL1       -0.0063
      6 C          -6.0359  -16.9831   23.4221 C.2     1  UNL1       -0.0008
      7 C          -7.2133  -17.4282   22.6064 C.2     1  UNL1       -0.0019
      8 C          -7.0571  -18.5341   21.6053 C.2     1  UNL1        0.0114
      9 C          -8.0300  -19.1816   20.6649 C.2     1  UNL1        0.0925
     10 C          -7.2975  -20.2427   19.8983 C.2     1  UNL1        0.1000
     11 N          -5.8720  -20.2509   20.3648 N.2     1  UNL1       -0.2621
     12 C          -5.7233  -19.1950   21.4198 C.3     1  UNL1        0.1441
     13 O          -9.8955  -17.3933   20.3962 O.3     1  UNL1       -0.4454
     14 C         -10.3639  -16.6434   21.6079 C.3     1  UNL1        0.2087
     15 C         -11.2125  -17.3328   22.6349 C.3     1  UNL1        0.0445
     16 C         -10.5675  -18.1486   23.7158 C.3     1  UNL1        0.0210
     17 C         -11.4162  -18.8379   24.7426 C.3     1  UNL1        0.0722
     18 N         -12.9099  -18.7115   24.6887 N.3     1  UNL1       -0.2727
     19 C         -13.5549  -17.8956   23.6078 C.3     1  UNL1        0.0722
     20 C         -12.7062  -17.2062   22.5808 C.3     1  UNL1        0.0210
     21 C         -12.4864  -18.3155   24.1040 C.3     1  UNL1        0.0722
     22 C         -11.7191  -17.6921   23.1754 C.3     1  UNL1        0.0210
@<TRIPOS>BOND
     1     3     4    1
     2     4     5    2
     3     5     6    1
     4     6     7    2
     5     7     8    1
     6     8     9    2
     7     9     1    1
     8     1     2    2
     9     1    13    1
    10    13    14    1
    11    14    15    1
    12    15    16    1
    13    16    17    1
    14    17    18    1
    15    18    19    1
    16    19    20    1
    17    18    21    1
    18    21    22    1
    19     9    10    1
    20    10    11    2
    21    11    12    1
    22    12     4    1
    23    12     8    1
    24    20    15    1
    25    22    15    1
