@<TRIPOS>MOLECULE
*****
 34 37 0 0 0
SMALL
GASTEIGER

@<TRIPOS>ATOM
      1 C          -8.9893  -19.4150   23.0811 C.2     1  UNL1        0.2661
      2 O          -9.7393  -20.7091   23.1944 O.2     1  UNL1       -0.2710
      3 N          -9.5632  -18.1613   23.6718 N.am    1  UNL1       -0.2714
      4 C         -10.8872  -18.2017   24.3757 C.3     1  UNL1        0.1153
      5 C          -2.4720  -18.7739   20.9922 C.ar    1  UNL1        0.0502
      6 C          -2.5745  -18.3349   22.4229 C.ar    1  UNL1        0.0178
      7 C          -3.8984  -18.3754   23.1268 C.ar    1  UNL1        0.0379
      8 C          -5.1199  -18.8548   22.4000 C.ar    1  UNL1        0.1351
      9 C          -5.0174  -19.2938   20.9694 C.ar    1  UNL1        0.0132
     10 C          -3.6934  -19.2533   20.2655 C.ar    1  UNL1        0.0134
     11 C          -6.2389  -19.7732   20.2426 C.3     1  UNL1        0.0337
     12 C          -7.5628  -19.8136   20.9465 C.3     1  UNL1        0.0579
     13 C          -7.6653  -19.3746   22.3772 C.3     1  UNL1        0.2415
     14 O          -6.4439  -18.8952   23.1039 O.3     1  UNL1       -0.4703
     15 C           0.9329  -17.4020   19.4841 C.3     1  UNL1        0.0949
     16 C          -0.3910  -17.4424   20.1880 C.2     1  UNL1        0.2266
     17 O          -0.9580  -16.1917   20.7917 O.2     1  UNL1       -0.2748
     18 N          -1.1480  -18.7335   20.2883 N.am    1  UNL1       -0.2839
     19 H          -0.7759  -19.5544   19.8922 H       1  UNL1        0.1549
     20 C          -8.8133  -16.8673   23.5585 C.3     1  UNL1        0.1139
     21 C          -8.0608  -16.3305   24.7401 C.ar    1  UNL1       -0.0029
     22 C          -8.6882  -16.3537   26.1023 C.ar    1  UNL1       -0.0026
     23 C          -7.9358  -15.8170   27.2837 C.ar    1  UNL1       -0.0003
     24 C          -6.5560  -15.2572   27.1029 C.ar    1  UNL1       -0.0000
     25 C          -5.9286  -15.2340   25.7406 C.ar    1  UNL1       -0.0003
     26 C          -6.6810  -15.7707   24.5592 C.ar    1  UNL1       -0.0026
     27 C          -8.8156  -16.1098   22.2638 C.3     1  UNL1        0.0968
     28 N          -9.9036  -16.3463   21.2586 N.3     1  UNL1       -0.2689
     29 C         -10.3553  -17.6816   20.7459 C.3     1  UNL1        0.0748
     30 C         -11.4617  -17.4495   19.7600 C.3     1  UNL1        0.0480
     31 C         -11.6939  -15.9707   19.6634 C.3     1  UNL1        0.1278
     32 O         -12.7105  -15.2927   18.7934 O.3     1  UNL1       -0.3830
     33 C         -10.7308  -15.2888   20.5896 C.3     1  UNL1        0.1017
     34 H         -12.6542  -14.3325   18.9185 H       1  UNL1        0.2104
@<TRIPOS>BOND
     1    15    16    1
     2    16    17    2
     3    16    18   am
     4    18     5    1
     5     5     6   ar
     6     6     7   ar
     7     7     8   ar
     8     8     9   ar
     9     9    10   ar
    10     9    11    1
    11    11    12    1
    12    12    13    1
    13    13     1    1
    14     1     2    2
    15     1     3   am
    16     3     4    1
    17     3    20    1
    18    20    27    1
    19    27    28    1
    20    28    29    1
    21    29    30    1
    22    30    31    1
    23    31    32    1
    24    31    33    1
    25    20    21    1
    26    21    22   ar
    27    22    23   ar
    28    23    24   ar
    29    24    25   ar
    30    25    26   ar
    31    13    14    1
    32    10     5   ar
    33    33    28    1
    34    26    21   ar
    35    14     8    1
    36    18    19    1
    37    32    34    1
@<TRIPOS>MOLECULE
*****
 34 37 0 0 0
SMALL
GASTEIGER

@<TRIPOS>ATOM
      1 C          -9.2000  -19.6632   23.6327 C.2     1  UNL1        0.2661
      2 O          -9.5604  -20.4442   24.8616 O.2     1  UNL1       -0.2710
      3 N         -10.2667  -18.9435   22.8618 N.am    1  UNL1       -0.2714
      4 C         -11.6937  -19.0050   23.3197 C.3     1  UNL1        0.1153
      5 C          -2.6660  -18.1970   22.0814 C.ar    1  UNL1        0.0502
      6 C          -3.2673  -17.0380   22.8196 C.ar    1  UNL1        0.0178
      7 C          -4.6943  -17.0994   23.2776 C.ar    1  UNL1        0.0379
      8 C          -5.5201  -18.3198   22.9972 C.ar    1  UNL1        0.1351
      9 C          -4.9188  -19.4788   22.2589 C.ar    1  UNL1        0.0132
     10 C          -3.4917  -19.4174   21.8010 C.ar    1  UNL1        0.0134
     11 C          -5.7445  -20.6994   21.9785 C.3     1  UNL1        0.0337
     12 C          -7.1716  -20.7608   22.4365 C.3     1  UNL1        0.0579
     13 C          -7.7729  -19.6017   23.1748 C.3     1  UNL1        0.2415
     14 O          -6.9472  -18.3813   23.4552 O.3     1  UNL1       -0.4703
     15 C           0.5097  -17.6246   19.7710 C.3     1  UNL1        0.0949
     16 C          -0.9174  -17.6860   20.2290 C.2     1  UNL1        0.2266
     17 O          -2.0230  -17.2980   19.2924 O.2     1  UNL1       -0.2748
     18 N          -1.2389  -18.1355   21.6234 N.am    1  UNL1       -0.2839
     19 H          -0.5133  -18.3902   22.2381 H       1  UNL1        0.1549
     20 C          -9.9063  -18.1625   21.6329 C.3     1  UNL1        0.1139
     21 C          -9.6271  -18.8781   20.3445 C.ar    1  UNL1       -0.0029
     22 C         -10.7601  -19.4393   19.5375 C.ar    1  UNL1       -0.0026
     23 C         -10.4808  -20.1548   18.2491 C.ar    1  UNL1       -0.0003
     24 C          -9.0685  -20.3091   17.7677 C.ar    1  UNL1       -0.0000
     25 C          -7.9356  -19.7479   18.5747 C.ar    1  UNL1       -0.0003
     26 C          -8.2148  -19.0324   19.8631 C.ar    1  UNL1       -0.0026
     27 C          -9.8251  -16.6659   21.6925 C.3     1  UNL1        0.0968
     28 N          -9.0497  -15.9999   22.7904 N.3     1  UNL1       -0.2689
     29 C          -7.8057  -15.1796   22.6189 C.3     1  UNL1        0.0748
     30 C          -7.3694  -14.7101   23.9750 C.3     1  UNL1        0.0480
     31 C          -8.3438  -15.2402   24.9848 C.3     1  UNL1        0.1278
     32 O          -8.2893  -15.0131   26.4664 O.3     1  UNL1       -0.3830
     33 C          -9.3824  -16.0374   24.2526 C.3     1  UNL1        0.1017
     34 H          -9.0360  -15.4643   26.8904 H       1  UNL1        0.2104
@<TRIPOS>BOND
     1    15    16    1
     2    16    17    2
     3    16    18   am
     4    18     5    1
     5     5     6   ar
     6     6     7   ar
     7     7     8   ar
     8     8     9   ar
     9     9    10   ar
    10     9    11    1
    11    11    12    1
    12    12    13    1
    13    13     1    1
    14     1     2    2
    15     1     3   am
    16     3     4    1
    17     3    20    1
    18    20    27    1
    19    27    28    1
    20    28    29    1
    21    29    30    1
    22    30    31    1
    23    31    32    1
    24    31    33    1
    25    20    21    1
    26    21    22   ar
    27    22    23   ar
    28    23    24   ar
    29    24    25   ar
    30    25    26   ar
    31    13    14    1
    32    10     5   ar
    33    33    28    1
    34    26    21   ar
    35    14     8    1
    36    18    19    1
    37    32    34    1
@<TRIPOS>MOLECULE
*****
 34 37 0 0 0
SMALL
GASTEIGER

@<TRIPOS>ATOM
      1 C           5.1034   -3.2108   21.4615 C.2     1  UNL1        0.2661
      2 O           4.6936   -4.6534   21.4298 O.2     1  UNL1       -0.2710
      3 N           6.5416   -2.8351   21.2601 N.am    1  UNL1       -0.2714
      4 C           7.5699   -3.9019   21.0271 C.3     1  UNL1        0.1153
      5 C           0.1142    1.5135   21.2646 C.ar    1  UNL1        0.0502
      6 C           0.2668    0.9036   19.9027 C.ar    1  UNL1        0.0178
      7 C           1.2952   -0.1633   19.6698 C.ar    1  UNL1        0.0379
      8 C           2.1709   -0.6202   20.7986 C.ar    1  UNL1        0.1351
      9 C           2.0183   -0.0102   22.1604 C.ar    1  UNL1        0.0132
     10 C           0.9899    1.0566   22.3934 C.ar    1  UNL1        0.0134
     11 C           2.8940   -0.4671   23.2893 C.3     1  UNL1        0.0337
     12 C           3.9224   -1.5340   23.0564 C.3     1  UNL1        0.0579
     13 C           4.0750   -2.1440   21.6944 C.3     1  UNL1        0.2415
     14 O           3.1993   -1.6871   20.5656 O.3     1  UNL1       -0.4703
     15 C          -1.6494    5.0677   21.3481 C.3     1  UNL1        0.0949
     16 C          -0.6211    4.0009   21.1151 C.2     1  UNL1        0.2266
     17 O           0.7004    4.3546   20.4997 O.2     1  UNL1       -0.2748
     18 N          -0.9142    2.5804   21.4975 N.am    1  UNL1       -0.2839
     19 H          -1.7815    2.3483   21.9014 H       1  UNL1        0.1549
     20 C           6.9513   -1.3925   21.2917 C.3     1  UNL1        0.1139
     21 C           7.1075   -0.6858   22.6056 C.ar    1  UNL1       -0.0029
     22 C           6.7595    0.7687   22.7209 C.ar    1  UNL1       -0.0026
     23 C           6.9157    1.4754   24.0348 C.ar    1  UNL1       -0.0003
     24 C           7.4198    0.7275   25.2333 C.ar    1  UNL1       -0.0000
     25 C           7.7677   -0.7270   25.1181 C.ar    1  UNL1       -0.0003
     26 C           7.6116   -1.4336   23.8042 C.ar    1  UNL1       -0.0026
     27 C           7.2050   -0.6566   20.0095 C.3     1  UNL1        0.0968
     28 N           6.0794   -0.4160   19.0475 N.3     1  UNL1       -0.2689
     29 C           5.2474    0.8288   18.9574 C.3     1  UNL1        0.0748
     30 C           4.2421    0.6360   17.8610 C.3     1  UNL1        0.0480
     31 C           4.4528   -0.7280   17.2734 C.3     1  UNL1        0.1278
     32 O           3.6661   -1.3352   16.1498 O.3     1  UNL1       -0.3830
     33 C           5.5884   -1.3782   18.0068 C.3     1  UNL1        0.1017
     34 H           4.0038   -2.2250   15.9626 H       1  UNL1        0.2104
@<TRIPOS>BOND
     1    15    16    1
     2    16    17    2
     3    16    18   am
     4    18     5    1
     5     5     6   ar
     6     6     7   ar
     7     7     8   ar
     8     8     9   ar
     9     9    10   ar
    10     9    11    1
    11    11    12    1
    12    12    13    1
    13    13     1    1
    14     1     2    2
    15     1     3   am
    16     3     4    1
    17     3    20    1
    18    20    27    1
    19    27    28    1
    20    28    29    1
    21    29    30    1
    22    30    31    1
    23    31    32    1
    24    31    33    1
    25    20    21    1
    26    21    22   ar
    27    22    23   ar
    28    23    24   ar
    29    24    25   ar
    30    25    26   ar
    31    13    14    1
    32    10     5   ar
    33    33    28    1
    34    26    21   ar
    35    14     8    1
    36    18    19    1
    37    32    34    1
@<TRIPOS>MOLECULE
*****
 34 37 0 0 0
SMALL
GASTEIGER

@<TRIPOS>ATOM
      1 C           6.4424    0.0350   18.0307 C.2     1  UNL1        0.2661
      2 O           7.3002    0.5162   16.8982 O.2     1  UNL1       -0.2710
      3 N           7.0152   -0.8870   19.0661 N.am    1  UNL1       -0.2714
      4 C           8.4457   -1.3277   18.9690 C.3     1  UNL1        0.1153
      5 C           0.3941    3.1943   18.8589 C.ar    1  UNL1        0.0502
      6 C           1.4982    4.1501   19.2013 C.ar    1  UNL1        0.0178
      7 C           2.9287    3.7094   19.1041 C.ar    1  UNL1        0.0379
      8 C           3.2551    2.3129   18.6646 C.ar    1  UNL1        0.1351
      9 C           2.1509    1.3571   18.3222 C.ar    1  UNL1        0.0132
     10 C           0.7204    1.7978   18.4194 C.ar    1  UNL1        0.0134
     11 C           2.4772   -0.0395   17.8827 C.3     1  UNL1        0.0337
     12 C           3.9077   -0.4802   17.7855 C.3     1  UNL1        0.0579
     13 C           5.0119    0.4757   18.1279 C.3     1  UNL1        0.2415
     14 O           4.6856    1.8722   18.5674 O.3     1  UNL1       -0.4703
     15 C          -3.2834    3.7125   20.2580 C.3     1  UNL1        0.0949
     16 C          -1.8529    3.2718   20.1608 C.2     1  UNL1        0.2266
     17 O          -1.2389    2.4679   21.2685 O.2     1  UNL1       -0.2748
     18 N          -1.0364    3.6350   18.9561 N.am    1  UNL1       -0.2839
     19 H          -1.4394    4.1626   18.2292 H       1  UNL1        0.1549
     20 C           6.1574   -1.3682   20.1987 C.3     1  UNL1        0.1139
     21 C           5.3719   -2.6383   20.0574 C.ar    1  UNL1       -0.0029
     22 C           4.6470   -3.2074   21.2409 C.ar    1  UNL1       -0.0026
     23 C           3.8615   -4.4774   21.0996 C.ar    1  UNL1       -0.0003
     24 C           3.8009   -5.1784   19.7749 C.ar    1  UNL1       -0.0000
     25 C           4.5258   -4.6093   18.5914 C.ar    1  UNL1       -0.0003
     26 C           5.3113   -3.3393   18.7327 C.ar    1  UNL1       -0.0026
     27 C           6.0851   -0.5794   21.4724 C.3     1  UNL1        0.0968
     28 N           4.9110    0.3168   21.7340 N.3     1  UNL1       -0.2689
     29 C           4.9757    1.7422   22.1967 C.3     1  UNL1        0.0748
     30 C           3.5708    2.2513   22.3274 C.3     1  UNL1        0.0480
     31 C           2.6378    1.1405   21.9455 C.3     1  UNL1        0.1278
     32 O           1.1396    1.2127   21.9326 O.3     1  UNL1       -0.3830
     33 C           3.4662   -0.0551   21.5787 C.3     1  UNL1        0.1017
     34 H           0.7772    0.3592   21.6476 H       1  UNL1        0.2104
@<TRIPOS>BOND
     1    15    16    1
     2    16    17    2
     3    16    18   am
     4    18     5    1
     5     5     6   ar
     6     6     7   ar
     7     7     8   ar
     8     8     9   ar
     9     9    10   ar
    10     9    11    1
    11    11    12    1
    12    12    13    1
    13    13     1    1
    14     1     2    2
    15     1     3   am
    16     3     4    1
    17     3    20    1
    18    20    27    1
    19    27    28    1
    20    28    29    1
    21    29    30    1
    22    30    31    1
    23    31    32    1
    24    31    33    1
    25    20    21    1
    26    21    22   ar
    27    22    23   ar
    28    23    24   ar
    29    24    25   ar
    30    25    26   ar
    31    13    14    1
    32    10     5   ar
    33    33    28    1
    34    26    21   ar
    35    14     8    1
    36    18    19    1
    37    32    34    1
@<TRIPOS>MOLECULE
*****
 34 37 0 0 0
SMALL
GASTEIGER

@<TRIPOS>ATOM
      1 C           6.2916    0.7305   19.9821 C.2     1  UNL1        0.2661
      2 O           7.6762    1.1371   20.3914 O.2     1  UNL1       -0.2710
      3 N           5.9707    0.5157   18.5326 N.am    1  UNL1       -0.2714
      4 C           7.0343    0.7075   17.4925 C.3     1  UNL1        0.1153
      5 C           1.0958    1.0849   24.4685 C.ar    1  UNL1        0.0502
      6 C           1.2183    2.3982   23.7543 C.ar    1  UNL1        0.0178
      7 C           2.2820    2.5900   22.7142 C.ar    1  UNL1        0.0379
      8 C           3.2231    1.4685   22.3883 C.ar    1  UNL1        0.1351
      9 C           3.1007    0.1551   23.1025 C.ar    1  UNL1        0.0132
     10 C           2.0370   -0.0367   24.1426 C.ar    1  UNL1        0.0134
     11 C           4.0419   -0.9665   22.7765 C.3     1  UNL1        0.0337
     12 C           5.1055   -0.7747   21.7364 C.3     1  UNL1        0.0579
     13 C           5.2280    0.5387   21.0222 C.3     1  UNL1        0.2415
     14 O           4.2868    1.6602   21.3482 O.3     1  UNL1       -0.4703
     15 C          -0.7599    1.0721   27.9765 C.3     1  UNL1        0.0949
     16 C           0.3038    1.2639   26.9364 C.2     1  UNL1        0.2266
     17 O           1.6392    1.8266   27.3242 O.2     1  UNL1       -0.2748
     18 N           0.0321    0.8931   25.5086 N.am    1  UNL1       -0.2839
     19 H          -0.8443    0.5238   25.2541 H       1  UNL1        0.1549
     20 C           4.5861    0.1091   18.1233 C.3     1  UNL1        0.1139
     21 C           3.4493    1.0786   18.2573 C.ar    1  UNL1       -0.0029
     22 C           3.7076    2.5537   18.1724 C.ar    1  UNL1       -0.0026
     23 C           2.5708    3.5231   18.3064 C.ar    1  UNL1       -0.0003
     24 C           1.1757    3.0173   18.5253 C.ar    1  UNL1       -0.0000
     25 C           0.9174    1.5422   18.6102 C.ar    1  UNL1       -0.0003
     26 C           2.0541    0.5729   18.4762 C.ar    1  UNL1       -0.0026
     27 C           4.3382   -1.2669   17.5801 C.3     1  UNL1        0.0968
     28 N           4.5766   -2.4689   18.4451 N.3     1  UNL1       -0.2689
     29 C           5.9113   -2.9656   18.9160 C.3     1  UNL1        0.0748
     30 C           5.6817   -4.1890   19.7530 C.3     1  UNL1        0.0480
     31 C           4.2050   -4.4484   19.7995 C.3     1  UNL1        0.1278
     32 O           3.5299   -5.5733   20.5266 O.3     1  UNL1       -0.3830
     33 C           3.5220   -3.3853   18.9911 C.3     1  UNL1        0.1017
     34 H           2.5706   -5.5130   20.3963 H       1  UNL1        0.2104
@<TRIPOS>BOND
     1    15    16    1
     2    16    17    2
     3    16    18   am
     4    18     5    1
     5     5     6   ar
     6     6     7   ar
     7     7     8   ar
     8     8     9   ar
     9     9    10   ar
    10     9    11    1
    11    11    12    1
    12    12    13    1
    13    13     1    1
    14     1     2    2
    15     1     3   am
    16     3     4    1
    17     3    20    1
    18    20    27    1
    19    27    28    1
    20    28    29    1
    21    29    30    1
    22    30    31    1
    23    31    32    1
    24    31    33    1
    25    20    21    1
    26    21    22   ar
    27    22    23   ar
    28    23    24   ar
    29    24    25   ar
    30    25    26   ar
    31    13    14    1
    32    10     5   ar
    33    33    28    1
    34    26    21   ar
    35    14     8    1
    36    18    19    1
    37    32    34    1
@<TRIPOS>MOLECULE
*****
 34 37 0 0 0
SMALL
GASTEIGER

@<TRIPOS>ATOM
      1 C           4.5974   -3.7569   20.4465 C.2     1  UNL1        0.2661
      2 O           3.8649   -5.0041   20.0491 O.2     1  UNL1       -0.2710
      3 N           4.8673   -2.6890   19.4283 N.am    1  UNL1       -0.2714
      4 C           4.4048   -2.8683   18.0127 C.3     1  UNL1        0.1153
      5 C           7.6604   -3.7731   26.6002 C.ar    1  UNL1        0.0502
      6 C           8.4105   -4.6858   25.6760 C.ar    1  UNL1        0.0178
      7 C           7.9479   -4.8651   24.2604 C.ar    1  UNL1        0.0379
      8 C           6.7353   -4.1317   23.7690 C.ar    1  UNL1        0.1351
      9 C           5.9851   -3.2190   24.6933 C.ar    1  UNL1        0.0132
     10 C           6.4477   -3.0397   26.1088 C.ar    1  UNL1        0.0134
     11 C           4.7724   -2.4856   24.2019 C.3     1  UNL1        0.0337
     12 C           4.3098   -2.6649   22.7864 C.3     1  UNL1        0.0579
     13 C           5.0600   -3.5776   21.8621 C.3     1  UNL1        0.2415
     14 O           6.2727   -4.3110   22.3535 O.3     1  UNL1       -0.4703
     15 C           7.9007   -4.1523   30.5433 C.3     1  UNL1        0.0949
     16 C           7.4381   -4.3316   29.1278 C.2     1  UNL1        0.2266
     17 O           6.2905   -5.2487   28.8242 O.2     1  UNL1       -0.2748
     18 N           8.1230   -3.5938   28.0158 N.am    1  UNL1       -0.2839
     19 H           8.8761   -2.9919   28.2150 H       1  UNL1        0.1549
     20 C           5.5998   -1.4418   19.8257 C.3     1  UNL1        0.1139
     21 C           6.9118   -1.5399   20.5462 C.ar    1  UNL1       -0.0029
     22 C           7.9963   -2.4278   20.0120 C.ar    1  UNL1       -0.0026
     23 C           9.3083   -2.5258   20.7325 C.ar    1  UNL1       -0.0003
     24 C           9.5357   -1.7360   21.9872 C.ar    1  UNL1       -0.0000
     25 C           8.4512   -0.8481   22.5215 C.ar    1  UNL1       -0.0003
     26 C           7.1393   -0.7500   21.8010 C.ar    1  UNL1       -0.0026
     27 C           5.0204   -0.0965   19.5026 C.3     1  UNL1        0.0968
     28 N           3.5358    0.0666   19.3624 N.3     1  UNL1       -0.2689
     29 C           2.8213    0.6581   18.1836 C.3     1  UNL1        0.0748
     30 C           1.3491    0.6239   18.4690 C.3     1  UNL1        0.0480
     31 C           1.1537    0.0112   19.8242 C.3     1  UNL1        0.1278
     32 O          -0.1621   -0.2169   20.5073 O.3     1  UNL1       -0.3830
     33 C           2.5053   -0.3332   20.3764 C.3     1  UNL1        0.1017
     34 H          -0.0101   -0.6267   21.3732 H       1  UNL1        0.2104
@<TRIPOS>BOND
     1    15    16    1
     2    16    17    2
     3    16    18   am
     4    18     5    1
     5     5     6   ar
     6     6     7   ar
     7     7     8   ar
     8     8     9   ar
     9     9    10   ar
    10     9    11    1
    11    11    12    1
    12    12    13    1
    13    13     1    1
    14     1     2    2
    15     1     3   am
    16     3     4    1
    17     3    20    1
    18    20    27    1
    19    27    28    1
    20    28    29    1
    21    29    30    1
    22    30    31    1
    23    31    32    1
    24    31    33    1
    25    20    21    1
    26    21    22   ar
    27    22    23   ar
    28    23    24   ar
    29    24    25   ar
    30    25    26   ar
    31    13    14    1
    32    10     5   ar
    33    33    28    1
    34    26    21   ar
    35    14     8    1
    36    18    19    1
    37    32    34    1
@<TRIPOS>MOLECULE
*****
 34 37 0 0 0
SMALL
GASTEIGER

@<TRIPOS>ATOM
      1 C           6.2905    0.6534   20.0105 C.2     1  UNL1        0.2661
      2 O           7.0870    1.8227   19.5122 O.2     1  UNL1       -0.2710
      3 N           6.0051   -0.5030   19.0986 N.am    1  UNL1       -0.2714
      4 C           6.5161   -0.4899   17.6884 C.3     1  UNL1        0.1153
      5 C           2.7806    0.7714   25.9195 C.ar    1  UNL1        0.0502
      6 C           1.8257    0.9548   24.7774 C.ar    1  UNL1        0.0178
      7 C           2.3367    0.9679   23.3672 C.ar    1  UNL1        0.0379
      8 C           3.8026    0.7975   23.0991 C.ar    1  UNL1        0.1351
      9 C           4.7576    0.6142   24.2412 C.ar    1  UNL1        0.0132
     10 C           4.2466    0.6011   25.6514 C.ar    1  UNL1        0.0134
     11 C           6.2236    0.4439   23.9731 C.3     1  UNL1        0.0337
     12 C           6.7346    0.4569   22.5628 C.3     1  UNL1        0.0579
     13 C           5.7796    0.6403   21.4207 C.3     1  UNL1        0.2415
     14 O           4.3136    0.8106   21.6889 O.3     1  UNL1       -0.4703
     15 C           1.9488   -0.4721   29.5954 C.3     1  UNL1        0.0949
     16 C           2.4598   -0.4590   28.1851 C.2     1  UNL1        0.2266
     17 O           3.1611   -1.6634   27.6303 O.2     1  UNL1       -0.2748
     18 N           2.2696    0.7584   27.3297 N.am    1  UNL1       -0.2839
     19 H           1.8094    1.5488   27.6939 H       1  UNL1        0.1549
     20 C           5.2087   -1.6723   19.5970 C.3     1  UNL1        0.1139
     21 C           5.7585   -2.5445   20.6865 C.ar    1  UNL1       -0.0029
     22 C           4.9338   -2.8303   21.9064 C.ar    1  UNL1       -0.0026
     23 C           5.4836   -3.7025   22.9958 C.ar    1  UNL1       -0.0003
     24 C           6.8581   -4.2889   22.8654 C.ar    1  UNL1       -0.0000
     25 C           7.6827   -4.0031   21.6455 C.ar    1  UNL1       -0.0003
     26 C           7.1329   -3.1309   20.5561 C.ar    1  UNL1       -0.0026
     27 C           3.8625   -1.9694   19.0058 C.3     1  UNL1        0.0968
     28 N           2.7663   -0.9486   19.0859 N.3     1  UNL1       -0.2689
     29 C           2.5773    0.2166   18.1605 C.3     1  UNL1        0.0748
     30 C           1.3609    0.9716   18.6081 C.3     1  UNL1        0.0480
     31 C           0.7981    0.2729   19.8103 C.3     1  UNL1        0.1278
     32 O          -0.4195    0.6881   20.5817 O.3     1  UNL1       -0.3830
     33 C           1.6667   -0.9139   20.1056 C.3     1  UNL1        0.1017
     34 H          -0.5668    0.0671   21.3122 H       1  UNL1        0.2104
@<TRIPOS>BOND
     1    15    16    1
     2    16    17    2
     3    16    18   am
     4    18     5    1
     5     5     6   ar
     6     6     7   ar
     7     7     8   ar
     8     8     9   ar
     9     9    10   ar
    10     9    11    1
    11    11    12    1
    12    12    13    1
    13    13     1    1
    14     1     2    2
    15     1     3   am
    16     3     4    1
    17     3    20    1
    18    20    27    1
    19    27    28    1
    20    28    29    1
    21    29    30    1
    22    30    31    1
    23    31    32    1
    24    31    33    1
    25    20    21    1
    26    21    22   ar
    27    22    23   ar
    28    23    24   ar
    29    24    25   ar
    30    25    26   ar
    31    13    14    1
    32    10     5   ar
    33    33    28    1
    34    26    21   ar
    35    14     8    1
    36    18    19    1
    37    32    34    1
@<TRIPOS>MOLECULE
*****
 34 37 0 0 0
SMALL
GASTEIGER

@<TRIPOS>ATOM
      1 C           5.5084    1.5781   19.8480 C.2     1  UNL1        0.2661
      2 O           6.5325    2.6660   19.9805 O.2     1  UNL1       -0.2710
      3 N           5.3888    0.8129   18.5634 N.am    1  UNL1       -0.2714
      4 C           6.2935    1.1356   17.4113 C.3     1  UNL1        0.1153
      5 C           0.7855    1.2311   24.8304 C.ar    1  UNL1        0.0502
      6 C           0.5859    2.4976   24.0520 C.ar    1  UNL1        0.0178
      7 C           1.4906    2.8204   22.8999 C.ar    1  UNL1        0.0379
      8 C           2.5948    1.8765   22.5261 C.ar    1  UNL1        0.1351
      9 C           2.7944    0.6099   23.3045 C.ar    1  UNL1        0.0132
     10 C           1.8897    0.2872   24.4566 C.ar    1  UNL1        0.0134
     11 C           3.8986   -0.3340   22.9307 C.3     1  UNL1        0.0337
     12 C           4.8033   -0.0113   21.7786 C.3     1  UNL1        0.0579
     13 C           4.6037    1.2554   21.0002 C.3     1  UNL1        0.2415
     14 O           3.4995    2.1992   21.3740 O.3     1  UNL1       -0.4703
     15 C          -0.5903    0.8922   28.5375 C.3     1  UNL1        0.0949
     16 C           0.3144    1.2150   27.3853 C.2     1  UNL1        0.2266
     17 O           1.6527    1.8444   27.6361 O.2     1  UNL1       -0.2748
     18 N          -0.1192    0.9083   25.9825 N.am    1  UNL1       -0.2839
     19 H          -0.9976    0.4953   25.8180 H       1  UNL1        0.1549
     20 C           4.3647   -0.2750   18.4310 C.3     1  UNL1        0.1139
     21 C           4.6955   -1.6731   18.8624 C.ar    1  UNL1       -0.0029
     22 C           3.6267   -2.7254   18.8794 C.ar    1  UNL1       -0.0026
     23 C           3.9575   -4.1233   19.3109 C.ar    1  UNL1       -0.0003
     24 C           5.3570   -4.4690   19.7253 C.ar    1  UNL1       -0.0000
     25 C           6.4258   -3.4167   19.7083 C.ar    1  UNL1       -0.0003
     26 C           6.0950   -2.0187   19.2768 C.ar    1  UNL1       -0.0026
     27 C           3.0097    0.0351   17.8671 C.3     1  UNL1        0.0968
     28 N           1.8785    0.3905   18.7858 N.3     1  UNL1       -0.2689
     29 C           1.3302   -0.4717   19.8839 C.3     1  UNL1        0.0748
     30 C           0.2098    0.2754   20.5444 C.3     1  UNL1        0.0480
     31 C           0.0655    1.5996   19.8544 C.3     1  UNL1        0.1278
     32 O          -0.9345    2.6654   20.1921 O.3     1  UNL1       -0.3830
     33 C           1.0969    1.6707   18.7675 C.3     1  UNL1        0.1017
     34 H          -0.8158    3.4209   19.5954 H       1  UNL1        0.2104
@<TRIPOS>BOND
     1    15    16    1
     2    16    17    2
     3    16    18   am
     4    18     5    1
     5     5     6   ar
     6     6     7   ar
     7     7     8   ar
     8     8     9   ar
     9     9    10   ar
    10     9    11    1
    11    11    12    1
    12    12    13    1
    13    13     1    1
    14     1     2    2
    15     1     3   am
    16     3     4    1
    17     3    20    1
    18    20    27    1
    19    27    28    1
    20    28    29    1
    21    29    30    1
    22    30    31    1
    23    31    32    1
    24    31    33    1
    25    20    21    1
    26    21    22   ar
    27    22    23   ar
    28    23    24   ar
    29    24    25   ar
    30    25    26   ar
    31    13    14    1
    32    10     5   ar
    33    33    28    1
    34    26    21   ar
    35    14     8    1
    36    18    19    1
    37    32    34    1
@<TRIPOS>MOLECULE
*****
 34 37 0 0 0
SMALL
GASTEIGER

@<TRIPOS>ATOM
      1 C           6.0877    0.2842   22.2488 C.2     1  UNL1        0.2661
      2 O           7.1582    0.6507   23.2335 O.2     1  UNL1       -0.2710
      3 N           6.4324   -0.5225   21.0320 N.am    1  UNL1       -0.2714
      4 C           7.8475   -0.9626   20.8000 C.3     1  UNL1        0.1153
      5 C          -0.0429    3.3672   22.6487 C.ar    1  UNL1        0.0502
      6 C           0.9020    4.2500   21.8885 C.ar    1  UNL1        0.0178
      7 C           2.3171    3.8099   21.6565 C.ar    1  UNL1        0.0379
      8 C           2.7873    2.4871   22.1847 C.ar    1  UNL1        0.1351
      9 C           1.8424    1.6043   22.9448 C.ar    1  UNL1        0.0132
     10 C           0.4273    2.0444   23.1768 C.ar    1  UNL1        0.0134
     11 C           2.3126    0.2814   23.4730 C.3     1  UNL1        0.0337
     12 C           3.7277   -0.1586   23.2410 C.3     1  UNL1        0.0579
     13 C           4.6726    0.7242   22.4808 C.3     1  UNL1        0.2415
     14 O           4.2024    2.0470   21.9527 O.3     1  UNL1       -0.4703
     15 C          -3.9467    3.8660   22.1369 C.3     1  UNL1        0.0949
     16 C          -2.5316    3.4260   21.9049 C.2     1  UNL1        0.2266
     17 O          -2.1900    2.6046   20.6971 O.2     1  UNL1       -0.2748
     18 N          -1.4580    3.8072   22.8807 N.am    1  UNL1       -0.2839
     19 H          -1.6822    4.3463   23.6734 H       1  UNL1        0.1549
     20 C           5.3620   -0.8891   20.0472 C.3     1  UNL1        0.1139
     21 C           4.8226   -2.2884   20.0120 C.ar    1  UNL1       -0.0029
     22 C           4.5761   -2.9642   18.6957 C.ar    1  UNL1       -0.0026
     23 C           4.0368   -4.3634   18.6605 C.ar    1  UNL1       -0.0003
     24 C           3.7439   -5.0868   19.9415 C.ar    1  UNL1       -0.0000
     25 C           3.9903   -4.4109   21.2577 C.ar    1  UNL1       -0.0003
     26 C           4.5296   -3.0117   21.2930 C.ar    1  UNL1       -0.0026
     27 C           4.8308    0.1436   19.0977 C.3     1  UNL1        0.0968
     28 N           3.3816    0.5281   19.1417 N.3     1  UNL1       -0.2689
     29 C           2.7722    1.7434   18.5081 C.3     1  UNL1        0.0748
     30 C           1.3013    1.7312   18.8018 C.3     1  UNL1        0.0480
     31 C           1.0016    0.5082   19.6171 C.3     1  UNL1        0.1278
     32 O          -0.3470    0.1004   20.1318 O.3     1  UNL1       -0.3830
     33 C           2.2874   -0.2354   19.8271 C.3     1  UNL1        0.1017
     34 H          -0.2662   -0.7285   20.6291 H       1  UNL1        0.2104
@<TRIPOS>BOND
     1    15    16    1
     2    16    17    2
     3    16    18   am
     4    18     5    1
     5     5     6   ar
     6     6     7   ar
     7     7     8   ar
     8     8     9   ar
     9     9    10   ar
    10     9    11    1
    11    11    12    1
    12    12    13    1
    13    13     1    1
    14     1     2    2
    15     1     3   am
    16     3     4    1
    17     3    20    1
    18    20    27    1
    19    27    28    1
    20    28    29    1
    21    29    30    1
    22    30    31    1
    23    31    32    1
    24    31    33    1
    25    20    21    1
    26    21    22   ar
    27    22    23   ar
    28    23    24   ar
    29    24    25   ar
    30    25    26   ar
    31    13    14    1
    32    10     5   ar
    33    33    28    1
    34    26    21   ar
    35    14     8    1
    36    18    19    1
    37    32    34    1
