@<TRIPOS>MOLECULE
*****
 24 26 0 0 0
SMALL
GASTEIGER

@<TRIPOS>ATOM
      1 C          -4.4692  -19.8753   20.9284 C.3     1  UNL1        0.0838
      2 C          -5.3712  -20.0405   19.7414 C.3     1  UNL1        0.0437
      3 C          -6.7766  -19.7596   20.1843 C.ar    1  UNL1       -0.0247
      4 C          -8.0823  -19.7686   19.4462 C.ar    1  UNL1       -0.0045
      5 C          -9.3546  -19.4387   20.1689 C.ar    1  UNL1       -0.0003
      6 C          -9.3212  -19.0997   21.6297 C.ar    1  UNL1        0.0012
      7 C          -8.0154  -19.0907   22.3678 C.ar    1  UNL1       -0.0045
      8 C          -6.7431  -19.4207   21.6451 C.ar    1  UNL1       -0.0247
      9 C          -5.3171  -19.4922   22.1050 C.3     1  UNL1        0.0437
     10 C         -10.5936  -18.7698   22.3524 C.ar    1  UNL1        0.0193
     11 C         -11.7331  -18.1341   21.6126 C.ar    1  UNL1        0.0055
     12 C         -13.0055  -17.8042   22.3353 C.ar    1  UNL1        0.0497
     13 C         -13.1383  -18.1100   23.7978 C.ar    1  UNL1        0.2223
     14 F         -14.4106  -17.7801   24.5205 F       1  UNL1       -0.1832
     15 N         -11.9987  -18.7457   24.5376 N.ar    1  UNL1       -0.2165
     16 C         -10.7264  -19.0756   23.8149 C.ar    1  UNL1        0.1012
     17 N          -2.9808  -20.0606   20.9373 N.3     1  UNL1       -0.1841
     18 H          -2.7445  -20.5033   21.8253 H       1  UNL1        0.1484
     19 S          -2.0763  -18.8729   20.7914 S.O2    1  UNL1        0.0390
     20 O          -2.4495  -18.7667   19.3425 O.2     1  UNL1       -0.1576
     21 O          -1.7030  -18.9792   22.2403 O.2     1  UNL1       -0.1576
     22 C           0.1177  -17.8129   19.8897 C.3     1  UNL1        0.0270
     23 C          -1.1717  -17.6852   20.6454 C.3     1  UNL1        0.1457
     24 C          -1.5566  -16.3699   21.2552 C.3     1  UNL1        0.0270
@<TRIPOS>BOND
     1    22    23    1
     2    23    24    1
     3    23    19    1
     4    19    20    2
     5    19    21    2
     6    19    17    1
     7    17     1    1
     8     1     2    1
     9     2     3    1
    10     3     4   ar
    11     4     5   ar
    12     5     6   ar
    13     6    10    1
    14    10    11   ar
    15    11    12   ar
    16    12    13   ar
    17    13    14    1
    18    13    15   ar
    19    15    16   ar
    20     6     7   ar
    21     7     8   ar
    22     8     9    1
    23     9     1    1
    24     8     3   ar
    25    16    10   ar
    26    17    18    1
@<TRIPOS>MOLECULE
*****
 24 26 0 0 0
SMALL
GASTEIGER

@<TRIPOS>ATOM
      1 C          -9.0487  -18.4067   23.6380 C.3     1  UNL1        0.0838
      2 C          -8.8972  -19.6631   22.8327 C.3     1  UNL1        0.0437
      3 C          -7.5434  -19.6396   22.1871 C.ar    1  UNL1       -0.0247
      4 C          -6.8462  -20.6113   21.2818 C.ar    1  UNL1       -0.0045
      5 C          -5.4636  -20.3120   20.7829 C.ar    1  UNL1       -0.0003
      6 C          -4.7784  -19.0411   21.1893 C.ar    1  UNL1        0.0012
      7 C          -5.4756  -18.0694   22.0946 C.ar    1  UNL1       -0.0045
      8 C          -6.8582  -18.3687   22.5935 C.ar    1  UNL1       -0.0247
      9 C          -7.7885  -17.6067   23.4902 C.3     1  UNL1        0.0437
     10 C          -3.3957  -18.7419   20.6903 C.ar    1  UNL1        0.0193
     11 C          -3.1909  -18.2877   19.2755 C.ar    1  UNL1        0.0055
     12 C          -1.8083  -17.9885   18.7765 C.ar    1  UNL1        0.0497
     13 C          -0.6306  -18.1434   19.6924 C.ar    1  UNL1        0.2223
     14 F           0.7520  -17.8442   19.1935 F       1  UNL1       -0.1832
     15 N          -0.8354  -18.5976   21.1073 N.ar    1  UNL1       -0.2165
     16 C          -2.2180  -18.8968   21.6062 C.ar    1  UNL1        0.1012
     17 N         -10.2495  -18.0185   24.4487 N.3     1  UNL1       -0.1841
     18 H         -10.3147  -18.6865   25.2168 H       1  UNL1        0.1484
     19 S         -11.6034  -17.9649   23.8054 S.O2    1  UNL1        0.0390
     20 O         -11.1378  -16.8485   22.9184 O.2     1  UNL1       -0.1576
     21 O         -12.0691  -19.0813   24.6923 O.2     1  UNL1       -0.1576
     22 C         -14.1929  -18.0432   24.0022 C.3     1  UNL1        0.0270
     23 C         -12.9574  -17.9113   23.1619 C.3     1  UNL1        0.1457
     24 C         -13.0758  -17.7256   21.6782 C.3     1  UNL1        0.0270
@<TRIPOS>BOND
     1    22    23    1
     2    23    24    1
     3    23    19    1
     4    19    20    2
     5    19    21    2
     6    19    17    1
     7    17     1    1
     8     1     2    1
     9     2     3    1
    10     3     4   ar
    11     4     5   ar
    12     5     6   ar
    13     6    10    1
    14    10    11   ar
    15    11    12   ar
    16    12    13   ar
    17    13    14    1
    18    13    15   ar
    19    15    16   ar
    20     6     7   ar
    21     7     8   ar
    22     8     9    1
    23     9     1    1
    24     8     3   ar
    25    16    10   ar
    26    17    18    1
@<TRIPOS>MOLECULE
*****
 24 26 0 0 0
SMALL
GASTEIGER

@<TRIPOS>ATOM
      1 C          -9.9167  -19.3418   20.2759 C.3     1  UNL1        0.0838
      2 C          -9.2835  -20.6729   19.9985 C.3     1  UNL1        0.0437
      3 C          -7.7948  -20.4888   20.0064 C.ar    1  UNL1       -0.0247
      4 C          -6.6634  -21.4503   19.7930 C.ar    1  UNL1       -0.0045
      5 C          -5.2452  -20.9667   19.8618 C.ar    1  UNL1       -0.0003
      6 C          -4.9584  -19.5217   20.1441 C.ar    1  UNL1        0.0012
      7 C          -6.0898  -18.5602   20.3575 C.ar    1  UNL1       -0.0045
      8 C          -7.5080  -19.0438   20.2887 C.ar    1  UNL1       -0.0247
      9 C          -8.8194  -18.3349   20.4553 C.3     1  UNL1        0.0437
     10 C          -3.5401  -19.0381   20.2130 C.ar    1  UNL1        0.0193
     11 C          -2.9782  -18.2015   19.1021 C.ar    1  UNL1        0.0055
     12 C          -1.5599  -17.7179   19.1709 C.ar    1  UNL1        0.0497
     13 C          -0.7036  -18.0710   20.3508 C.ar    1  UNL1        0.2223
     14 F           0.7147  -17.5875   20.4197 F       1  UNL1       -0.1832
     15 N          -1.2655  -18.9078   21.4617 N.ar    1  UNL1       -0.2165
     16 C          -2.6838  -19.3913   21.3928 C.ar    1  UNL1        0.1012
     17 N         -11.3887  -19.0659   20.3594 N.3     1  UNL1       -0.1841
     18 H         -11.6562  -18.6256   19.4790 H       1  UNL1        0.1484
     19 S         -11.9282  -18.1992   21.4583 S.O2    1  UNL1        0.0390
     20 O         -11.4377  -19.1851   22.4767 O.2     1  UNL1       -0.1576
     21 O         -12.4188  -17.2132   20.4399 O.2     1  UNL1       -0.1576
     22 C         -12.1179  -15.8746   22.6031 C.3     1  UNL1        0.0270
     23 C         -12.4677  -17.3325   22.5574 C.3     1  UNL1        0.1457
     24 C         -13.3571  -17.9237   23.6107 C.3     1  UNL1        0.0270
@<TRIPOS>BOND
     1    22    23    1
     2    23    24    1
     3    23    19    1
     4    19    20    2
     5    19    21    2
     6    19    17    1
     7    17     1    1
     8     1     2    1
     9     2     3    1
    10     3     4   ar
    11     4     5   ar
    12     5     6   ar
    13     6    10    1
    14    10    11   ar
    15    11    12   ar
    16    12    13   ar
    17    13    14    1
    18    13    15   ar
    19    15    16   ar
    20     6     7   ar
    21     7     8   ar
    22     8     9    1
    23     9     1    1
    24     8     3   ar
    25    16    10   ar
    26    17    18    1
@<TRIPOS>MOLECULE
*****
 24 26 0 0 0
SMALL
GASTEIGER

@<TRIPOS>ATOM
      1 C         -13.8102   -7.1057   18.9674 C.3     1  UNL1        0.0838
      2 C         -12.4514   -6.4727   19.0212 C.3     1  UNL1        0.0437
      3 C         -12.6322   -4.9838   18.9948 C.ar    1  UNL1       -0.0247
      4 C         -11.6477   -3.8525   19.0256 C.ar    1  UNL1       -0.0045
      5 C         -12.1338   -2.4341   18.9861 C.ar    1  UNL1       -0.0003
      6 C         -13.6044   -2.1469   18.9158 C.ar    1  UNL1        0.0012
      7 C         -14.5889   -3.2782   18.8850 C.ar    1  UNL1       -0.0045
      8 C         -14.1027   -4.6966   18.9245 C.ar    1  UNL1       -0.0247
      9 C         -14.8308   -6.0080   18.9076 C.3     1  UNL1        0.0437
     10 C         -14.0905   -0.7283   18.8763 C.ar    1  UNL1        0.0193
     11 C         -15.4627   -0.3915   19.3798 C.ar    1  UNL1        0.0055
     12 C         -15.9488    1.0271   19.3403 C.ar    1  UNL1        0.0497
     13 C         -15.0626    2.1087   18.7974 C.ar    1  UNL1        0.2223
     14 F         -15.5487    3.5272   18.7579 F       1  UNL1       -0.1832
     15 N         -13.6903    1.7718   18.2939 N.ar    1  UNL1       -0.2165
     16 C         -13.2043    0.3533   18.3334 C.ar    1  UNL1        0.1012
     17 N         -14.0979   -8.5778   18.9724 N.3     1  UNL1       -0.1841
     18 H         -13.4118   -9.0140   18.3564 H       1  UNL1        0.1484
     19 S         -15.4450   -9.0802   18.5447 S.O2    1  UNL1        0.0390
     20 O         -15.0532   -8.9069   17.1072 O.2     1  UNL1       -0.1576
     21 O         -15.8368   -9.2534   19.9822 O.2     1  UNL1       -0.1576
     22 C         -17.2376  -10.9605   18.5079 C.3     1  UNL1        0.0270
     23 C         -16.7922   -9.5826   18.1169 C.3     1  UNL1        0.1457
     24 C         -17.6938   -8.7070   17.2981 C.3     1  UNL1        0.0270
@<TRIPOS>BOND
     1    22    23    1
     2    23    24    1
     3    23    19    1
     4    19    20    2
     5    19    21    2
     6    19    17    1
     7    17     1    1
     8     1     2    1
     9     2     3    1
    10     3     4   ar
    11     4     5   ar
    12     5     6   ar
    13     6    10    1
    14    10    11   ar
    15    11    12   ar
    16    12    13   ar
    17    13    14    1
    18    13    15   ar
    19    15    16   ar
    20     6     7   ar
    21     7     8   ar
    22     8     9    1
    23     9     1    1
    24     8     3   ar
    25    16    10   ar
    26    17    18    1
@<TRIPOS>MOLECULE
*****
 24 26 0 0 0
SMALL
GASTEIGER

@<TRIPOS>ATOM
      1 C         -10.8563   -2.8427   18.2464 C.3     1  UNL1        0.0838
      2 C         -10.9759   -1.4434   17.7196 C.3     1  UNL1        0.0437
      3 C         -12.3018   -0.8951   18.1570 C.ar    1  UNL1       -0.0247
      4 C         -12.9622    0.4328   17.9324 C.ar    1  UNL1       -0.0045
      5 C         -14.3226    0.7003   18.5050 C.ar    1  UNL1       -0.0003
      6 C         -15.0225   -0.3602   19.3023 C.ar    1  UNL1        0.0012
      7 C         -14.3620   -1.6881   19.5269 C.ar    1  UNL1       -0.0045
      8 C         -13.0017   -1.9555   18.9542 C.ar    1  UNL1       -0.0247
      9 C         -12.1084   -3.1592   19.0095 C.3     1  UNL1        0.0437
     10 C         -16.3829   -0.0927   19.8749 C.ar    1  UNL1        0.0193
     11 C         -16.7016    1.2541   20.4533 C.ar    1  UNL1        0.0055
     12 C         -18.0620    1.5216   21.0259 C.ar    1  UNL1        0.0497
     13 C         -19.1036    0.4422   21.0202 C.ar    1  UNL1        0.2223
     14 F         -20.4639    0.7097   21.5928 F       1  UNL1       -0.1832
     15 N         -18.7848   -0.9046   20.4418 N.ar    1  UNL1       -0.2165
     16 C         -17.4245   -1.1720   19.8692 C.ar    1  UNL1        0.1012
     17 N          -9.6896   -3.7638   18.0455 N.3     1  UNL1       -0.1841
     18 H          -9.2891   -3.5373   17.1352 H       1  UNL1        0.1484
     19 S          -9.8939   -5.2496   18.0711 S.O2    1  UNL1        0.0390
     20 O          -9.2626   -5.3130   19.4303 O.2     1  UNL1       -0.1576
     21 O         -10.5253   -5.1862   16.7119 O.2     1  UNL1       -0.1576
     22 C          -9.2578   -7.5926   18.9961 C.3     1  UNL1        0.0270
     23 C         -10.0983   -6.7354   18.0968 C.3     1  UNL1        0.1457
     24 C         -11.1430   -7.3640   17.2231 C.3     1  UNL1        0.0270
@<TRIPOS>BOND
     1    22    23    1
     2    23    24    1
     3    23    19    1
     4    19    20    2
     5    19    21    2
     6    19    17    1
     7    17     1    1
     8     1     2    1
     9     2     3    1
    10     3     4   ar
    11     4     5   ar
    12     5     6   ar
    13     6    10    1
    14    10    11   ar
    15    11    12   ar
    16    12    13   ar
    17    13    14    1
    18    13    15   ar
    19    15    16   ar
    20     6     7   ar
    21     7     8   ar
    22     8     9    1
    23     9     1    1
    24     8     3   ar
    25    16    10   ar
    26    17    18    1
@<TRIPOS>MOLECULE
*****
 24 26 0 0 0
SMALL
GASTEIGER

@<TRIPOS>ATOM
      1 C         -15.7491    0.4193   19.3375 C.3     1  UNL1        0.0838
      2 C         -14.4668    0.8693   18.7024 C.3     1  UNL1        0.0437
      3 C         -13.5455   -0.3122   18.6308 C.ar    1  UNL1       -0.0247
      4 C         -12.1495   -0.4659   18.1040 C.ar    1  UNL1       -0.0045
      5 C         -11.4664   -1.7997   18.1679 C.ar    1  UNL1       -0.0003
      6 C         -12.1793   -2.9799   18.7586 C.ar    1  UNL1        0.0012
      7 C         -13.5752   -2.8263   19.2855 C.ar    1  UNL1       -0.0045
      8 C         -14.2583   -1.4924   19.2215 C.ar    1  UNL1       -0.0247
      9 C         -15.6203   -1.0403   19.6583 C.3     1  UNL1        0.0437
     10 C         -11.4961   -4.3139   18.8225 C.ar    1  UNL1        0.0193
     11 C         -10.0013   -4.3868   18.9237 C.ar    1  UNL1        0.0055
     12 C          -9.3181   -5.7208   18.9876 C.ar    1  UNL1        0.0497
     13 C         -10.1298   -6.9816   18.9503 C.ar    1  UNL1        0.2223
     14 F          -9.4467   -8.3155   19.0142 F       1  UNL1       -0.1832
     15 N         -11.6246   -6.9086   18.8492 N.ar    1  UNL1       -0.2165
     16 C         -12.3077   -5.5747   18.7853 C.ar    1  UNL1        0.1012
     17 N         -16.9495    1.2782   19.6047 N.3     1  UNL1       -0.1841
     18 H         -17.0248    1.9302   18.8239 H       1  UNL1        0.1484
     19 S         -17.0222    2.0959   20.8602 S.O2    1  UNL1        0.0390
     20 O         -16.4686    3.2785   20.1220 O.2     1  UNL1       -0.1576
     21 O         -17.5757    0.9133   21.5984 O.2     1  UNL1       -0.1576
     22 C         -16.3710    4.2247   22.1996 C.3     1  UNL1        0.0270
     23 C         -17.0948    2.9136   22.1156 C.3     1  UNL1        0.1457
     24 C         -17.8913    2.4202   23.2870 C.3     1  UNL1        0.0270
@<TRIPOS>BOND
     1    22    23    1
     2    23    24    1
     3    23    19    1
     4    19    20    2
     5    19    21    2
     6    19    17    1
     7    17     1    1
     8     1     2    1
     9     2     3    1
    10     3     4   ar
    11     4     5   ar
    12     5     6   ar
    13     6    10    1
    14    10    11   ar
    15    11    12   ar
    16    12    13   ar
    17    13    14    1
    18    13    15   ar
    19    15    16   ar
    20     6     7   ar
    21     7     8   ar
    22     8     9    1
    23     9     1    1
    24     8     3   ar
    25    16    10   ar
    26    17    18    1
@<TRIPOS>MOLECULE
*****
 24 26 0 0 0
SMALL
GASTEIGER

@<TRIPOS>ATOM
      1 C           4.4605    1.3174   36.4770 C.3     1  UNL1        0.0838
      2 C           4.6251    2.0578   35.1829 C.3     1  UNL1        0.0437
      3 C           5.0140    1.0656   34.1273 C.ar    1  UNL1       -0.0247
      4 C           5.3090    1.2199   32.6647 C.ar    1  UNL1       -0.0045
      5 C           5.6798    0.0205   31.8438 C.ar    1  UNL1       -0.0003
      6 C           5.7556   -1.3332   32.4855 C.ar    1  UNL1        0.0012
      7 C           5.4606   -1.4875   33.9481 C.ar    1  UNL1       -0.0045
      8 C           5.0899   -0.2881   34.7690 C.ar    1  UNL1       -0.0247
      9 C           4.7477   -0.1325   36.2211 C.3     1  UNL1        0.0437
     10 C           6.1264   -2.5326   31.6646 C.ar    1  UNL1        0.0193
     11 C           6.4809   -3.8238   32.3407 C.ar    1  UNL1        0.0055
     12 C           6.8517   -5.0232   31.5197 C.ar    1  UNL1        0.0497
     13 C           6.8680   -4.9314   30.0226 C.ar    1  UNL1        0.2223
     14 F           7.2387   -6.1308   29.2017 F       1  UNL1       -0.1832
     15 N           6.5134   -3.6402   29.3465 N.ar    1  UNL1       -0.2165
     16 C           6.1426   -2.4408   30.1675 C.ar    1  UNL1        0.1012
     17 N           4.0761    1.9208   37.7953 N.3     1  UNL1       -0.1841
     18 H           4.8072    1.6669   38.4597 H       1  UNL1        0.1484
     19 S           2.7673    1.5590   38.4327 S.O2    1  UNL1        0.0390
     20 O           2.0348    2.1691   37.2747 O.2     1  UNL1       -0.1576
     21 O           3.4999    0.9489   39.5907 O.2     1  UNL1       -0.1576
     22 C           0.3858    2.2348   39.2214 C.3     1  UNL1        0.0270
     23 C           1.4585    1.1972   39.0700 C.3     1  UNL1        0.1457
     24 C           1.2223   -0.2021   39.5560 C.3     1  UNL1        0.0270
@<TRIPOS>BOND
     1    22    23    1
     2    23    24    1
     3    23    19    1
     4    19    20    2
     5    19    21    2
     6    19    17    1
     7    17     1    1
     8     1     2    1
     9     2     3    1
    10     3     4   ar
    11     4     5   ar
    12     5     6   ar
    13     6    10    1
    14    10    11   ar
    15    11    12   ar
    16    12    13   ar
    17    13    14    1
    18    13    15   ar
    19    15    16   ar
    20     6     7   ar
    21     7     8   ar
    22     8     9    1
    23     9     1    1
    24     8     3   ar
    25    16    10   ar
    26    17    18    1
