@<TRIPOS>MOLECULE
*****
 36 40 0 0 0
SMALL
GASTEIGER

@<TRIPOS>ATOM
      1 N          -8.9182  -18.1969   21.2635 N.3     1  UNL1       -0.2641
      2 C          -9.5397  -18.8831   22.4436 C.3     1  UNL1        0.0981
      3 C          -8.7980  -19.9786   23.1505 C.3     1  UNL1        0.0224
      4 C          -9.4195  -20.6648   24.3307 C.3     1  UNL1        0.0065
      5 C         -10.7827  -20.2556   24.8040 C.3     1  UNL1        0.0277
      6 C         -11.5245  -19.1601   24.0971 C.ar    1  UNL1       -0.0073
      7 C         -12.8878  -18.7508   24.5704 C.ar    1  UNL1       -0.0015
      8 C         -13.6295  -17.6553   23.8635 C.ar    1  UNL1        0.0203
      9 C         -13.0080  -16.9691   22.6833 C.ar    1  UNL1        0.0985
     10 N         -11.6448  -17.3784   22.2100 N.ar    1  UNL1       -0.2471
     11 C         -10.9030  -18.4739   22.9169 C.ar    1  UNL1        0.0695
     12 C          -8.9081  -18.8710   19.9236 C.3     1  UNL1        0.0989
     13 C          -6.6246  -20.0077   20.4171 C.2     1  UNL1       -0.0122
     14 C          -7.9003  -19.9428   19.6308 C.2     1  UNL1       -0.0120
     15 C          -5.6168  -21.0795   20.1243 C.3     1  UNL1        0.0954
     16 N          -4.1527  -20.7531   20.1263 N.3     1  UNL1       -0.2888
     17 H          -3.6709  -21.5586   19.7271 H       1  UNL1        0.1239
     18 C          -3.6531  -19.5430   19.3942 C.3     1  UNL1        0.1154
     19 C          -2.9543  -18.4479   20.1443 C.ar    1  UNL1        0.0750
     20 C          -1.7308  -17.8034   19.5634 C.ar    1  UNL1        0.0161
     21 C          -1.0322  -16.7083   20.3135 C.ar    1  UNL1        0.0028
     22 C          -1.5570  -16.2579   21.6445 C.ar    1  UNL1        0.0207
     23 C          -2.7805  -16.9024   22.2254 C.ar    1  UNL1        0.0985
     24 N          -3.4792  -17.9975   21.4753 N.ar    1  UNL1       -0.2468
     25 C          -8.3068  -16.8365   21.4232 C.3     1  UNL1        0.0888
     26 C          -7.7036  -16.4348   22.7366 C.3     1  UNL1        0.0748
     27 C          -8.5913  -16.0972   23.8976 C.3     1  UNL1        0.0432
     28 C          -7.9881  -15.6955   25.2109 C.ar    1  UNL1       -0.0234
     29 C          -8.8758  -15.3578   26.3720 C.ar    1  UNL1       -0.0045
     30 C          -8.2726  -14.9562   27.6852 C.ar    1  UNL1       -0.0003
     31 C          -6.7817  -14.8921   27.8375 C.ar    1  UNL1       -0.0003
     32 C          -5.8940  -15.2298   26.6765 C.ar    1  UNL1       -0.0032
     33 C          -6.4972  -15.6314   25.3632 C.ar    1  UNL1       -0.0103
     34 C          -5.6095  -15.9691   24.2021 C.3     1  UNL1        0.0953
     35 N          -6.2127  -16.3708   22.8888 N.3     1  UNL1       -0.2934
     36 H          -5.8544  -17.3009   22.6725 H       1  UNL1        0.1236
@<TRIPOS>BOND
     1    13    14    2
     2    14    12    1
     3    12     1    1
     4     1    25    1
     5    26    25    1
     6    26    27    1
     7    27    28    1
     8    28    29   ar
     9    29    30   ar
    10    30    31   ar
    11    31    32   ar
    12    32    33   ar
    13    33    34    1
    14    34    35    1
    15     2     1    1
    16     2     3    1
    17     3     4    1
    18     4     5    1
    19     5     6    1
    20     6     7   ar
    21     7     8   ar
    22     8     9   ar
    23     9    10   ar
    24    10    11   ar
    25    13    15    1
    26    15    16    1
    27    16    18    1
    28    18    19    1
    29    19    20   ar
    30    20    21   ar
    31    21    22   ar
    32    22    23   ar
    33    23    24   ar
    34    35    26    1
    35    11     2    1
    36    24    19   ar
    37    33    28   ar
    38    11     6   ar
    39    35    36    1
    40    16    17    1
@<TRIPOS>MOLECULE
*****
 36 40 0 0 0
SMALL
GASTEIGER

@<TRIPOS>ATOM
      1 N          -8.8299  -18.0054   21.3474 N.3     1  UNL1       -0.2641
      2 C         -10.2506  -17.5253   21.3154 C.3     1  UNL1        0.0981
      3 C         -10.7369  -16.6977   20.1628 C.3     1  UNL1        0.0224
      4 C         -12.1576  -16.2177   20.1308 C.3     1  UNL1        0.0065
      5 C         -13.0921  -16.5652   21.2514 C.3     1  UNL1        0.0277
      6 C         -12.6059  -17.3928   22.4040 C.ar    1  UNL1       -0.0073
      7 C         -13.5404  -17.7404   23.5248 C.ar    1  UNL1       -0.0015
      8 C         -13.0542  -18.5680   24.6774 C.ar    1  UNL1        0.0203
      9 C         -11.6334  -19.0481   24.7094 C.ar    1  UNL1        0.0985
     10 N         -10.6989  -18.7005   23.5887 N.ar    1  UNL1       -0.2471
     11 C         -11.1851  -17.8729   22.4360 C.ar    1  UNL1        0.0695
     12 C          -8.5319  -19.4728   21.2589 C.3     1  UNL1        0.0989
     13 C          -6.3299  -20.8115   20.9282 C.2     1  UNL1       -0.0122
     14 C          -7.4307  -19.9620   20.3655 C.2     1  UNL1       -0.0120
     15 C          -5.2288  -21.3007   20.0348 C.3     1  UNL1        0.0954
     16 N          -3.8648  -20.6820   20.1179 N.3     1  UNL1       -0.2888
     17 H          -3.2064  -21.3706   19.7537 H       1  UNL1        0.1239
     18 C          -3.5813  -19.3928   19.4055 C.3     1  UNL1        0.1154
     19 C          -2.7850  -18.3191   20.0861 C.ar    1  UNL1        0.0750
     20 C          -1.4701  -17.8823   19.5115 C.ar    1  UNL1        0.0161
     21 C          -0.6738  -16.8087   20.1921 C.ar    1  UNL1        0.0028
     22 C          -1.1924  -16.1719   21.4472 C.ar    1  UNL1        0.0207
     23 C          -2.5074  -16.6086   22.0218 C.ar    1  UNL1        0.0985
     24 N          -3.3036  -17.6822   21.3412 N.ar    1  UNL1       -0.2468
     25 C          -7.7071  -17.0180   21.4678 C.3     1  UNL1        0.0888
     26 C          -7.2550  -16.5579   22.8221 C.3     1  UNL1        0.0748
     27 C          -8.2663  -16.2577   23.8884 C.3     1  UNL1        0.0432
     28 C          -7.8142  -15.7975   25.2427 C.ar    1  UNL1       -0.0234
     29 C          -8.8255  -15.4974   26.3090 C.ar    1  UNL1       -0.0045
     30 C          -8.3734  -15.0373   27.6632 C.ar    1  UNL1       -0.0003
     31 C          -6.9100  -14.8773   27.9510 C.ar    1  UNL1       -0.0003
     32 C          -5.8987  -15.1774   26.8847 C.ar    1  UNL1       -0.0032
     33 C          -6.3508  -15.6376   25.5305 C.ar    1  UNL1       -0.0103
     34 C          -5.3395  -15.9377   24.4640 C.3     1  UNL1        0.0953
     35 N          -5.7916  -16.3979   23.1099 N.3     1  UNL1       -0.2934
     36 H          -5.3586  -17.3071   22.9481 H       1  UNL1        0.1236
@<TRIPOS>BOND
     1    13    14    2
     2    14    12    1
     3    12     1    1
     4     1    25    1
     5    26    25    1
     6    26    27    1
     7    27    28    1
     8    28    29   ar
     9    29    30   ar
    10    30    31   ar
    11    31    32   ar
    12    32    33   ar
    13    33    34    1
    14    34    35    1
    15     2     1    1
    16     2     3    1
    17     3     4    1
    18     4     5    1
    19     5     6    1
    20     6     7   ar
    21     7     8   ar
    22     8     9   ar
    23     9    10   ar
    24    10    11   ar
    25    13    15    1
    26    15    16    1
    27    16    18    1
    28    18    19    1
    29    19    20   ar
    30    20    21   ar
    31    21    22   ar
    32    22    23   ar
    33    23    24   ar
    34    35    26    1
    35    11     2    1
    36    24    19   ar
    37    33    28   ar
    38    11     6   ar
    39    35    36    1
    40    16    17    1
@<TRIPOS>MOLECULE
*****
 36 40 0 0 0
SMALL
GASTEIGER

@<TRIPOS>ATOM
      1 N         -11.1499  -16.9469   21.1896 N.3     1  UNL1       -0.2641
      2 C         -11.6765  -17.6209   22.4219 C.3     1  UNL1        0.0981
      3 C         -13.0089  -17.2222   22.9835 C.3     1  UNL1        0.0224
      4 C         -13.5355  -17.8962   24.2158 C.3     1  UNL1        0.0065
      5 C         -12.7295  -18.9688   24.8864 C.3     1  UNL1        0.0277
      6 C         -11.3970  -19.3675   24.3248 C.ar    1  UNL1       -0.0073
      7 C         -10.5910  -20.4402   24.9954 C.ar    1  UNL1       -0.0015
      8 C          -9.2585  -20.8389   24.4338 C.ar    1  UNL1        0.0203
      9 C          -8.7320  -20.1649   23.2015 C.ar    1  UNL1        0.0985
     10 N          -9.5379  -19.0923   22.5308 N.ar    1  UNL1       -0.2471
     11 C         -10.8705  -18.6935   23.0925 C.ar    1  UNL1        0.0695
     12 C         -11.4391  -17.5259   19.8364 C.3     1  UNL1        0.0989
     13 C         -10.0079  -19.6697   19.5109 C.2     1  UNL1       -0.0122
     14 C         -10.3700  -18.2743   19.0967 C.2     1  UNL1       -0.0120
     15 C          -8.9389  -20.4180   18.7712 C.3     1  UNL1        0.0954
     16 N          -7.5276  -20.4078   19.2796 N.3     1  UNL1       -0.2888
     17 H          -6.9213  -20.5226   18.4675 H       1  UNL1        0.1239
     18 C          -7.0130  -19.2218   20.0401 C.3     1  UNL1        0.1154
     19 C          -5.6630  -19.2770   20.6919 C.ar    1  UNL1        0.0750
     20 C          -4.5441  -20.0312   20.0368 C.ar    1  UNL1        0.0161
     21 C          -3.1943  -20.0863   20.6885 C.ar    1  UNL1        0.0028
     22 C          -2.9633  -19.3872   21.9954 C.ar    1  UNL1        0.0207
     23 C          -4.0822  -18.6330   22.6505 C.ar    1  UNL1        0.0985
     24 N          -5.4320  -18.5779   21.9987 N.ar    1  UNL1       -0.2468
     25 C         -10.3342  -15.6940   21.3104 C.3     1  UNL1        0.0888
     26 C          -9.2243  -15.6157   22.3165 C.3     1  UNL1        0.0748
     27 C          -9.5349  -15.6803   23.7825 C.3     1  UNL1        0.0432
     28 C          -8.4250  -15.6021   24.7885 C.ar    1  UNL1       -0.0234
     29 C          -8.7356  -15.6667   26.2545 C.ar    1  UNL1       -0.0045
     30 C          -7.6257  -15.5885   27.2605 C.ar    1  UNL1       -0.0003
     31 C          -6.2051  -15.4456   26.8003 C.ar    1  UNL1       -0.0003
     32 C          -5.8945  -15.3809   25.3343 C.ar    1  UNL1       -0.0032
     33 C          -7.0045  -15.4592   24.3284 C.ar    1  UNL1       -0.0103
     34 C          -6.6939  -15.3945   22.8623 C.3     1  UNL1        0.0953
     35 N          -7.8038  -15.4728   21.8563 N.3     1  UNL1       -0.2934
     36 H          -7.6050  -16.2764   21.2605 H       1  UNL1        0.1236
@<TRIPOS>BOND
     1    13    14    2
     2    14    12    1
     3    12     1    1
     4     1    25    1
     5    26    25    1
     6    26    27    1
     7    27    28    1
     8    28    29   ar
     9    29    30   ar
    10    30    31   ar
    11    31    32   ar
    12    32    33   ar
    13    33    34    1
    14    34    35    1
    15     2     1    1
    16     2     3    1
    17     3     4    1
    18     4     5    1
    19     5     6    1
    20     6     7   ar
    21     7     8   ar
    22     8     9   ar
    23     9    10   ar
    24    10    11   ar
    25    13    15    1
    26    15    16    1
    27    16    18    1
    28    18    19    1
    29    19    20   ar
    30    20    21   ar
    31    21    22   ar
    32    22    23   ar
    33    23    24   ar
    34    35    26    1
    35    11     2    1
    36    24    19   ar
    37    33    28   ar
    38    11     6   ar
    39    35    36    1
    40    16    17    1
@<TRIPOS>MOLECULE
*****
 36 40 0 0 0
SMALL
GASTEIGER

@<TRIPOS>ATOM
      1 N          -7.8012  -19.6547   21.7660 N.3     1  UNL1       -0.2641
      2 C          -8.4566  -19.1717   23.0259 C.3     1  UNL1        0.0981
      3 C          -9.3109  -20.1046   23.8320 C.3     1  UNL1        0.0224
      4 C          -9.9662  -19.6217   25.0919 C.3     1  UNL1        0.0065
      5 C          -9.7672  -18.2059   25.5457 C.3     1  UNL1        0.0277
      6 C          -8.9129  -17.2731   24.7396 C.ar    1  UNL1       -0.0073
      7 C          -8.7139  -15.8572   25.1933 C.ar    1  UNL1       -0.0015
      8 C          -7.8596  -14.9243   24.3872 C.ar    1  UNL1        0.0203
      9 C          -7.2043  -15.4073   23.1273 C.ar    1  UNL1        0.0985
     10 N          -7.4032  -16.8230   22.6735 N.ar    1  UNL1       -0.2471
     11 C          -8.2576  -17.7560   23.4797 C.ar    1  UNL1        0.0695
     12 C          -8.5029  -19.5011   20.4492 C.3     1  UNL1        0.0989
     13 C         -10.9278  -19.7192   21.3560 C.2     1  UNL1       -0.0122
     14 C          -9.9457  -19.0924   20.4114 C.2     1  UNL1       -0.0120
     15 C         -12.3706  -19.3105   21.3181 C.3     1  UNL1        0.0954
     16 N         -12.9551  -18.5166   22.4487 N.3     1  UNL1       -0.2888
     17 H         -12.5686  -18.9025   23.3102 H       1  UNL1        0.1239
     18 C         -12.7486  -17.0322   22.5082 C.3     1  UNL1        0.1154
     19 C         -12.0056  -16.3336   21.4082 C.ar    1  UNL1        0.0750
     20 C         -10.6320  -15.7864   21.6607 C.ar    1  UNL1        0.0161
     21 C          -9.8891  -15.0878   20.5606 C.ar    1  UNL1        0.0028
     22 C         -10.5198  -14.9365   19.2081 C.ar    1  UNL1        0.0207
     23 C         -11.8934  -15.4837   18.9556 C.ar    1  UNL1        0.0985
     24 N         -12.6363  -16.1823   20.0556 N.ar    1  UNL1       -0.2468
     25 C          -6.4442  -20.2911   21.8229 C.3     1  UNL1        0.0888
     26 C          -5.2123  -19.4408   21.7254 C.3     1  UNL1        0.0748
     27 C          -4.3851  -19.4596   20.4743 C.3     1  UNL1        0.0432
     28 C          -3.1531  -18.6093   20.3768 C.ar    1  UNL1       -0.0234
     29 C          -2.3259  -18.6282   19.1257 C.ar    1  UNL1       -0.0045
     30 C          -1.0941  -17.7779   19.0282 C.ar    1  UNL1       -0.0003
     31 C          -0.6894  -16.9088   20.1819 C.ar    1  UNL1       -0.0003
     32 C          -1.5166  -16.8900   21.4330 C.ar    1  UNL1       -0.0032
     33 C          -2.7485  -17.7403   21.5305 C.ar    1  UNL1       -0.0103
     34 C          -3.5758  -17.7215   22.7817 C.3     1  UNL1        0.0953
     35 N          -4.8076  -18.5718   22.8791 N.3     1  UNL1       -0.2934
     36 H          -5.5878  -17.9401   23.0598 H       1  UNL1        0.1236
@<TRIPOS>BOND
     1    13    14    2
     2    14    12    1
     3    12     1    1
     4     1    25    1
     5    26    25    1
     6    26    27    1
     7    27    28    1
     8    28    29   ar
     9    29    30   ar
    10    30    31   ar
    11    31    32   ar
    12    32    33   ar
    13    33    34    1
    14    34    35    1
    15     2     1    1
    16     2     3    1
    17     3     4    1
    18     4     5    1
    19     5     6    1
    20     6     7   ar
    21     7     8   ar
    22     8     9   ar
    23     9    10   ar
    24    10    11   ar
    25    13    15    1
    26    15    16    1
    27    16    18    1
    28    18    19    1
    29    19    20   ar
    30    20    21   ar
    31    21    22   ar
    32    22    23   ar
    33    23    24   ar
    34    35    26    1
    35    11     2    1
    36    24    19   ar
    37    33    28   ar
    38    11     6   ar
    39    35    36    1
    40    16    17    1
@<TRIPOS>MOLECULE
*****
 36 40 0 0 0
SMALL
GASTEIGER

@<TRIPOS>ATOM
      1 N          -9.1700  -18.1006   20.6511 N.3     1  UNL1       -0.2641
      2 C         -10.5524  -17.5747   20.9008 C.3     1  UNL1        0.0981
      3 C         -11.1830  -16.6286   19.9224 C.3     1  UNL1        0.0224
      4 C         -12.5654  -16.1027   20.1721 C.3     1  UNL1        0.0065
      5 C         -13.3171  -16.5227   21.4003 C.3     1  UNL1        0.0277
      6 C         -12.6865  -17.4687   22.3787 C.ar    1  UNL1       -0.0073
      7 C         -13.4383  -17.8888   23.6069 C.ar    1  UNL1       -0.0015
      8 C         -12.8077  -18.8348   24.5853 C.ar    1  UNL1        0.0203
      9 C         -11.4253  -19.3608   24.3356 C.ar    1  UNL1        0.0985
     10 N         -10.6735  -18.9408   23.1074 N.ar    1  UNL1       -0.2471
     11 C         -11.3041  -17.9947   22.1290 C.ar    1  UNL1        0.0695
     12 C          -8.9810  -19.3909   19.9099 C.3     1  UNL1        0.0989
     13 C          -6.9188  -20.5165   21.0192 C.2     1  UNL1       -0.0122
     14 C          -7.6136  -19.9969   19.7956 C.2     1  UNL1       -0.0120
     15 C          -5.5515  -21.1224   20.9048 C.3     1  UNL1        0.0954
     16 N          -4.5583  -20.5547   19.9345 N.3     1  UNL1       -0.2888
     17 H          -4.9439  -19.6711   19.6016 H       1  UNL1        0.1239
     18 C          -3.1529  -20.2743   20.3776 C.3     1  UNL1        0.1154
     19 C          -2.7836  -18.9109   20.8824 C.ar    1  UNL1        0.0750
     20 C          -3.3497  -18.4124   22.1789 C.ar    1  UNL1        0.0161
     21 C          -2.9803  -17.0490   22.6837 C.ar    1  UNL1        0.0028
     22 C          -2.0449  -16.1842   21.8918 C.ar    1  UNL1        0.0207
     23 C          -1.4788  -16.6827   20.5953 C.ar    1  UNL1        0.0985
     24 N          -1.8482  -18.0460   20.0906 N.ar    1  UNL1       -0.2468
     25 C          -7.9766  -17.3363   21.1425 C.3     1  UNL1        0.0888
     26 C          -7.9578  -16.7925   22.5404 C.3     1  UNL1        0.0748
     27 C          -6.6500  -16.5612   23.2376 C.3     1  UNL1        0.0432
     28 C          -6.6313  -16.0173   24.6355 C.ar    1  UNL1       -0.0234
     29 C          -5.3235  -15.7860   25.3327 C.ar    1  UNL1       -0.0045
     30 C          -5.3048  -15.2422   26.7305 C.ar    1  UNL1       -0.0003
     31 C          -6.5938  -14.9297   27.4311 C.ar    1  UNL1       -0.0003
     32 C          -7.9016  -15.1611   26.7338 C.ar    1  UNL1       -0.0032
     33 C          -7.9203  -15.7049   25.3360 C.ar    1  UNL1       -0.0103
     34 C          -9.2281  -15.9362   24.6387 C.3     1  UNL1        0.0953
     35 N          -9.2468  -16.4800   23.2409 N.3     1  UNL1       -0.2934
     36 H          -9.7364  -15.7951   22.6650 H       1  UNL1        0.1236
@<TRIPOS>BOND
     1    13    14    2
     2    14    12    1
     3    12     1    1
     4     1    25    1
     5    26    25    1
     6    26    27    1
     7    27    28    1
     8    28    29   ar
     9    29    30   ar
    10    30    31   ar
    11    31    32   ar
    12    32    33   ar
    13    33    34    1
    14    34    35    1
    15     2     1    1
    16     2     3    1
    17     3     4    1
    18     4     5    1
    19     5     6    1
    20     6     7   ar
    21     7     8   ar
    22     8     9   ar
    23     9    10   ar
    24    10    11   ar
    25    13    15    1
    26    15    16    1
    27    16    18    1
    28    18    19    1
    29    19    20   ar
    30    20    21   ar
    31    21    22   ar
    32    22    23   ar
    33    23    24   ar
    34    35    26    1
    35    11     2    1
    36    24    19   ar
    37    33    28   ar
    38    11     6   ar
    39    35    36    1
    40    16    17    1
@<TRIPOS>MOLECULE
*****
 36 40 0 0 0
SMALL
GASTEIGER

@<TRIPOS>ATOM
      1 N           7.3068   -4.0416   23.0520 N.3     1  UNL1       -0.2641
      2 C           7.8422   -5.2661   23.7332 C.3     1  UNL1        0.0981
      3 C           8.6163   -6.2831   22.9481 C.3     1  UNL1        0.0224
      4 C           9.1517   -7.5076   23.6293 C.3     1  UNL1        0.0065
      5 C           8.9129   -7.7151   25.0955 C.3     1  UNL1        0.0277
      6 C           8.1388   -6.6981   25.8806 C.ar    1  UNL1       -0.0073
      7 C           7.8999   -6.9056   27.3469 C.ar    1  UNL1       -0.0015
      8 C           7.1258   -5.8886   28.1319 C.ar    1  UNL1        0.0203
      9 C           6.5904   -4.6641   27.4508 C.ar    1  UNL1        0.0985
     10 N           6.8292   -4.4566   25.9845 N.ar    1  UNL1       -0.2471
     11 C           7.6034   -5.4736   25.1994 C.ar    1  UNL1        0.0695
     12 C           8.1934   -2.8492   22.8471 C.3     1  UNL1        0.0989
     13 C           8.4241   -2.8438   20.2593 C.2     1  UNL1       -0.0122
     14 C           8.1668   -2.1101   21.5421 C.2     1  UNL1       -0.0120
     15 C           8.3975   -2.1048   18.9543 C.3     1  UNL1        0.0954
     16 N           7.2641   -2.3172   17.9950 N.3     1  UNL1       -0.2888
     17 H           7.4210   -3.2212   17.5494 H       1  UNL1        0.1239
     18 C           5.8496   -2.3203   18.4942 C.3     1  UNL1        0.1154
     19 C           5.0701   -1.0397   18.5469 C.ar    1  UNL1        0.0750
     20 C           3.7309   -0.9489   17.8773 C.ar    1  UNL1        0.0161
     21 C           2.9515    0.3316   17.9300 C.ar    1  UNL1        0.0028
     22 C           3.5111    1.5212   18.6523 C.ar    1  UNL1        0.0207
     23 C           4.8503    1.4303   19.3218 C.ar    1  UNL1        0.0985
     24 N           5.6297    0.1498   19.2691 N.ar    1  UNL1       -0.2468
     25 C           5.8848   -4.0095   22.5757 C.3     1  UNL1        0.0888
     26 C           4.9698   -2.9070   23.0197 C.3     1  UNL1        0.0748
     27 C           4.0779   -2.2259   22.0244 C.3     1  UNL1        0.0432
     28 C           3.1629   -1.1234   22.4685 C.ar    1  UNL1       -0.0234
     29 C           2.2710   -0.4423   21.4731 C.ar    1  UNL1       -0.0045
     30 C           1.3560    0.6602   21.9172 C.ar    1  UNL1       -0.0003
     31 C           1.3329    1.0816   23.3566 C.ar    1  UNL1       -0.0003
     32 C           2.2247    0.4006   24.3519 C.ar    1  UNL1       -0.0032
     33 C           3.1397   -0.7019   23.9078 C.ar    1  UNL1       -0.0103
     34 C           4.0316   -1.3830   24.9032 C.3     1  UNL1        0.0953
     35 N           4.9466   -2.4855   24.4591 N.3     1  UNL1       -0.2934
     36 H           4.6985   -3.3115   25.0038 H       1  UNL1        0.1236
@<TRIPOS>BOND
     1    13    14    2
     2    14    12    1
     3    12     1    1
     4     1    25    1
     5    26    25    1
     6    26    27    1
     7    27    28    1
     8    28    29   ar
     9    29    30   ar
    10    30    31   ar
    11    31    32   ar
    12    32    33   ar
    13    33    34    1
    14    34    35    1
    15     2     1    1
    16     2     3    1
    17     3     4    1
    18     4     5    1
    19     5     6    1
    20     6     7   ar
    21     7     8   ar
    22     8     9   ar
    23     9    10   ar
    24    10    11   ar
    25    13    15    1
    26    15    16    1
    27    16    18    1
    28    18    19    1
    29    19    20   ar
    30    20    21   ar
    31    21    22   ar
    32    22    23   ar
    33    23    24   ar
    34    35    26    1
    35    11     2    1
    36    24    19   ar
    37    33    28   ar
    38    11     6   ar
    39    35    36    1
    40    16    17    1
@<TRIPOS>MOLECULE
*****
 36 40 0 0 0
SMALL
GASTEIGER

@<TRIPOS>ATOM
      1 N           7.2043   -3.4971   21.3908 N.3     1  UNL1       -0.2641
      2 C           7.0701   -3.8025   22.8533 C.3     1  UNL1        0.0981
      3 C           6.3635   -2.8380   23.7591 C.3     1  UNL1        0.0224
      4 C           6.2293   -3.1434   25.2215 C.3     1  UNL1        0.0065
      5 C           6.8017   -4.4132   25.7782 C.3     1  UNL1        0.0277
      6 C           7.5083   -5.3777   24.8724 C.ar    1  UNL1       -0.0073
      7 C           8.0807   -6.6476   25.4290 C.ar    1  UNL1       -0.0015
      8 C           8.7873   -7.6120   24.5232 C.ar    1  UNL1        0.0203
      9 C           8.9215   -7.3067   23.0607 C.ar    1  UNL1        0.0985
     10 N           8.3491   -6.0368   22.5041 N.ar    1  UNL1       -0.2471
     11 C           7.6425   -5.0723   23.4099 C.ar    1  UNL1        0.0695
     12 C           8.4243   -2.7886   20.8815 C.3     1  UNL1        0.0989
     13 C           7.5576   -0.3495   21.1054 C.2     1  UNL1       -0.0122
     14 C           8.6640   -1.3528   21.2440 C.2     1  UNL1       -0.0120
     15 C           7.7973    1.0861   21.4679 C.3     1  UNL1        0.0954
     16 N           6.6355    2.0157   21.6579 N.3     1  UNL1       -0.2888
     17 H           6.8930    2.9016   21.2227 H       1  UNL1        0.1239
     18 C           5.2841    1.6466   21.1220 C.3     1  UNL1        0.1154
     19 C           4.1807    1.2688   22.0653 C.ar    1  UNL1        0.0750
     20 C           4.3510    0.0991   22.9887 C.ar    1  UNL1        0.0161
     21 C           3.2477   -0.2787   23.9320 C.ar    1  UNL1        0.0028
     22 C           1.9739    0.5133   23.9519 C.ar    1  UNL1        0.0207
     23 C           1.8036    1.6830   23.0284 C.ar    1  UNL1        0.0985
     24 N           2.9070    2.0607   22.0852 N.ar    1  UNL1       -0.2468
     25 C           6.1185   -3.9003   20.4377 C.3     1  UNL1        0.0888
     26 C           5.2496   -2.8541   19.8047 C.3     1  UNL1        0.0748
     27 C           3.9460   -2.4754   20.4429 C.3     1  UNL1        0.0432
     28 C           3.0771   -1.4292   19.8099 C.ar    1  UNL1       -0.0234
     29 C           1.7735   -1.0505   20.4480 C.ar    1  UNL1       -0.0045
     30 C           0.9047   -0.0044   19.8150 C.ar    1  UNL1       -0.0003
     31 C           1.3394    0.6630   18.5439 C.ar    1  UNL1       -0.0003
     32 C           2.6429    0.2842   17.9057 C.ar    1  UNL1       -0.0032
     33 C           3.5118   -0.7619   18.5387 C.ar    1  UNL1       -0.0103
     34 C           4.8154   -1.1407   17.9006 C.3     1  UNL1        0.0953
     35 N           5.6843   -2.1868   18.5336 N.3     1  UNL1       -0.2934
     36 H           6.5839   -1.7459   18.7253 H       1  UNL1        0.1236
@<TRIPOS>BOND
     1    13    14    2
     2    14    12    1
     3    12     1    1
     4     1    25    1
     5    26    25    1
     6    26    27    1
     7    27    28    1
     8    28    29   ar
     9    29    30   ar
    10    30    31   ar
    11    31    32   ar
    12    32    33   ar
    13    33    34    1
    14    34    35    1
    15     2     1    1
    16     2     3    1
    17     3     4    1
    18     4     5    1
    19     5     6    1
    20     6     7   ar
    21     7     8   ar
    22     8     9   ar
    23     9    10   ar
    24    10    11   ar
    25    13    15    1
    26    15    16    1
    27    16    18    1
    28    18    19    1
    29    19    20   ar
    30    20    21   ar
    31    21    22   ar
    32    22    23   ar
    33    23    24   ar
    34    35    26    1
    35    11     2    1
    36    24    19   ar
    37    33    28   ar
    38    11     6   ar
    39    35    36    1
    40    16    17    1
@<TRIPOS>MOLECULE
*****
 36 40 0 0 0
SMALL
GASTEIGER

@<TRIPOS>ATOM
      1 N           5.0411   -1.9062   22.6871 N.3     1  UNL1       -0.2641
      2 C           4.6239   -2.4901   21.3700 C.3     1  UNL1        0.0981
      3 C           4.3279   -3.9565   21.2597 C.3     1  UNL1        0.0224
      4 C           3.9107   -4.5404   19.9426 C.3     1  UNL1        0.0065
      5 C           3.7896   -3.6581   18.7356 C.3     1  UNL1        0.0277
      6 C           4.0857   -2.1918   18.8459 C.ar    1  UNL1       -0.0073
      7 C           3.9646   -1.3093   17.6389 C.ar    1  UNL1       -0.0015
      8 C           4.2607    0.1570   17.7491 C.ar    1  UNL1        0.0203
      9 C           4.6778    0.7410   19.0663 C.ar    1  UNL1        0.0985
     10 N           4.7989   -0.1414   20.2732 N.ar    1  UNL1       -0.2471
     11 C           4.5028   -1.6078   20.1630 C.ar    1  UNL1        0.0695
     12 C           4.0333   -1.2070   23.5505 C.3     1  UNL1        0.0989
     13 C           4.5772   -0.4537   25.9767 C.2     1  UNL1       -0.0122
     14 C           4.0041   -1.4643   25.0280 C.2     1  UNL1       -0.0120
     15 C           4.5480   -0.7110   27.4542 C.3     1  UNL1        0.0954
     16 N           3.3576   -1.3794   28.0757 N.3     1  UNL1       -0.2888
     17 H           3.7021   -2.2162   28.5463 H       1  UNL1        0.1239
     18 C           2.5162   -0.6378   29.0718 C.3     1  UNL1        0.1154
     19 C           1.2511    0.0366   28.6305 C.ar    1  UNL1        0.0750
     20 C           1.2764    1.0006   27.4817 C.ar    1  UNL1        0.0161
     21 C           0.0113    1.6750   27.0405 C.ar    1  UNL1        0.0028
     22 C          -1.2791    1.3853   27.7482 C.ar    1  UNL1        0.0207
     23 C          -1.3045    0.4213   28.8970 C.ar    1  UNL1        0.0985
     24 N          -0.0394   -0.2531   29.3382 N.ar    1  UNL1       -0.2468
     25 C           6.4661   -2.0214   23.1410 C.3     1  UNL1        0.0888
     26 C           7.0400   -3.3660   23.4767 C.3     1  UNL1        0.0748
     27 C           6.7079   -4.0175   24.7864 C.3     1  UNL1        0.0432
     28 C           7.2818   -5.3621   25.1221 C.ar    1  UNL1       -0.0234
     29 C           6.9498   -6.0135   26.4318 C.ar    1  UNL1       -0.0045
     30 C           7.5236   -7.3581   26.7674 C.ar    1  UNL1       -0.0003
     31 C           8.4295   -8.0513   25.7933 C.ar    1  UNL1       -0.0003
     32 C           8.7615   -7.3999   24.4836 C.ar    1  UNL1       -0.0032
     33 C           8.1877   -6.0553   24.1480 C.ar    1  UNL1       -0.0103
     34 C           8.5197   -5.4038   22.8382 C.3     1  UNL1        0.0953
     35 N           7.9459   -4.0592   22.5026 N.3     1  UNL1       -0.2934
     36 H           7.4170   -4.1724   21.6378 H       1  UNL1        0.1236
@<TRIPOS>BOND
     1    13    14    2
     2    14    12    1
     3    12     1    1
     4     1    25    1
     5    26    25    1
     6    26    27    1
     7    27    28    1
     8    28    29   ar
     9    29    30   ar
    10    30    31   ar
    11    31    32   ar
    12    32    33   ar
    13    33    34    1
    14    34    35    1
    15     2     1    1
    16     2     3    1
    17     3     4    1
    18     4     5    1
    19     5     6    1
    20     6     7   ar
    21     7     8   ar
    22     8     9   ar
    23     9    10   ar
    24    10    11   ar
    25    13    15    1
    26    15    16    1
    27    16    18    1
    28    18    19    1
    29    19    20   ar
    30    20    21   ar
    31    21    22   ar
    32    22    23   ar
    33    23    24   ar
    34    35    26    1
    35    11     2    1
    36    24    19   ar
    37    33    28   ar
    38    11     6   ar
    39    35    36    1
    40    16    17    1
@<TRIPOS>MOLECULE
*****
 36 40 0 0 0
SMALL
GASTEIGER

@<TRIPOS>ATOM
      1 N           6.2572   -3.2983   23.3682 N.3     1  UNL1       -0.2641
      2 C           7.2093   -4.4457   23.2044 C.3     1  UNL1        0.0981
      3 C           7.9892   -4.5974   21.9321 C.3     1  UNL1        0.0224
      4 C           8.9413   -5.7448   21.7683 C.3     1  UNL1        0.0065
      5 C           9.1136   -6.7405   22.8768 C.3     1  UNL1        0.0277
      6 C           8.3338   -6.5889   24.1491 C.ar    1  UNL1       -0.0073
      7 C           8.5060   -7.5846   25.2576 C.ar    1  UNL1       -0.0015
      8 C           7.7261   -7.4330   26.5299 C.ar    1  UNL1        0.0203
      9 C           6.7740   -6.2855   26.6937 C.ar    1  UNL1        0.0985
     10 N           6.6017   -5.2898   25.5852 N.ar    1  UNL1       -0.2471
     11 C           7.3816   -5.4414   24.3129 C.ar    1  UNL1        0.0695
     12 C           6.7178   -2.0287   24.0209 C.3     1  UNL1        0.0989
     13 C           4.8993   -1.5497   25.8135 C.2     1  UNL1       -0.0122
     14 C           6.3407   -1.7369   25.4431 C.2     1  UNL1       -0.0120
     15 C           4.5223   -1.2578   27.2357 C.3     1  UNL1        0.0954
     16 N           3.1114   -1.4741   27.6971 N.3     1  UNL1       -0.2888
     17 H           3.0651   -2.4231   28.0681 H       1  UNL1        0.1239
     18 C           2.5162   -0.5728   28.7379 C.3     1  UNL1        0.1154
     19 C           1.1776    0.0623   28.5034 C.ar    1  UNL1        0.0750
     20 C           1.0189    1.1058   27.4376 C.ar    1  UNL1        0.0161
     21 C          -0.3196    1.7408   27.2032 C.ar    1  UNL1        0.0028
     22 C          -1.4995    1.3324   28.0346 C.ar    1  UNL1        0.0207
     23 C          -1.3407    0.2889   29.1004 C.ar    1  UNL1        0.0985
     24 N          -0.0022   -0.3461   29.3348 N.ar    1  UNL1       -0.2468
     25 C           4.8444   -3.4204   22.8794 C.3     1  UNL1        0.0888
     26 C           4.3821   -2.6028   21.7098 C.3     1  UNL1        0.0748
     27 C           3.1379   -1.7723   21.8202 C.3     1  UNL1        0.0432
     28 C           2.6756   -0.9547   20.6506 C.ar    1  UNL1       -0.0234
     29 C           1.4314   -0.1243   20.7610 C.ar    1  UNL1       -0.0045
     30 C           0.9692    0.6933   19.5914 C.ar    1  UNL1       -0.0003
     31 C           1.7512    0.6804   18.3115 C.ar    1  UNL1       -0.0003
     32 C           2.9954   -0.1500   18.2010 C.ar    1  UNL1       -0.0032
     33 C           3.4576   -0.9676   19.3706 C.ar    1  UNL1       -0.0103
     34 C           4.7019   -1.7981   19.2602 C.3     1  UNL1        0.0953
     35 N           5.1641   -2.6156   20.4298 N.3     1  UNL1       -0.2934
     36 H           6.1063   -2.2979   20.6572 H       1  UNL1        0.1236
@<TRIPOS>BOND
     1    13    14    2
     2    14    12    1
     3    12     1    1
     4     1    25    1
     5    26    25    1
     6    26    27    1
     7    27    28    1
     8    28    29   ar
     9    29    30   ar
    10    30    31   ar
    11    31    32   ar
    12    32    33   ar
    13    33    34    1
    14    34    35    1
    15     2     1    1
    16     2     3    1
    17     3     4    1
    18     4     5    1
    19     5     6    1
    20     6     7   ar
    21     7     8   ar
    22     8     9   ar
    23     9    10   ar
    24    10    11   ar
    25    13    15    1
    26    15    16    1
    27    16    18    1
    28    18    19    1
    29    19    20   ar
    30    20    21   ar
    31    21    22   ar
    32    22    23   ar
    33    23    24   ar
    34    35    26    1
    35    11     2    1
    36    24    19   ar
    37    33    28   ar
    38    11     6   ar
    39    35    36    1
    40    16    17    1
