@<TRIPOS>MOLECULE
*****
 17 18 0 0 0
SMALL
GASTEIGER

@<TRIPOS>ATOM
      1 C         -10.1701  -18.6123   23.9051 C.ar    1  UNL1        0.1386
      2 C          -9.7061  -19.9321   23.3643 C.ar    1  UNL1        0.0370
      3 C          -8.4057  -20.0232   22.6222 C.ar    1  UNL1        0.0062
      4 C          -7.5694  -18.7944   22.4209 C.ar    1  UNL1        0.0374
      5 C          -8.0334  -17.4746   22.9617 C.ar    1  UNL1        0.0062
      6 C          -9.3338  -17.3835   23.7038 C.ar    1  UNL1        0.0370
      7 C          -6.2690  -18.8855   21.6788 C.ar    1  UNL1        0.1765
      8 C          -4.9615  -19.3540   22.2453 C.ar    1  UNL1        0.0581
      9 C          -3.9322  -19.2821   21.1565 C.ar    1  UNL1        0.1011
     10 C          -2.4855  -19.6573   21.2847 C.3     1  UNL1        0.0557
     11 N          -4.6036  -18.7693   19.9171 N.ar    1  UNL1       -0.0813
     12 O          -6.0478  -18.5242   20.2399 O.2     1  UNL1       -0.3537
     13 O         -11.4705  -18.5212   24.6473 O.3     1  UNL1       -0.4755
     14 C         -12.7363  -18.2063   23.9066 C.3     1  UNL1        0.2054
     15 C         -12.7026  -17.2890   22.7202 C.3     1  UNL1        0.0473
     16 C         -11.3530  -17.5820   20.5196 C.3     1  UNL1        0.0001
     17 C         -12.5805  -17.8561   21.3369 C.3     1  UNL1        0.0038
@<TRIPOS>BOND
     1    16    17    1
     2    17    15    1
     3    15    14    1
     4    14    13    1
     5    13     1    1
     6     1     2   ar
     7     2     3   ar
     8     3     4   ar
     9     4     7    1
    10     7     8   ar
    11     8     9   ar
    12     9    10    1
    13     9    11   ar
    14    11    12   ar
    15     4     5   ar
    16     5     6   ar
    17     6     1   ar
    18    12     7   ar
@<TRIPOS>MOLECULE
*****
 17 18 0 0 0
SMALL
GASTEIGER

@<TRIPOS>ATOM
      1 C          -6.5073  -20.2027   20.6483 C.ar    1  UNL1        0.1386
      2 C          -6.9333  -19.9895   22.0706 C.ar    1  UNL1        0.0370
      3 C          -8.3119  -19.4812   22.3725 C.ar    1  UNL1        0.0062
      4 C          -9.2644  -19.1860   21.2521 C.ar    1  UNL1        0.0374
      5 C          -8.8384  -19.3991   19.8298 C.ar    1  UNL1        0.0062
      6 C          -7.4599  -19.9075   19.5279 C.ar    1  UNL1        0.0370
      7 C         -10.6430  -18.6776   21.5540 C.ar    1  UNL1        0.1765
      8 C         -11.3152  -18.6953   22.8948 C.ar    1  UNL1        0.0581
      9 C         -12.6791  -18.0909   22.7375 C.ar    1  UNL1        0.1011
     10 C         -13.6940  -17.9096   23.8270 C.3     1  UNL1        0.0557
     11 N         -12.8498  -17.6998   21.2995 N.ar    1  UNL1       -0.0813
     12 O         -11.5914  -18.0624   20.5680 O.2     1  UNL1       -0.3537
     13 O          -5.1287  -20.7110   20.3464 O.3     1  UNL1       -0.4755
     14 C          -3.9765  -19.7537   20.2696 C.3     1  UNL1        0.2054
     15 C          -2.9400  -19.7391   21.3537 C.3     1  UNL1        0.0473
     16 C          -3.8742  -18.1214   23.1594 C.3     1  UNL1        0.0001
     17 C          -2.7772  -18.5248   22.2193 C.3     1  UNL1        0.0038
@<TRIPOS>BOND
     1    16    17    1
     2    17    15    1
     3    15    14    1
     4    14    13    1
     5    13     1    1
     6     1     2   ar
     7     2     3   ar
     8     3     4   ar
     9     4     7    1
    10     7     8   ar
    11     8     9   ar
    12     9    10    1
    13     9    11   ar
    14    11    12   ar
    15     4     5   ar
    16     5     6   ar
    17     6     1   ar
    18    12     7   ar
@<TRIPOS>MOLECULE
*****
 17 18 0 0 0
SMALL
GASTEIGER

@<TRIPOS>ATOM
      1 C          -8.5510  -19.2813   21.0801 C.ar    1  UNL1        0.1386
      2 C          -7.7585  -19.0441   22.3313 C.ar    1  UNL1        0.0370
      3 C          -6.2593  -19.0596   22.2838 C.ar    1  UNL1        0.0062
      4 C          -5.5526  -19.3121   20.9851 C.ar    1  UNL1        0.0374
      5 C          -6.3451  -19.5493   19.7339 C.ar    1  UNL1        0.0062
      6 C          -7.8443  -19.5339   19.7813 C.ar    1  UNL1        0.0370
      7 C          -4.0535  -19.3276   20.9376 C.ar    1  UNL1        0.1765
      8 C          -3.1885  -18.4306   20.1026 C.ar    1  UNL1        0.0581
      9 C          -1.7565  -18.7913   20.3657 C.ar    1  UNL1        0.1011
     10 C          -0.5555  -18.1455   19.7408 C.3     1  UNL1        0.0557
     11 N          -1.7364  -19.9113   21.3634 N.ar    1  UNL1       -0.0813
     12 O          -3.1560  -20.2427   21.7168 O.2     1  UNL1       -0.3537
     13 O         -10.0502  -19.2659   21.1276 O.3     1  UNL1       -0.4755
     14 C         -10.7664  -18.1624   21.8481 C.3     1  UNL1        0.2054
     15 C         -11.7141  -18.4870   22.9646 C.3     1  UNL1        0.0473
     16 C         -13.9902  -18.0836   24.1507 C.3     1  UNL1        0.0001
     17 C         -12.9318  -17.6392   23.1851 C.3     1  UNL1        0.0038
@<TRIPOS>BOND
     1    16    17    1
     2    17    15    1
     3    15    14    1
     4    14    13    1
     5    13     1    1
     6     1     2   ar
     7     2     3   ar
     8     3     4   ar
     9     4     7    1
    10     7     8   ar
    11     8     9   ar
    12     9    10    1
    13     9    11   ar
    14    11    12   ar
    15     4     5   ar
    16     5     6   ar
    17     6     1   ar
    18    12     7   ar
@<TRIPOS>MOLECULE
*****
 17 18 0 0 0
SMALL
GASTEIGER

@<TRIPOS>ATOM
      1 C          -5.0277  -19.6163   21.0966 C.ar    1  UNL1        0.1386
      2 C          -5.2715  -18.7123   22.2685 C.ar    1  UNL1        0.0370
      3 C          -6.6297  -18.1133   22.4838 C.ar    1  UNL1        0.0062
      4 C          -7.7441  -18.4182   21.5273 C.ar    1  UNL1        0.0374
      5 C          -7.5003  -19.3222   20.3554 C.ar    1  UNL1        0.0062
      6 C          -6.1421  -19.9213   20.1401 C.ar    1  UNL1        0.0370
      7 C          -9.1024  -17.8192   21.7426 C.ar    1  UNL1        0.1765
      8 C         -10.2347  -18.4501   22.4975 C.ar    1  UNL1        0.0581
      9 C         -11.3989  -17.5049   22.4623 C.ar    1  UNL1        0.1011
     10 C         -12.7403  -17.7345   23.0930 C.3     1  UNL1        0.0557
     11 N         -10.9861  -16.2898   21.6857 N.ar    1  UNL1       -0.0813
     12 O          -9.5668  -16.4841   21.2409 O.2     1  UNL1       -0.3537
     13 O          -3.6695  -20.2154   20.8813 O.3     1  UNL1       -0.4755
     14 C          -2.4769  -19.6438   21.5890 C.3     1  UNL1        0.2054
     15 C          -1.6840  -18.5411   20.9521 C.3     1  UNL1        0.0473
     16 C          -2.7455  -17.4422   18.8507 C.3     1  UNL1        0.0001
     17 C          -1.7231  -18.3521   19.4645 C.3     1  UNL1        0.0038
@<TRIPOS>BOND
     1    16    17    1
     2    17    15    1
     3    15    14    1
     4    14    13    1
     5    13     1    1
     6     1     2   ar
     7     2     3   ar
     8     3     4   ar
     9     4     7    1
    10     7     8   ar
    11     8     9   ar
    12     9    10    1
    13     9    11   ar
    14    11    12   ar
    15     4     5   ar
    16     5     6   ar
    17     6     1   ar
    18    12     7   ar
@<TRIPOS>MOLECULE
*****
 17 18 0 0 0
SMALL
GASTEIGER

@<TRIPOS>ATOM
      1 C          -8.3195  -18.7709   22.7727 C.ar    1  UNL1        0.1386
      2 C          -7.7600  -20.1096   22.3924 C.ar    1  UNL1        0.0370
      3 C          -6.3169  -20.2363   22.0033 C.ar    1  UNL1        0.0062
      4 C          -5.4332  -19.0243   21.9946 C.ar    1  UNL1        0.0374
      5 C          -5.9927  -17.6856   22.3750 C.ar    1  UNL1        0.0062
      6 C          -7.4358  -17.5589   22.7640 C.ar    1  UNL1        0.0370
      7 C          -3.9901  -19.1510   21.6056 C.ar    1  UNL1        0.1765
      8 C          -3.2022  -18.1570   20.8049 C.ar    1  UNL1        0.0581
      9 C          -1.8067  -18.6856   20.6534 C.ar    1  UNL1        0.1011
     10 C          -0.6831  -18.0118   19.9231 C.3     1  UNL1        0.0557
     11 N          -1.7321  -20.0064   21.3604 N.ar    1  UNL1       -0.0813
     12 O          -3.0815  -20.2941   21.9489 O.2     1  UNL1       -0.3537
     13 O          -9.7626  -18.6442   23.1618 O.3     1  UNL1       -0.4755
     14 C         -10.7073  -19.7840   22.9206 C.3     1  UNL1        0.2054
     15 C         -11.2110  -20.0604   21.5350 C.3     1  UNL1        0.0473
     16 C          -9.7664  -19.6445   19.4159 C.3     1  UNL1        0.0001
     17 C         -10.7993  -19.1743   20.3967 C.3     1  UNL1        0.0038
@<TRIPOS>BOND
     1    16    17    1
     2    17    15    1
     3    15    14    1
     4    14    13    1
     5    13     1    1
     6     1     2   ar
     7     2     3   ar
     8     3     4   ar
     9     4     7    1
    10     7     8   ar
    11     8     9   ar
    12     9    10    1
    13     9    11   ar
    14    11    12   ar
    15     4     5   ar
    16     5     6   ar
    17     6     1   ar
    18    12     7   ar
@<TRIPOS>MOLECULE
*****
 17 18 0 0 0
SMALL
GASTEIGER

@<TRIPOS>ATOM
      1 C          -4.2258  -19.7042   20.8273 C.ar    1  UNL1        0.1386
      2 C          -4.5521  -18.7556   21.9425 C.ar    1  UNL1        0.0370
      3 C          -5.9361  -18.7247   22.5201 C.ar    1  UNL1        0.0062
      4 C          -6.9938  -19.6424   21.9825 C.ar    1  UNL1        0.0374
      5 C          -6.6675  -20.5910   20.8673 C.ar    1  UNL1        0.0062
      6 C          -5.2836  -20.6219   20.2897 C.ar    1  UNL1        0.0370
      7 C          -8.3778  -19.6115   22.5602 C.ar    1  UNL1        0.1765
      8 C          -9.4772  -18.6706   22.1653 C.ar    1  UNL1        0.0581
      9 C         -10.6842  -18.9937   22.9952 C.ar    1  UNL1        0.1011
     10 C         -12.0116  -18.2982   22.9289 C.3     1  UNL1        0.0557
     11 N         -10.3308  -20.1343   23.9029 N.ar    1  UNL1       -0.0813
     12 O          -8.9054  -20.5162   23.6340 O.2     1  UNL1       -0.3537
     13 O          -2.8419  -19.7351   20.2496 O.3     1  UNL1       -0.4755
     14 C          -2.4893  -18.8398   19.0990 C.3     1  UNL1        0.2054
     15 C          -2.1643  -17.3961   19.3442 C.3     1  UNL1        0.0473
     16 C           0.3127  -17.5754   20.1075 C.3     1  UNL1        0.0001
     17 C          -1.0696  -17.0257   20.3005 C.3     1  UNL1        0.0038
@<TRIPOS>BOND
     1    16    17    1
     2    17    15    1
     3    15    14    1
     4    14    13    1
     5    13     1    1
     6     1     2   ar
     7     2     3   ar
     8     3     4   ar
     9     4     7    1
    10     7     8   ar
    11     8     9   ar
    12     9    10    1
    13     9    11   ar
    14    11    12   ar
    15     4     5   ar
    16     5     6   ar
    17     6     1   ar
    18    12     7   ar
@<TRIPOS>MOLECULE
*****
 17 18 0 0 0
SMALL
GASTEIGER

@<TRIPOS>ATOM
      1 C          -9.1709  -17.8129   23.4451 C.ar    1  UNL1        0.1386
      2 C          -9.1107  -19.2221   22.9349 C.ar    1  UNL1        0.0370
      3 C          -7.8596  -19.7306   22.2820 C.ar    1  UNL1        0.0062
      4 C          -6.6687  -18.8299   22.1395 C.ar    1  UNL1        0.0374
      5 C          -6.7289  -17.4207   22.6497 C.ar    1  UNL1        0.0062
      6 C          -7.9800  -16.9122   23.3026 C.ar    1  UNL1        0.0370
      7 C          -5.4176  -19.3384   21.4866 C.ar    1  UNL1        0.1765
      8 C          -4.0258  -18.8394   21.7394 C.ar    1  UNL1        0.0581
      9 C          -3.0867  -19.6278   20.8754 C.ar    1  UNL1        0.1011
     10 C          -1.5976  -19.4595   20.8097 C.3     1  UNL1        0.0557
     11 N          -3.8980  -20.6141   20.0887 N.ar    1  UNL1       -0.0813
     12 O          -5.3386  -20.4352   20.4664 O.2     1  UNL1       -0.3537
     13 O         -10.4220  -17.3044   24.0980 O.3     1  UNL1       -0.4755
     14 C         -11.6829  -17.1665   23.2974 C.3     1  UNL1        0.2054
     15 C         -12.7339  -18.2347   23.3635 C.3     1  UNL1        0.0473
     16 C         -14.2354  -18.4997   25.4671 C.3     1  UNL1        0.0001
     17 C         -14.0261  -17.9722   24.0786 C.3     1  UNL1        0.0038
@<TRIPOS>BOND
     1    16    17    1
     2    17    15    1
     3    15    14    1
     4    14    13    1
     5    13     1    1
     6     1     2   ar
     7     2     3   ar
     8     3     4   ar
     9     4     7    1
    10     7     8   ar
    11     8     9   ar
    12     9    10    1
    13     9    11   ar
    14    11    12   ar
    15     4     5   ar
    16     5     6   ar
    17     6     1   ar
    18    12     7   ar
@<TRIPOS>MOLECULE
*****
 17 18 0 0 0
SMALL
GASTEIGER

@<TRIPOS>ATOM
      1 C          -6.3108  -20.1905   20.4922 C.ar    1  UNL1        0.1386
      2 C          -6.3496  -20.5154   21.9561 C.ar    1  UNL1        0.0370
      3 C          -7.5615  -20.1693   22.7693 C.ar    1  UNL1        0.0062
      4 C          -8.7347  -19.4982   22.1187 C.ar    1  UNL1        0.0374
      5 C          -8.6959  -19.1733   20.6549 C.ar    1  UNL1        0.0062
      6 C          -7.4840  -19.5194   19.8416 C.ar    1  UNL1        0.0370
      7 C          -9.9467  -19.1521   22.9319 C.ar    1  UNL1        0.1765
      8 C         -11.2246  -18.5691   22.4056 C.ar    1  UNL1        0.0581
      9 C         -12.1612  -18.3849   23.5627 C.ar    1  UNL1        0.1011
     10 C         -13.5526  -17.8292   23.4908 C.3     1  UNL1        0.0557
     11 N         -11.4622  -18.8540   24.8041 N.ar    1  UNL1       -0.0813
     12 O         -10.0935  -19.3281   24.4143 O.2     1  UNL1       -0.3537
     13 O          -5.0988  -20.5366   19.6790 O.3     1  UNL1       -0.4755
     14 C          -3.7277  -20.2714   20.2262 C.3     1  UNL1        0.2054
     15 C          -3.0591  -18.9536   19.9683 C.3     1  UNL1        0.0473
     16 C          -0.8356  -17.6267   19.7551 C.3     1  UNL1        0.0001
     17 C          -1.6244  -18.7517   20.3569 C.3     1  UNL1        0.0038
@<TRIPOS>BOND
     1    16    17    1
     2    17    15    1
     3    15    14    1
     4    14    13    1
     5    13     1    1
     6     1     2   ar
     7     2     3   ar
     8     3     4   ar
     9     4     7    1
    10     7     8   ar
    11     8     9   ar
    12     9    10    1
    13     9    11   ar
    14    11    12   ar
    15     4     5   ar
    16     5     6   ar
    17     6     1   ar
    18    12     7   ar
@<TRIPOS>MOLECULE
*****
 17 18 0 0 0
SMALL
GASTEIGER

@<TRIPOS>ATOM
      1 C          -8.8217  -16.4340   25.4768 C.ar    1  UNL1        0.1386
      2 C          -9.3629  -17.8319   25.4217 C.ar    1  UNL1        0.0370
      3 C          -9.6760  -18.4634   24.0977 C.ar    1  UNL1        0.0062
      4 C          -9.4479  -17.6970   22.8286 C.ar    1  UNL1        0.0374
      5 C          -8.9067  -16.2991   22.8836 C.ar    1  UNL1        0.0062
      6 C          -8.5936  -15.6677   24.2077 C.ar    1  UNL1        0.0370
      7 C          -9.7610  -18.3284   21.5045 C.ar    1  UNL1        0.1765
      8 C          -8.8514  -19.2255   20.7184 C.ar    1  UNL1        0.0581
      9 C          -9.5669  -19.6252   19.4621 C.ar    1  UNL1        0.1011
     10 C          -9.0256  -20.5181   18.3852 C.3     1  UNL1        0.0557
     11 N         -10.9188  -18.9752   19.4717 N.ar    1  UNL1       -0.0813
     12 O         -11.0387  -18.1738   20.7340 O.2     1  UNL1       -0.3537
     13 O          -8.5085  -15.8026   26.8008 O.3     1  UNL1       -0.4755
     14 C          -7.1103  -15.8485   27.3417 C.3     1  UNL1        0.2054
     15 C          -6.0065  -15.1241   26.6298 C.3     1  UNL1        0.0473
     16 C          -5.1274  -15.4970   24.2135 C.3     1  UNL1        0.0001
     17 C          -5.1229  -15.8624   25.6684 C.3     1  UNL1        0.0038
@<TRIPOS>BOND
     1    16    17    1
     2    17    15    1
     3    15    14    1
     4    14    13    1
     5    13     1    1
     6     1     2   ar
     7     2     3   ar
     8     3     4   ar
     9     4     7    1
    10     7     8   ar
    11     8     9   ar
    12     9    10    1
    13     9    11   ar
    14    11    12   ar
    15     4     5   ar
    16     5     6   ar
    17     6     1   ar
    18    12     7   ar
