@<TRIPOS>MOLECULE
*****
 31 34 0 0 0
SMALL
GASTEIGER

@<TRIPOS>ATOM
      1 N          -7.9389  -19.2805   20.7145 N.am    1  UNL1       -0.2723
      2 C          -9.1051  -19.2904   19.7712 C.2     1  UNL1        0.2685
      3 O          -9.0373  -20.0890   18.5033 O.2     1  UNL1       -0.2682
      4 N          -8.2152  -16.0242   25.8848 N.3     1  UNL1       -0.2727
      5 C          -7.5357  -15.6060   24.6146 C.3     1  UNL1        0.0721
      6 C          -7.7156  -16.7045   23.6092 C.3     1  UNL1        0.0190
      7 C          -7.4068  -17.1249   22.2028 C.3     1  UNL1        0.0213
      8 C          -8.0067  -18.4819   21.9825 C.3     1  UNL1        0.0761
      9 C          -8.6862  -18.9002   23.2525 C.3     1  UNL1        0.0213
     10 C          -8.5063  -17.8017   24.2580 C.3     1  UNL1        0.0190
     11 C          -8.8151  -17.3812   25.6643 C.3     1  UNL1        0.0721
     12 C          -7.0204  -14.8431   27.8666 C.3     1  UNL1        0.0188
     13 C          -8.2830  -15.2256   27.1527 C.3     1  UNL1        0.0721
     14 C         -10.3391  -18.5018   20.0958 C.ar    1  UNL1        0.1535
     15 C         -11.4228  -18.9125   21.0481 C.ar    1  UNL1        0.1012
     16 N         -12.4595  -17.8285   21.0659 N.ar    1  UNL1       -0.3057
     17 C         -13.7182  -17.8256   21.8817 C.3     1  UNL1        0.1321
     18 C         -12.0164  -16.7479   20.1247 C.ar    1  UNL1        0.1787
     19 N         -10.7059  -17.1640   19.5251 N.ar    1  UNL1       -0.2192
     20 C          -6.7050  -20.0691   20.3899 C.3     1  UNL1        0.1205
     21 C          -5.3649  -19.5968   20.8706 C.ar    1  UNL1        0.0007
     22 C          -5.0295  -19.6536   22.3316 C.ar    1  UNL1       -0.0024
     23 C          -3.6894  -19.1813   22.8123 C.ar    1  UNL1        0.0028
     24 C          -2.6847  -18.6521   21.8321 C.ar    1  UNL1        0.0372
     25 C          -3.0202  -18.5953   20.3712 C.ar    1  UNL1        0.1465
     26 C          -4.3603  -19.0677   19.8905 C.ar    1  UNL1        0.0346
     27 O          -2.0156  -18.0662   19.3911 O.3     1  UNL1       -0.4045
     28 C          -0.6584  -17.6383   19.8654 C.3     1  UNL1        0.5753
     29 F           0.6988  -17.2104   20.3396 F       1  UNL1       -0.1328
     30 F          -1.2113  -16.2935   20.2341 F       1  UNL1       -0.1328
     31 F          -0.1056  -18.9830   19.4966 F       1  UNL1       -0.1328
@<TRIPOS>BOND
     1    12    13    1
     2    13     4    1
     3     4     5    1
     4     6     5    1
     5     6     7    1
     6     7     8    1
     7     8     1    1
     8     1    20    1
     9    20    21    1
    10    21    22   ar
    11    22    23   ar
    12    23    24   ar
    13    24    25   ar
    14    25    27    1
    15    27    28    1
    16    28    29    1
    17    28    30    1
    18    28    31    1
    19    25    26   ar
    20     1     2   am
    21     2     3    2
    22     2    14    1
    23    14    15   ar
    24    15    16   ar
    25    16    17    1
    26    16    18   ar
    27    18    19   ar
    28     8     9    1
    29    10     9    1
    30    10    11    1
    31    11     4    1
    32    10     6    1
    33    26    21   ar
    34    19    14   ar
@<TRIPOS>MOLECULE
*****
 31 34 0 0 0
SMALL
GASTEIGER

@<TRIPOS>ATOM
      1 N          -8.0532  -19.4836   21.1319 N.am    1  UNL1       -0.2723
      2 C          -9.1789  -19.5167   20.1412 C.2     1  UNL1        0.2685
      3 O          -9.0816  -20.3882   18.9242 O.2     1  UNL1       -0.2682
      4 N          -8.4502  -15.9299   26.0943 N.3     1  UNL1       -0.2727
      5 C          -8.9655  -17.3331   25.9713 C.3     1  UNL1        0.0721
      6 C          -8.6542  -17.8217   24.5876 C.3     1  UNL1        0.0190
      7 C          -8.7804  -18.9909   23.6564 C.3     1  UNL1        0.0213
      8 C          -8.1505  -18.6121   22.3489 C.3     1  UNL1        0.0761
      9 C          -7.6352  -17.2088   22.4719 C.3     1  UNL1        0.0213
     10 C          -7.9465  -16.7203   23.8555 C.3     1  UNL1        0.0190
     11 C          -7.8203  -15.5511   24.7867 C.3     1  UNL1        0.0721
     12 C          -7.2999  -14.5778   27.9914 C.3     1  UNL1        0.0188
     13 C          -8.5475  -15.0583   27.3113 C.3     1  UNL1        0.0721
     14 C         -10.4021  -18.6784   20.3674 C.ar    1  UNL1        0.1535
     15 C         -10.7285  -17.3897   19.6726 C.ar    1  UNL1        0.1012
     16 N         -12.0417  -16.8964   20.2039 N.ar    1  UNL1       -0.3057
     17 C         -12.7461  -15.6399   19.7856 C.3     1  UNL1        0.1321
     18 C         -12.5268  -17.8802   21.2270 C.ar    1  UNL1        0.1787
     19 N         -11.5134  -18.9815   21.3280 N.ar    1  UNL1       -0.2192
     20 C          -6.8301  -20.3219   20.9057 C.3     1  UNL1        0.1205
     21 C          -5.4793  -19.6738   20.8341 C.ar    1  UNL1        0.0007
     22 C          -4.7001  -19.7037   19.5527 C.ar    1  UNL1       -0.0024
     23 C          -3.3492  -19.0555   19.4811 C.ar    1  UNL1        0.0028
     24 C          -2.7776  -18.3775   20.6909 C.ar    1  UNL1        0.0372
     25 C          -3.5568  -18.3476   21.9722 C.ar    1  UNL1        0.1465
     26 C          -4.9077  -18.9957   22.0438 C.ar    1  UNL1        0.0346
     27 O          -2.9852  -17.6696   23.1819 O.3     1  UNL1       -0.4045
     28 C          -3.8988  -17.0306   24.1855 C.3     1  UNL1        0.5753
     29 F          -4.8124  -16.3916   25.1890 F       1  UNL1       -0.1328
     30 F          -3.5434  -18.0914   25.1846 F       1  UNL1       -0.1328
     31 F          -4.2542  -15.9697   23.1863 F       1  UNL1       -0.1328
@<TRIPOS>BOND
     1    12    13    1
     2    13     4    1
     3     4     5    1
     4     6     5    1
     5     6     7    1
     6     7     8    1
     7     8     1    1
     8     1    20    1
     9    20    21    1
    10    21    22   ar
    11    22    23   ar
    12    23    24   ar
    13    24    25   ar
    14    25    27    1
    15    27    28    1
    16    28    29    1
    17    28    30    1
    18    28    31    1
    19    25    26   ar
    20     1     2   am
    21     2     3    2
    22     2    14    1
    23    14    15   ar
    24    15    16   ar
    25    16    17    1
    26    16    18   ar
    27    18    19   ar
    28     8     9    1
    29    10     9    1
    30    10    11    1
    31    11     4    1
    32    10     6    1
    33    26    21   ar
    34    19    14   ar
@<TRIPOS>MOLECULE
*****
 31 34 0 0 0
SMALL
GASTEIGER

@<TRIPOS>ATOM
      1 N          -6.7819  -16.5865   23.7345 N.am    1  UNL1       -0.2723
      2 C          -5.4529  -15.9461   24.0057 C.2     1  UNL1        0.2685
      3 O          -5.3302  -14.8936   25.0675 O.2     1  UNL1       -0.2682
      4 N          -7.2824  -20.8780   19.4051 N.3     1  UNL1       -0.2727
      5 C          -6.3083  -20.8857   20.5458 C.3     1  UNL1        0.0721
      6 C          -6.5361  -19.6455   21.3583 C.3     1  UNL1        0.0190
      7 C          -6.0748  -18.8838   22.5653 C.3     1  UNL1        0.0213
      8 C          -6.9047  -17.6389   22.6728 C.3     1  UNL1        0.0761
      9 C          -7.8787  -17.6312   21.5322 C.3     1  UNL1        0.0213
     10 C          -7.6510  -18.8713   20.7197 C.3     1  UNL1        0.0190
     11 C          -8.1122  -19.6331   19.5127 C.3     1  UNL1        0.0721
     12 C          -8.6827  -22.0701   17.5699 C.3     1  UNL1        0.0188
     13 C          -7.4051  -21.9304   18.3434 C.3     1  UNL1        0.0721
     14 C          -4.2465  -16.3582   23.2152 C.ar    1  UNL1        0.1535
     15 C          -3.6519  -17.7344   23.1671 C.ar    1  UNL1        0.1012
     16 N          -2.4608  -17.6931   22.2561 N.ar    1  UNL1       -0.3057
     17 C          -1.5680  -18.8504   21.9191 C.3     1  UNL1        0.1321
     18 C          -2.3195  -16.2914   21.7412 C.ar    1  UNL1        0.1787
     19 N          -3.4231  -15.4664   22.3340 N.ar    1  UNL1       -0.2192
     20 C          -7.9882  -16.1744   24.5251 C.3     1  UNL1        0.1205
     21 C          -9.2413  -16.9967   24.4648 C.ar    1  UNL1        0.0007
     22 C          -9.4663  -18.0950   25.4614 C.ar    1  UNL1       -0.0024
     23 C         -10.7193  -18.9173   25.4011 C.ar    1  UNL1        0.0028
     24 C         -11.7474  -18.6414   24.3442 C.ar    1  UNL1        0.0372
     25 C         -11.5223  -17.5431   23.3476 C.ar    1  UNL1        0.1465
     26 C         -10.2693  -16.7208   23.4079 C.ar    1  UNL1        0.0346
     27 O         -12.5503  -17.2672   22.2907 O.3     1  UNL1       -0.4045
     28 C         -12.1720  -17.3344   20.8407 C.3     1  UNL1        0.5753
     29 F         -11.7937  -17.4016   19.3908 F       1  UNL1       -0.1328
     30 F         -11.5408  -18.6761   21.0676 F       1  UNL1       -0.1328
     31 F         -12.8032  -15.9927   20.6139 F       1  UNL1       -0.1328
@<TRIPOS>BOND
     1    12    13    1
     2    13     4    1
     3     4     5    1
     4     6     5    1
     5     6     7    1
     6     7     8    1
     7     8     1    1
     8     1    20    1
     9    20    21    1
    10    21    22   ar
    11    22    23   ar
    12    23    24   ar
    13    24    25   ar
    14    25    27    1
    15    27    28    1
    16    28    29    1
    17    28    30    1
    18    28    31    1
    19    25    26   ar
    20     1     2   am
    21     2     3    2
    22     2    14    1
    23    14    15   ar
    24    15    16   ar
    25    16    17    1
    26    16    18   ar
    27    18    19   ar
    28     8     9    1
    29    10     9    1
    30    10    11    1
    31    11     4    1
    32    10     6    1
    33    26    21   ar
    34    19    14   ar
@<TRIPOS>MOLECULE
*****
 31 34 0 0 0
SMALL
GASTEIGER

@<TRIPOS>ATOM
      1 N           4.6980    1.8329   34.3514 N.am    1  UNL1       -0.2723
      2 C           5.4967    0.6326   34.7651 C.2     1  UNL1        0.2685
      3 O           6.4613    0.7317   35.9096 O.2     1  UNL1       -0.2682
      4 N           0.7648    1.4287   29.6847 N.3     1  UNL1       -0.2727
      5 C           0.4230    1.8061   31.0956 C.3     1  UNL1        0.0721
      6 C           1.6875    1.7785   31.9021 C.3     1  UNL1        0.0190
      7 C           2.2578    1.9946   33.2725 C.3     1  UNL1        0.0213
      8 C           3.7334    1.7338   33.2069 C.3     1  UNL1        0.0761
      9 C           4.0752    1.3564   31.7961 C.3     1  UNL1        0.0213
     10 C           2.8107    1.3840   30.9896 C.3     1  UNL1        0.0190
     11 C           2.2405    1.1679   29.6191 C.3     1  UNL1        0.0721
     12 C          -1.4031    0.4407   28.6484 C.3     1  UNL1        0.0188
     13 C          -0.1998    1.3296   28.5402 C.3     1  UNL1        0.0721
     14 C           5.3310   -0.6669   34.0344 C.ar    1  UNL1        0.1535
     15 C           6.3424   -1.3041   33.1283 C.ar    1  UNL1        0.1012
     16 N           5.7612   -2.5884   32.6154 N.ar    1  UNL1       -0.3057
     17 C           6.4327   -3.5477   31.6780 C.3     1  UNL1        0.1321
     18 C           4.3906   -2.7447   33.2045 C.ar    1  UNL1        0.1787
     19 N           4.1248   -1.5572   34.0814 N.ar    1  UNL1       -0.2192
     20 C           4.8637    3.1323   35.0821 C.3     1  UNL1        0.1205
     21 C           4.3143    3.2881   36.4691 C.ar    1  UNL1        0.0007
     22 C           5.1409    3.9468   37.5336 C.ar    1  UNL1       -0.0024
     23 C           4.5915    4.1026   38.9207 C.ar    1  UNL1        0.0028
     24 C           3.2155    3.5999   39.2432 C.ar    1  UNL1        0.0372
     25 C           2.3890    2.9413   38.1787 C.ar    1  UNL1        0.1465
     26 C           2.9384    2.7855   36.7917 C.ar    1  UNL1        0.0346
     27 O           1.0131    2.4386   38.5013 O.3     1  UNL1       -0.4045
     28 C           0.8133    1.4723   39.6310 C.3     1  UNL1        0.5753
     29 F           0.6136    0.5060   40.7608 F       1  UNL1       -0.1328
     30 F           0.3345    2.5933   40.5052 F       1  UNL1       -0.1328
     31 F           1.2921    0.3513   38.7569 F       1  UNL1       -0.1328
@<TRIPOS>BOND
     1    12    13    1
     2    13     4    1
     3     4     5    1
     4     6     5    1
     5     6     7    1
     6     7     8    1
     7     8     1    1
     8     1    20    1
     9    20    21    1
    10    21    22   ar
    11    22    23   ar
    12    23    24   ar
    13    24    25   ar
    14    25    27    1
    15    27    28    1
    16    28    29    1
    17    28    30    1
    18    28    31    1
    19    25    26   ar
    20     1     2   am
    21     2     3    2
    22     2    14    1
    23    14    15   ar
    24    15    16   ar
    25    16    17    1
    26    16    18   ar
    27    18    19   ar
    28     8     9    1
    29    10     9    1
    30    10    11    1
    31    11     4    1
    32    10     6    1
    33    26    21   ar
    34    19    14   ar
@<TRIPOS>MOLECULE
*****
 31 34 0 0 0
SMALL
GASTEIGER

@<TRIPOS>ATOM
      1 N           3.6016    2.8759   33.5642 N.am    1  UNL1       -0.2723
      2 C           2.4224    3.5203   32.8977 C.2     1  UNL1        0.2685
      3 O           1.8470    4.7888   33.4543 O.2     1  UNL1       -0.2682
      4 N           5.9482   -2.2964   31.2943 N.3     1  UNL1       -0.2727
      5 C           6.3509   -0.9031   30.9115 C.3     1  UNL1        0.0721
      6 C           5.5205    0.0559   31.7121 C.3     1  UNL1        0.0190
      7 C           5.2562    1.5097   31.9704 C.3     1  UNL1        0.0213
      8 C           4.1770    1.6075   33.0075 C.3     1  UNL1        0.0761
      9 C           3.7743    0.2142   33.3903 C.3     1  UNL1        0.0213
     10 C           4.6046   -0.7448   32.5897 C.3     1  UNL1        0.0190
     11 C           4.8689   -2.1985   32.3314 C.3     1  UNL1        0.0721
     12 C           6.9917   -4.6465   31.6653 C.3     1  UNL1        0.0188
     13 C           6.5236   -3.5648   30.7376 C.3     1  UNL1        0.0721
     14 C           1.8187    2.8964   31.6744 C.ar    1  UNL1        0.1535
     15 C           2.0800    3.3061   30.2553 C.ar    1  UNL1        0.1012
     16 N           1.2704    2.4160   29.3595 N.ar    1  UNL1       -0.3057
     17 C           1.2296    2.4753   27.8612 C.3     1  UNL1        0.1321
     18 C           0.5089    1.4563   30.2249 C.ar    1  UNL1        0.1787
     19 N           0.8478    1.7532   31.6556 N.ar    1  UNL1       -0.2192
     20 C           4.2052    3.4999   34.7873 C.3     1  UNL1        0.1205
     21 C           4.0678    2.8243   36.1195 C.ar    1  UNL1        0.0007
     22 C           5.2563    2.7073   37.0272 C.ar    1  UNL1       -0.0024
     23 C           5.1189    2.0318   38.3594 C.ar    1  UNL1        0.0028
     24 C           3.7930    1.4732   38.7839 C.ar    1  UNL1        0.0372
     25 C           2.6046    1.5903   37.8762 C.ar    1  UNL1        0.1465
     26 C           2.7420    2.2658   36.5440 C.ar    1  UNL1        0.0346
     27 O           1.2788    1.0317   38.3007 O.3     1  UNL1       -0.4045
     28 C           0.8805    1.0620   39.7465 C.3     1  UNL1        0.5753
     29 F           0.4821    1.0922   41.1923 F       1  UNL1       -0.1328
     30 F           1.0159   -0.4303   39.8151 F       1  UNL1       -0.1328
     31 F           0.7450    2.5543   39.6780 F       1  UNL1       -0.1328
@<TRIPOS>BOND
     1    12    13    1
     2    13     4    1
     3     4     5    1
     4     6     5    1
     5     6     7    1
     6     7     8    1
     7     8     1    1
     8     1    20    1
     9    20    21    1
    10    21    22   ar
    11    22    23   ar
    12    23    24   ar
    13    24    25   ar
    14    25    27    1
    15    27    28    1
    16    28    29    1
    17    28    30    1
    18    28    31    1
    19    25    26   ar
    20     1     2   am
    21     2     3    2
    22     2    14    1
    23    14    15   ar
    24    15    16   ar
    25    16    17    1
    26    16    18   ar
    27    18    19   ar
    28     8     9    1
    29    10     9    1
    30    10    11    1
    31    11     4    1
    32    10     6    1
    33    26    21   ar
    34    19    14   ar
@<TRIPOS>MOLECULE
*****
 31 34 0 0 0
SMALL
GASTEIGER

@<TRIPOS>ATOM
      1 N           4.2985   -1.3737   18.8236 N.am    1  UNL1       -0.2723
      2 C           3.6902   -0.5458   17.7308 C.2     1  UNL1        0.2685
      3 O           3.8112   -0.9847   16.3015 O.2     1  UNL1       -0.2682
      4 N           3.8050    0.4159   24.6516 N.3     1  UNL1       -0.2727
      5 C           4.9043    0.7932   23.7035 C.3     1  UNL1        0.0721
      6 C           4.6267    0.1332   22.3854 C.3     1  UNL1        0.0190
      7 C           5.1346   -0.0416   20.9849 C.3     1  UNL1        0.0213
      8 C           4.1775   -0.9348   20.2529 C.3     1  UNL1        0.0761
      9 C           3.0781   -1.3122   21.2009 C.3     1  UNL1        0.0213
     10 C           3.3557   -0.6521   22.5190 C.3     1  UNL1        0.0190
     11 C           2.8479   -0.4774   23.9195 C.3     1  UNL1        0.0721
     12 C           3.4770   -0.1631   27.1630 C.3     1  UNL1        0.0188
     13 C           3.6839    0.8548   26.0808 C.3     1  UNL1        0.0721
     14 C           2.9608    0.7211   18.0671 C.ar    1  UNL1        0.1535
     15 C           1.4856    0.8525   18.3049 C.ar    1  UNL1        0.1012
     16 N           1.1916    2.2916   18.6094 N.ar    1  UNL1       -0.3057
     17 C          -0.1588    2.8711   18.9106 C.3     1  UNL1        0.1321
     18 C           2.4851    3.0494   18.5598 C.ar    1  UNL1        0.1787
     19 N           3.5785    2.0788   18.2247 N.ar    1  UNL1       -0.2192
     20 C           5.0279   -2.6405   18.4873 C.3     1  UNL1        0.1205
     21 C           6.3333   -2.9546   19.1561 C.ar    1  UNL1        0.0007
     22 C           7.5932   -2.2847   18.6936 C.ar    1  UNL1       -0.0024
     23 C           8.8986   -2.5987   19.3624 C.ar    1  UNL1        0.0028
     24 C           8.9441   -3.5827   20.4937 C.ar    1  UNL1        0.0372
     25 C           7.6842   -4.2526   20.9562 C.ar    1  UNL1        0.1465
     26 C           6.3788   -3.9385   20.2874 C.ar    1  UNL1        0.0346
     27 O           7.7297   -5.2365   22.0875 O.3     1  UNL1       -0.4045
     28 C           7.8532   -4.7492   23.5007 C.3     1  UNL1        0.5753
     29 F           7.9767   -4.2620   24.9140 F       1  UNL1       -0.1328
     30 F           9.3222   -5.0517   23.4766 F       1  UNL1       -0.1328
     31 F           6.3842   -4.4467   23.5248 F       1  UNL1       -0.1328
@<TRIPOS>BOND
     1    12    13    1
     2    13     4    1
     3     4     5    1
     4     6     5    1
     5     6     7    1
     6     7     8    1
     7     8     1    1
     8     1    20    1
     9    20    21    1
    10    21    22   ar
    11    22    23   ar
    12    23    24   ar
    13    24    25   ar
    14    25    27    1
    15    27    28    1
    16    28    29    1
    17    28    30    1
    18    28    31    1
    19    25    26   ar
    20     1     2   am
    21     2     3    2
    22     2    14    1
    23    14    15   ar
    24    15    16   ar
    25    16    17    1
    26    16    18   ar
    27    18    19   ar
    28     8     9    1
    29    10     9    1
    30    10    11    1
    31    11     4    1
    32    10     6    1
    33    26    21   ar
    34    19    14   ar
@<TRIPOS>MOLECULE
*****
 31 34 0 0 0
SMALL
GASTEIGER

@<TRIPOS>ATOM
      1 N         -17.0639   -4.6221   19.4385 N.am    1  UNL1       -0.2723
      2 C         -18.3069   -5.4492   19.5828 C.2     1  UNL1        0.2685
      3 O         -19.6028   -4.7957   19.9620 O.2     1  UNL1       -0.2682
      4 N         -11.7799   -7.2866   17.8923 N.3     1  UNL1       -0.2727
      5 C         -12.1288   -6.7393   19.2446 C.3     1  UNL1        0.0721
      6 C         -13.5189   -6.1802   19.1739 C.3     1  UNL1        0.0190
      7 C         -14.5937   -5.4964   19.9659 C.3     1  UNL1        0.0213
      8 C         -15.7681   -5.2755   19.0593 C.3     1  UNL1        0.0761
      9 C         -15.4192   -5.8228   17.7071 C.3     1  UNL1        0.0213
     10 C         -14.0291   -6.3819   17.7778 C.3     1  UNL1        0.0190
     11 C         -12.9544   -7.0657   16.9858 C.3     1  UNL1        0.0721
     12 C          -9.3295   -7.9278   18.4706 C.3     1  UNL1        0.0188
     13 C         -10.4840   -7.9400   17.5131 C.3     1  UNL1        0.0721
     14 C         -18.2541   -6.9298   19.3479 C.ar    1  UNL1        0.1535
     15 C         -18.8007   -7.6529   18.1528 C.ar    1  UNL1        0.1012
     16 N         -18.5298   -9.1172   18.3332 N.ar    1  UNL1       -0.3057
     17 C         -18.9067  -10.2081   17.3752 C.3     1  UNL1        0.1321
     18 C         -17.8158   -9.2990   19.6398 C.ar    1  UNL1        0.1787
     19 N         -17.6455   -7.9471   20.2669 N.ar    1  UNL1       -0.2192
     20 C         -17.1168   -3.1416   19.6734 C.3     1  UNL1        0.1205
     21 C         -16.1960   -2.2291   18.9187 C.ar    1  UNL1        0.0007
     22 C         -16.6976   -1.4837   17.7174 C.ar    1  UNL1       -0.0024
     23 C         -15.7768   -0.5712   16.9627 C.ar    1  UNL1        0.0028
     24 C         -14.3546   -0.4041   17.4093 C.ar    1  UNL1        0.0372
     25 C         -13.8531   -1.1494   18.6105 C.ar    1  UNL1        0.1465
     26 C         -14.7739   -2.0619   19.3652 C.ar    1  UNL1        0.0346
     27 O         -12.4310   -0.9823   19.0570 O.3     1  UNL1       -0.4045
     28 C         -11.3639   -1.8877   18.5170 C.3     1  UNL1        0.5753
     29 F         -10.2969   -2.7932   17.9770 F       1  UNL1       -0.1328
     30 F         -10.8424   -0.7667   17.6677 F       1  UNL1       -0.1328
     31 F         -11.8855   -3.0088   19.3663 F       1  UNL1       -0.1328
@<TRIPOS>BOND
     1    12    13    1
     2    13     4    1
     3     4     5    1
     4     6     5    1
     5     6     7    1
     6     7     8    1
     7     8     1    1
     8     1    20    1
     9    20    21    1
    10    21    22   ar
    11    22    23   ar
    12    23    24   ar
    13    24    25   ar
    14    25    27    1
    15    27    28    1
    16    28    29    1
    17    28    30    1
    18    28    31    1
    19    25    26   ar
    20     1     2   am
    21     2     3    2
    22     2    14    1
    23    14    15   ar
    24    15    16   ar
    25    16    17    1
    26    16    18   ar
    27    18    19   ar
    28     8     9    1
    29    10     9    1
    30    10    11    1
    31    11     4    1
    32    10     6    1
    33    26    21   ar
    34    19    14   ar
@<TRIPOS>MOLECULE
*****
 31 34 0 0 0
SMALL
GASTEIGER

@<TRIPOS>ATOM
      1 N           4.2912   -0.0810   34.1046 N.am    1  UNL1       -0.2723
      2 C           4.2632   -1.0298   32.9432 C.2     1  UNL1        0.2685
      3 O           4.7565   -2.4364   33.1118 O.2     1  UNL1       -0.2682
      4 N           2.2800    5.6543   33.4171 N.3     1  UNL1       -0.2727
      5 C           1.4382    4.4591   33.7528 C.3     1  UNL1        0.0721
      6 C           2.3395    3.2621   33.8228 C.3     1  UNL1        0.0190
      7 C           2.3763    1.7837   34.0735 C.3     1  UNL1        0.0213
      8 C           3.7980    1.3255   33.9360 C.3     1  UNL1        0.0761
      9 C           4.6398    2.5207   33.6003 C.3     1  UNL1        0.0213
     10 C           3.7384    3.7176   33.5303 C.3     1  UNL1        0.0190
     11 C           3.7016    5.1961   33.2796 C.3     1  UNL1        0.0721
     12 C           0.5884    7.5326   34.0175 C.3     1  UNL1        0.0188
     13 C           1.7867    7.0609   33.2485 C.3     1  UNL1        0.0721
     14 C           3.7420   -0.5722   31.6131 C.ar    1  UNL1        0.1535
     15 C           4.4938    0.2468   30.6060 C.ar    1  UNL1        0.1012
     16 N           3.5939    0.4719   29.4272 N.ar    1  UNL1       -0.3057
     17 C           3.9409    1.2418   28.1874 C.3     1  UNL1        0.1321
     18 C           2.2862   -0.2079   29.7058 C.ar    1  UNL1        0.1787
     19 N           2.3778   -0.8532   31.0568 N.ar    1  UNL1       -0.2192
     20 C           4.8124   -0.5387   35.4345 C.3     1  UNL1        0.1205
     21 C           4.9256    0.4340   36.5708 C.ar    1  UNL1        0.0007
     22 C           6.1872    1.2234   36.7594 C.ar    1  UNL1       -0.0024
     23 C           6.3005    2.1961   37.8956 C.ar    1  UNL1        0.0028
     24 C           5.1522    2.3795   38.8432 C.ar    1  UNL1        0.0372
     25 C           3.8907    1.5902   38.6546 C.ar    1  UNL1        0.1465
     26 C           3.7774    0.6175   37.5183 C.ar    1  UNL1        0.0346
     27 O           2.7425    1.7736   39.6021 O.3     1  UNL1       -0.4045
     28 C           1.3788    1.2683   39.2348 C.3     1  UNL1        0.5753
     29 F           0.0151    0.7630   38.8674 F       1  UNL1       -0.1328
     30 F           1.1113    2.5377   38.4818 F       1  UNL1       -0.1328
     31 F           1.6464   -0.0012   39.9877 F       1  UNL1       -0.1328
@<TRIPOS>BOND
     1    12    13    1
     2    13     4    1
     3     4     5    1
     4     6     5    1
     5     6     7    1
     6     7     8    1
     7     8     1    1
     8     1    20    1
     9    20    21    1
    10    21    22   ar
    11    22    23   ar
    12    23    24   ar
    13    24    25   ar
    14    25    27    1
    15    27    28    1
    16    28    29    1
    17    28    30    1
    18    28    31    1
    19    25    26   ar
    20     1     2   am
    21     2     3    2
    22     2    14    1
    23    14    15   ar
    24    15    16   ar
    25    16    17    1
    26    16    18   ar
    27    18    19   ar
    28     8     9    1
    29    10     9    1
    30    10    11    1
    31    11     4    1
    32    10     6    1
    33    26    21   ar
    34    19    14   ar
@<TRIPOS>MOLECULE
*****
 31 34 0 0 0
SMALL
GASTEIGER

@<TRIPOS>ATOM
      1 N           5.4757   -0.0660   34.9469 N.am    1  UNL1       -0.2723
      2 C           6.9531   -0.0882   34.6888 C.2     1  UNL1        0.2685
      3 O           7.9123   -0.2320   35.8330 O.2     1  UNL1       -0.2682
      4 N           1.5643    0.5205   30.2812 N.3     1  UNL1       -0.2727
      5 C           2.4656   -0.6516   30.5342 C.3     1  UNL1        0.0721
      6 C           3.2490   -0.3730   31.7827 C.3     1  UNL1        0.0190
      7 C           4.2901   -0.9252   32.7106 C.3     1  UNL1        0.0213
      8 C           4.5165    0.0778   33.8027 C.3     1  UNL1        0.0761
      9 C           3.6153    1.2499   33.5497 C.3     1  UNL1        0.0213
     10 C           2.8319    0.9713   32.3013 C.3     1  UNL1        0.0190
     11 C           1.7908    1.5235   31.3733 C.3     1  UNL1        0.0721
     12 C          -0.4900   -0.3426   28.9453 C.3     1  UNL1        0.0188
     13 C           0.6051    0.6643   29.1370 C.3     1  UNL1        0.0721
     14 C           7.4714    0.0335   33.2864 C.ar    1  UNL1        0.1535
     15 C           7.9521   -1.0952   32.4231 C.ar    1  UNL1        0.1012
     16 N           8.3777   -0.5210   31.1042 N.ar    1  UNL1       -0.3057
     17 C           8.9249   -1.2944   29.9413 C.3     1  UNL1        0.1321
     18 C           8.1601    0.9623   31.1525 C.ar    1  UNL1        0.1787
     19 N           7.6000    1.3049   32.5012 N.ar    1  UNL1       -0.2192
     20 C           4.9575   -0.1877   36.3492 C.3     1  UNL1        0.1205
     21 C           4.6280    1.0458   37.1367 C.ar    1  UNL1        0.0007
     22 C           5.4693    2.2785   36.9865 C.ar    1  UNL1       -0.0024
     23 C           5.1398    3.5120   37.7739 C.ar    1  UNL1        0.0028
     24 C           3.9689    3.5126   38.7116 C.ar    1  UNL1        0.0372
     25 C           3.1277    2.2799   38.8618 C.ar    1  UNL1        0.1465
     26 C           3.4572    1.0465   38.0743 C.ar    1  UNL1        0.0346
     27 O           1.9569    2.2806   39.7994 O.3     1  UNL1       -0.4045
     28 C           0.6389    1.7199   39.3539 C.3     1  UNL1        0.5753
     29 F          -0.6791    1.1591   38.9084 F       1  UNL1       -0.1328
     30 F           0.9735    0.4127   40.0092 F       1  UNL1       -0.1328
     31 F           0.3042    3.0270   38.6987 F       1  UNL1       -0.1328
@<TRIPOS>BOND
     1    12    13    1
     2    13     4    1
     3     4     5    1
     4     6     5    1
     5     6     7    1
     6     7     8    1
     7     8     1    1
     8     1    20    1
     9    20    21    1
    10    21    22   ar
    11    22    23   ar
    12    23    24   ar
    13    24    25   ar
    14    25    27    1
    15    27    28    1
    16    28    29    1
    17    28    30    1
    18    28    31    1
    19    25    26   ar
    20     1     2   am
    21     2     3    2
    22     2    14    1
    23    14    15   ar
    24    15    16   ar
    25    16    17    1
    26    16    18   ar
    27    18    19   ar
    28     8     9    1
    29    10     9    1
    30    10    11    1
    31    11     4    1
    32    10     6    1
    33    26    21   ar
    34    19    14   ar
