@<TRIPOS>MOLECULE
*****
 28 31 0 0 0
SMALL
GASTEIGER

@<TRIPOS>ATOM
      1 C           5.9484   -2.5934   21.4984 C.ar    1  UNL1        0.0504
      2 C           5.2468   -2.5913   22.8242 C.ar    1  UNL1        0.0160
      3 C           5.7141   -3.5012   23.9213 C.ar    1  UNL1        0.0196
      4 C           6.8829   -4.4131   23.6927 C.ar    1  UNL1        0.1057
      5 C           7.5845   -4.4151   22.3669 C.ar    1  UNL1        0.0196
      6 C           7.1173   -3.5053   21.2698 C.ar    1  UNL1        0.0160
      7 O           3.7324   -3.4611   19.6717 O.2     1  UNL1       -0.2748
      8 C           4.3732   -2.1174   19.4878 C.2     1  UNL1        0.2260
      9 N           5.4812   -1.6835   20.4011 N.am    1  UNL1       -0.2839
     10 H           5.9017   -0.8016   20.2804 H       1  UNL1        0.1549
     11 C           3.9060   -1.2075   18.3906 C.3     1  UNL1        0.0812
     12 C           3.7876   -0.8884   16.9298 C.3     1  UNL1        0.0143
     13 C           3.2151    0.0492   17.9510 C.3     1  UNL1        0.0330
     14 C           2.4856    1.3161   18.2868 C.ar    1  UNL1       -0.0029
     15 C           3.2503    2.5902   18.4916 C.ar    1  UNL1       -0.0011
     16 C           2.5209    3.8571   18.8275 C.ar    1  UNL1        0.0204
     17 C           1.0266    3.8499   18.9586 C.ar    1  UNL1        0.0989
     18 N           0.2618    2.5759   18.7538 N.ar    1  UNL1       -0.2426
     19 C           0.9914    1.3090   18.4179 C.ar    1  UNL1        0.0946
     20 S           7.3502   -5.3229   24.7900 S.O2    1  UNL1        0.0072
     21 O           6.9081   -4.3177   25.8117 O.2     1  UNL1       -0.1687
     22 O           7.7922   -6.3282   23.7682 O.2     1  UNL1       -0.1687
     23 C           7.8174   -6.2327   25.8872 C.3     1  UNL1        0.1388
     24 C           8.4968   -7.5269   25.5501 C.3     1  UNL1        0.0561
     25 C           8.9640   -8.4367   26.6473 C.3     1  UNL1        0.1439
     26 O           8.7519   -8.0524   28.0817 O.3     1  UNL1       -0.3537
     27 C           8.0725   -6.7583   28.4188 C.3     1  UNL1        0.1439
     28 C           7.6052   -5.8484   27.3215 C.3     1  UNL1        0.0561
@<TRIPOS>BOND
     1     7     8    2
     2     8     9   am
     3     9     1    1
     4     1     2   ar
     5     2     3   ar
     6     3     4   ar
     7     4    20    1
     8    20    21    2
     9    20    22    2
    10    20    23    1
    11    23    24    1
    12    24    25    1
    13    25    26    1
    14    26    27    1
    15    27    28    1
    16     4     5   ar
    17     5     6   ar
    18    11     8    1
    19    11    12    1
    20    12    13    1
    21    13    14    1
    22    14    15   ar
    23    15    16   ar
    24    16    17   ar
    25    17    18   ar
    26    18    19   ar
    27     6     1   ar
    28    13    11    1
    29    19    14   ar
    30    28    23    1
    31     9    10    1
@<TRIPOS>MOLECULE
*****
 28 31 0 0 0
SMALL
GASTEIGER

@<TRIPOS>ATOM
      1 C           4.1119   -2.4057   21.2891 C.ar    1  UNL1        0.0504
      2 C           3.5463   -1.4777   22.3229 C.ar    1  UNL1        0.0160
      3 C           2.5832   -0.4014   21.9179 C.ar    1  UNL1        0.0196
      4 C           2.1857   -0.2532   20.4792 C.ar    1  UNL1        0.1057
      5 C           2.7513   -1.1812   19.4454 C.ar    1  UNL1        0.0196
      6 C           3.7144   -2.2575   19.8503 C.ar    1  UNL1        0.0160
      7 O           7.0663   -1.9009   21.1606 O.2     1  UNL1       -0.2748
      8 C           6.5522   -3.2297   21.6298 C.2     1  UNL1        0.2260
      9 N           5.0750   -3.4821   21.6940 N.am    1  UNL1       -0.2839
     10 H           4.7376   -4.3542   22.0019 H       1  UNL1        0.1549
     11 C           7.5154   -4.3060   22.0347 C.3     1  UNL1        0.0812
     12 C           8.7031   -5.1691   21.7276 C.3     1  UNL1        0.0143
     13 C           7.9958   -5.3072   23.0431 C.3     1  UNL1        0.0330
     14 C           7.8647   -5.9649   24.3848 C.ar    1  UNL1       -0.0029
     15 C           8.3945   -7.3525   24.5948 C.ar    1  UNL1       -0.0011
     16 C           8.2634   -8.0102   25.9365 C.ar    1  UNL1        0.0204
     17 C           7.6026   -7.2804   27.0682 C.ar    1  UNL1        0.0989
     18 N           7.0729   -5.8929   26.8582 N.ar    1  UNL1       -0.2426
     19 C           7.2039   -5.2351   25.5164 C.ar    1  UNL1        0.0946
     20 S           1.2226    0.8232   20.0743 S.O2    1  UNL1        0.0072
     21 O           2.3407    1.5762   19.4165 O.2     1  UNL1       -0.1687
     22 O           0.1044    0.0701   20.7320 O.2     1  UNL1       -0.1687
     23 C           0.2595    1.8995   19.6693 C.3     1  UNL1        0.1388
     24 C          -0.7855    2.3733   20.6356 C.3     1  UNL1        0.0561
     25 C          -1.7485    3.4496   20.2307 C.3     1  UNL1        0.1439
     26 O          -1.6667    4.0522   18.8595 O.3     1  UNL1       -0.3537
     27 C          -0.6218    3.5785   17.8932 C.3     1  UNL1        0.1439
     28 C           0.3414    2.5021   18.2981 C.3     1  UNL1        0.0561
@<TRIPOS>BOND
     1     7     8    2
     2     8     9   am
     3     9     1    1
     4     1     2   ar
     5     2     3   ar
     6     3     4   ar
     7     4    20    1
     8    20    21    2
     9    20    22    2
    10    20    23    1
    11    23    24    1
    12    24    25    1
    13    25    26    1
    14    26    27    1
    15    27    28    1
    16     4     5   ar
    17     5     6   ar
    18    11     8    1
    19    11    12    1
    20    12    13    1
    21    13    14    1
    22    14    15   ar
    23    15    16   ar
    24    16    17   ar
    25    17    18   ar
    26    18    19   ar
    27     6     1   ar
    28    13    11    1
    29    19    14   ar
    30    28    23    1
    31     9    10    1
@<TRIPOS>MOLECULE
*****
 28 31 0 0 0
SMALL
GASTEIGER

@<TRIPOS>ATOM
      1 C           6.4307   -3.4284   23.4582 C.ar    1  UNL1        0.0504
      2 C           7.2315   -4.6940   23.5415 C.ar    1  UNL1        0.0160
      3 C           7.6079   -5.2566   24.8801 C.ar    1  UNL1        0.0196
      4 C           7.1835   -4.5536   26.1353 C.ar    1  UNL1        0.1057
      5 C           6.3827   -3.2880   26.0520 C.ar    1  UNL1        0.0196
      6 C           6.0063   -2.7254   24.7135 C.ar    1  UNL1        0.0160
      7 O           4.1304   -4.6016   21.9309 O.2     1  UNL1       -0.2748
      8 C           4.9042   -3.4523   21.3560 C.2     1  UNL1        0.2260
      9 N           6.0543   -2.8657   22.1196 N.am    1  UNL1       -0.2839
     10 H           6.5621   -2.1115   21.7422 H       1  UNL1        0.1549
     11 C           4.5278   -2.8897   20.0174 C.3     1  UNL1        0.0812
     12 C           4.6131   -2.9308   18.5204 C.3     1  UNL1        0.0143
     13 C           3.7905   -1.8740   19.1959 C.3     1  UNL1        0.0330
     14 C           2.8899   -0.6774   19.1117 C.ar    1  UNL1       -0.0029
     15 C           1.5789   -0.6726   19.8407 C.ar    1  UNL1       -0.0011
     16 C           0.6783    0.5239   19.7564 C.ar    1  UNL1        0.0204
     17 C           1.0887    1.7157   18.9432 C.ar    1  UNL1        0.0989
     18 N           2.3996    1.7109   18.2142 N.ar    1  UNL1       -0.2426
     19 C           3.3002    0.5143   18.2985 C.ar    1  UNL1        0.0946
     20 S           7.5599   -5.1163   27.4739 S.O2    1  UNL1        0.0072
     21 O           7.1755   -6.4883   27.0052 O.2     1  UNL1       -0.1687
     22 O           7.9442   -3.7442   27.9426 O.2     1  UNL1       -0.1687
     23 C           7.9363   -5.6790   28.8124 C.3     1  UNL1        0.1388
     24 C           7.0918   -5.3806   30.0158 C.3     1  UNL1        0.0561
     25 C           7.4682   -5.9433   31.3543 C.3     1  UNL1        0.1439
     26 O           8.6890   -6.8043   31.4896 O.3     1  UNL1       -0.3537
     27 C           9.5335   -7.1026   30.2863 C.3     1  UNL1        0.1439
     28 C           9.1571   -6.5400   28.9477 C.3     1  UNL1        0.0561
@<TRIPOS>BOND
     1     7     8    2
     2     8     9   am
     3     9     1    1
     4     1     2   ar
     5     2     3   ar
     6     3     4   ar
     7     4    20    1
     8    20    21    2
     9    20    22    2
    10    20    23    1
    11    23    24    1
    12    24    25    1
    13    25    26    1
    14    26    27    1
    15    27    28    1
    16     4     5   ar
    17     5     6   ar
    18    11     8    1
    19    11    12    1
    20    12    13    1
    21    13    14    1
    22    14    15   ar
    23    15    16   ar
    24    16    17   ar
    25    17    18   ar
    26    18    19   ar
    27     6     1   ar
    28    13    11    1
    29    19    14   ar
    30    28    23    1
    31     9    10    1
@<TRIPOS>MOLECULE
*****
 28 31 0 0 0
SMALL
GASTEIGER

@<TRIPOS>ATOM
      1 C           6.1369   -2.1581   32.2803 C.ar    1  UNL1        0.0504
      2 C           4.7497   -2.2748   32.8387 C.ar    1  UNL1        0.0160
      3 C           4.3681   -1.5025   34.0666 C.ar    1  UNL1        0.0196
      4 C           5.3738   -0.6136   34.7363 C.ar    1  UNL1        0.1057
      5 C           6.7611   -0.4970   34.1779 C.ar    1  UNL1        0.0196
      6 C           7.1426   -1.2692   32.9499 C.ar    1  UNL1        0.0160
      7 O           6.6088   -5.1157   32.4546 O.2     1  UNL1       -0.2748
      8 C           6.7544   -4.4092   31.1394 C.2     1  UNL1        0.2260
      9 N           6.5185   -2.9304   31.0523 N.am    1  UNL1       -0.2839
     10 H           6.6142   -2.4667   30.1891 H       1  UNL1        0.1549
     11 C           7.1361   -5.1815   29.9114 C.3     1  UNL1        0.0812
     12 C           7.7157   -6.4116   29.2784 C.3     1  UNL1        0.0143
     13 C           7.2173   -5.2890   28.4174 C.3     1  UNL1        0.0330
     14 C           6.9765   -4.7029   27.0579 C.ar    1  UNL1       -0.0029
     15 C           7.2573   -5.5169   25.8297 C.ar    1  UNL1       -0.0011
     16 C           7.0165   -4.9308   24.4702 C.ar    1  UNL1        0.0204
     17 C           6.4948   -3.5306   24.3387 C.ar    1  UNL1        0.0989
     18 N           6.2140   -2.7165   25.5669 N.ar    1  UNL1       -0.2426
     19 C           6.4548   -3.3027   26.9265 C.ar    1  UNL1        0.0946
     20 S           4.9922    0.1587   35.9643 S.O2    1  UNL1        0.0072
     21 O           3.9330    0.8779   35.1828 O.2     1  UNL1       -0.1687
     22 O           6.0514   -0.5605   36.7458 O.2     1  UNL1       -0.1687
     23 C           4.6106    0.9310   37.1922 C.3     1  UNL1        0.1388
     24 C           5.6525    1.7021   37.9473 C.3     1  UNL1        0.0561
     25 C           5.2708    2.4744   39.1752 C.3     1  UNL1        0.1439
     26 O           3.8473    2.4756   39.6482 O.3     1  UNL1       -0.3537
     27 C           2.8055    1.7046   38.8932 C.3     1  UNL1        0.1439
     28 C           3.1871    0.9322   37.6652 C.3     1  UNL1        0.0561
@<TRIPOS>BOND
     1     7     8    2
     2     8     9   am
     3     9     1    1
     4     1     2   ar
     5     2     3   ar
     6     3     4   ar
     7     4    20    1
     8    20    21    2
     9    20    22    2
    10    20    23    1
    11    23    24    1
    12    24    25    1
    13    25    26    1
    14    26    27    1
    15    27    28    1
    16     4     5   ar
    17     5     6   ar
    18    11     8    1
    19    11    12    1
    20    12    13    1
    21    13    14    1
    22    14    15   ar
    23    15    16   ar
    24    16    17   ar
    25    17    18   ar
    26    18    19   ar
    27     6     1   ar
    28    13    11    1
    29    19    14   ar
    30    28    23    1
    31     9    10    1
@<TRIPOS>MOLECULE
*****
 28 31 0 0 0
SMALL
GASTEIGER

@<TRIPOS>ATOM
      1 C           3.6383   -1.2701   27.8873 C.ar    1  UNL1        0.0504
      2 C           2.4197   -0.7487   28.5894 C.ar    1  UNL1        0.0160
      3 C           2.4957   -0.3625   30.0368 C.ar    1  UNL1        0.0196
      4 C           3.7903   -0.4976   30.7821 C.ar    1  UNL1        0.1057
      5 C           5.0090   -1.0190   30.0801 C.ar    1  UNL1        0.0196
      6 C           4.9330   -1.4052   28.6327 C.ar    1  UNL1        0.0160
      7 O           3.8094    0.8392   25.7609 O.2     1  UNL1       -0.2748
      8 C           3.6479   -0.6017   25.3767 C.2     1  UNL1        0.2260
      9 N           3.5624   -1.6563   26.4399 N.am    1  UNL1       -0.2839
     10 H           3.4564   -2.6021   26.1877 H       1  UNL1        0.1549
     11 C           3.5719   -0.9880   23.9292 C.3     1  UNL1        0.0812
     12 C           3.9730   -1.8953   22.8041 C.3     1  UNL1        0.0143
     13 C           3.0393   -0.7497   22.5473 C.3     1  UNL1        0.0330
     14 C           2.1928    0.0492   21.6013 C.ar    1  UNL1       -0.0029
     15 C           1.6947   -0.5743   20.3312 C.ar    1  UNL1       -0.0011
     16 C           0.8482    0.2247   19.3852 C.ar    1  UNL1        0.0204
     17 C           0.4997    1.6472   19.7093 C.ar    1  UNL1        0.0989
     18 N           0.9977    2.2708   20.9794 N.ar    1  UNL1       -0.2426
     19 C           1.8443    1.4717   21.9254 C.ar    1  UNL1        0.0946
     20 S           3.8663   -0.1114   32.2296 S.O2    1  UNL1        0.0072
     21 O           4.1509    1.3078   31.8359 O.2     1  UNL1       -0.1687
     22 O           3.5817   -1.5305   32.6233 O.2     1  UNL1       -0.1687
     23 C           3.9423    0.2749   33.6770 C.3     1  UNL1        0.1388
     24 C           4.6689   -0.6047   34.6509 C.3     1  UNL1        0.0561
     25 C           4.7448   -0.2184   36.0983 C.3     1  UNL1        0.1439
     26 O           4.0943    1.0475   36.5718 O.3     1  UNL1       -0.3537
     27 C           3.3677    1.9271   35.5980 C.3     1  UNL1        0.1439
     28 C           3.2917    1.5408   34.1505 C.3     1  UNL1        0.0561
@<TRIPOS>BOND
     1     7     8    2
     2     8     9   am
     3     9     1    1
     4     1     2   ar
     5     2     3   ar
     6     3     4   ar
     7     4    20    1
     8    20    21    2
     9    20    22    2
    10    20    23    1
    11    23    24    1
    12    24    25    1
    13    25    26    1
    14    26    27    1
    15    27    28    1
    16     4     5   ar
    17     5     6   ar
    18    11     8    1
    19    11    12    1
    20    12    13    1
    21    13    14    1
    22    14    15   ar
    23    15    16   ar
    24    16    17   ar
    25    17    18   ar
    26    18    19   ar
    27     6     1   ar
    28    13    11    1
    29    19    14   ar
    30    28    23    1
    31     9    10    1
@<TRIPOS>MOLECULE
*****
 28 31 0 0 0
SMALL
GASTEIGER

@<TRIPOS>ATOM
      1 C           6.1858   -2.1329   32.3102 C.ar    1  UNL1        0.0504
      2 C           7.1939   -1.2781   33.0193 C.ar    1  UNL1        0.0160
      3 C           6.7951   -0.5060   34.2419 C.ar    1  UNL1        0.0196
      4 C           5.3882   -0.5889   34.7555 C.ar    1  UNL1        0.1057
      5 C           4.3801   -1.4438   34.0464 C.ar    1  UNL1        0.0196
      6 C           4.7789   -2.2158   32.8238 C.ar    1  UNL1        0.0160
      7 O           6.5329   -5.1089   32.4623 O.2     1  UNL1       -0.2748
      8 C           6.7581   -4.3930   31.1636 C.2     1  UNL1        0.2260
      9 N           6.5845   -2.9050   31.0875 N.am    1  UNL1       -0.2839
     10 H           6.7323   -2.4351   30.2351 H       1  UNL1        0.1549
     11 C           7.1569   -5.1651   29.9409 C.3     1  UNL1        0.0812
     12 C           7.7686   -6.3840   29.3164 C.3     1  UNL1        0.0143
     13 C           7.2358   -5.2834   28.4476 C.3     1  UNL1        0.0330
     14 C           6.9739   -4.7163   27.0839 C.ar    1  UNL1       -0.0029
     15 C           6.5192   -3.2943   26.9377 C.ar    1  UNL1       -0.0011
     16 C           6.2572   -2.7272   25.5740 C.ar    1  UNL1        0.0204
     17 C           6.4499   -3.5820   24.3565 C.ar    1  UNL1        0.0989
     18 N           6.9046   -5.0039   24.5028 N.ar    1  UNL1       -0.2426
     19 C           7.1666   -5.5710   25.8665 C.ar    1  UNL1        0.0946
     20 S           4.9894    0.1832   35.9782 S.O2    1  UNL1        0.0072
     21 O           3.9517    0.9136   35.1785 O.2     1  UNL1       -0.1687
     22 O           6.0271   -0.5472   36.7779 O.2     1  UNL1       -0.1687
     23 C           4.5906    0.9553   37.2008 C.3     1  UNL1        0.1388
     24 C           3.1630    0.9462   37.6611 C.3     1  UNL1        0.0561
     25 C           2.7642    1.7183   38.8837 C.3     1  UNL1        0.1439
     26 O           3.7930    2.4994   39.6461 O.3     1  UNL1       -0.3537
     27 C           5.2206    2.5085   39.1859 C.3     1  UNL1        0.1439
     28 C           5.6195    1.7365   37.9632 C.3     1  UNL1        0.0561
@<TRIPOS>BOND
     1     7     8    2
     2     8     9   am
     3     9     1    1
     4     1     2   ar
     5     2     3   ar
     6     3     4   ar
     7     4    20    1
     8    20    21    2
     9    20    22    2
    10    20    23    1
    11    23    24    1
    12    24    25    1
    13    25    26    1
    14    26    27    1
    15    27    28    1
    16     4     5   ar
    17     5     6   ar
    18    11     8    1
    19    11    12    1
    20    12    13    1
    21    13    14    1
    22    14    15   ar
    23    15    16   ar
    24    16    17   ar
    25    17    18   ar
    26    18    19   ar
    27     6     1   ar
    28    13    11    1
    29    19    14   ar
    30    28    23    1
    31     9    10    1
@<TRIPOS>MOLECULE
*****
 28 31 0 0 0
SMALL
GASTEIGER

@<TRIPOS>ATOM
      1 C          -0.7698    2.9991   20.8803 C.ar    1  UNL1        0.0504
      2 C          -0.7316    3.2137   22.3644 C.ar    1  UNL1        0.0160
      3 C          -1.9694    3.6486   23.0913 C.ar    1  UNL1        0.0196
      4 C          -3.2455    3.8689   22.3343 C.ar    1  UNL1        0.1057
      5 C          -3.2837    3.6544   20.8502 C.ar    1  UNL1        0.0196
      6 C          -2.0458    3.2195   20.1232 C.ar    1  UNL1        0.0160
      7 O          -0.1733    0.0778   20.5486 O.2     1  UNL1       -0.2748
      8 C           0.7663    1.1035   19.9874 C.2     1  UNL1        0.2260
      9 N           0.4681    2.5642   20.1532 N.am    1  UNL1       -0.2839
     10 H           1.0848    3.2374   19.7849 H       1  UNL1        0.1549
     11 C           2.0042    0.6686   19.2603 C.3     1  UNL1        0.0812
     12 C           3.0536    0.9177   18.2179 C.3     1  UNL1        0.0143
     13 C           3.0987   -0.3339   19.0434 C.3     1  UNL1        0.0330
     14 C           3.7567   -1.6352   19.3948 C.ar    1  UNL1       -0.0029
     15 C           3.8299   -2.0760   20.8267 C.ar    1  UNL1       -0.0011
     16 C           4.4879   -3.3774   21.1781 C.ar    1  UNL1        0.0204
     17 C           5.0728   -4.2379   20.0976 C.ar    1  UNL1        0.0989
     18 N           4.9996   -3.7971   18.6657 N.ar    1  UNL1       -0.2426
     19 C           4.3416   -2.4957   18.3143 C.ar    1  UNL1        0.0946
     20 S          -4.4833    4.3039   23.0614 S.O2    1  UNL1        0.0072
     21 O          -5.0794    2.9421   22.8612 O.2     1  UNL1       -0.1687
     22 O          -3.8873    5.6657   23.2615 O.2     1  UNL1       -0.1687
     23 C          -5.7212    4.7388   23.7884 C.3     1  UNL1        0.1388
     24 C          -7.0738    4.3928   23.2398 C.3     1  UNL1        0.0561
     25 C          -8.3116    4.8277   23.9669 C.3     1  UNL1        0.1439
     26 O          -8.1969    5.6085   25.2425 O.3     1  UNL1       -0.3537
     27 C          -6.8444    5.9545   25.7910 C.3     1  UNL1        0.1439
     28 C          -5.6065    5.5196   25.0640 C.3     1  UNL1        0.0561
@<TRIPOS>BOND
     1     7     8    2
     2     8     9   am
     3     9     1    1
     4     1     2   ar
     5     2     3   ar
     6     3     4   ar
     7     4    20    1
     8    20    21    2
     9    20    22    2
    10    20    23    1
    11    23    24    1
    12    24    25    1
    13    25    26    1
    14    26    27    1
    15    27    28    1
    16     4     5   ar
    17     5     6   ar
    18    11     8    1
    19    11    12    1
    20    12    13    1
    21    13    14    1
    22    14    15   ar
    23    15    16   ar
    24    16    17   ar
    25    17    18   ar
    26    18    19   ar
    27     6     1   ar
    28    13    11    1
    29    19    14   ar
    30    28    23    1
    31     9    10    1
@<TRIPOS>MOLECULE
*****
 28 31 0 0 0
SMALL
GASTEIGER

@<TRIPOS>ATOM
      1 C           1.4060    2.6494   30.7934 C.ar    1  UNL1        0.0504
      2 C           2.3306    1.5719   31.2770 C.ar    1  UNL1        0.0160
      3 C           2.7170    1.5094   32.7250 C.ar    1  UNL1        0.0196
      4 C           2.1788    2.5244   33.6894 C.ar    1  UNL1        0.1057
      5 C           1.2541    3.6019   33.2058 C.ar    1  UNL1        0.0196
      6 C           0.8677    3.6644   31.7578 C.ar    1  UNL1        0.0160
      7 O          -0.6234    0.7305   29.6982 O.2     1  UNL1       -0.2748
      8 C           0.0049    1.7525   28.7977 C.2     1  UNL1        0.2260
      9 N           1.0195    2.7120   29.3453 N.am    1  UNL1       -0.2839
     10 H           1.4318    3.3828   28.7544 H       1  UNL1        0.1549
     11 C          -0.3816    1.8151   27.3497 C.3     1  UNL1        0.0812
     12 C          -0.2106    1.3382   25.9378 C.3     1  UNL1        0.0143
     13 C          -1.2218    2.4002   26.2535 C.3     1  UNL1        0.0330
     14 C          -2.2908    3.3511   25.8029 C.ar    1  UNL1       -0.0029
     15 C          -3.4331    3.6830   26.7167 C.ar    1  UNL1       -0.0011
     16 C          -4.5020    4.6340   26.2661 C.ar    1  UNL1        0.0204
     17 C          -4.4287    5.2531   24.9017 C.ar    1  UNL1        0.0989
     18 N          -3.2863    4.9211   23.9880 N.ar    1  UNL1       -0.2426
     19 C          -2.2174    3.9701   24.4386 C.ar    1  UNL1        0.0946
     20 S           2.5652    2.4619   35.1375 S.O2    1  UNL1        0.0072
     21 O           3.5122    1.3383   34.8362 O.2     1  UNL1       -0.1687
     22 O           1.6183    3.5854   35.4388 O.2     1  UNL1       -0.1687
     23 C           2.9517    2.3993   36.5854 C.3     1  UNL1        0.1388
     24 C           2.2917    3.3100   37.5779 C.3     1  UNL1        0.0561
     25 C           2.6781    3.2475   39.0259 C.3     1  UNL1        0.1439
     26 O           3.7246    2.2741   39.4815 O.3     1  UNL1       -0.3537
     27 C           4.3846    1.3634   38.4891 C.3     1  UNL1        0.1439
     28 C           3.9982    1.4260   37.0410 C.3     1  UNL1        0.0561
@<TRIPOS>BOND
     1     7     8    2
     2     8     9   am
     3     9     1    1
     4     1     2   ar
     5     2     3   ar
     6     3     4   ar
     7     4    20    1
     8    20    21    2
     9    20    22    2
    10    20    23    1
    11    23    24    1
    12    24    25    1
    13    25    26    1
    14    26    27    1
    15    27    28    1
    16     4     5   ar
    17     5     6   ar
    18    11     8    1
    19    11    12    1
    20    12    13    1
    21    13    14    1
    22    14    15   ar
    23    15    16   ar
    24    16    17   ar
    25    17    18   ar
    26    18    19   ar
    27     6     1   ar
    28    13    11    1
    29    19    14   ar
    30    28    23    1
    31     9    10    1
@<TRIPOS>MOLECULE
*****
 28 31 0 0 0
SMALL
GASTEIGER

@<TRIPOS>ATOM
      1 C           0.5718    0.7876   21.0333 C.ar    1  UNL1        0.0504
      2 C           0.9288   -0.2305   19.9913 C.ar    1  UNL1        0.0160
      3 C           2.0939   -1.1497   20.2091 C.ar    1  UNL1        0.0196
      4 C           2.9019   -1.0509   21.4690 C.ar    1  UNL1        0.1057
      5 C           2.5449   -0.0328   22.5111 C.ar    1  UNL1        0.0196
      6 C           1.3798    0.8865   22.2932 C.ar    1  UNL1        0.0160
      7 O           0.7939    3.0542   19.0805 O.2     1  UNL1       -0.2748
      8 C          -0.4823    2.8402   19.8391 C.2     1  UNL1        0.2260
      9 N          -0.5934    1.7070   20.8156 N.am    1  UNL1       -0.2839
     10 H          -1.4310    1.5666   21.3135 H       1  UNL1        0.1549
     11 C          -1.6474    3.7596   19.6213 C.3     1  UNL1        0.0812
     12 C          -2.3043    4.8629   18.8461 C.3     1  UNL1        0.0143
     13 C          -3.0085    4.2485   20.0193 C.3     1  UNL1        0.0330
     14 C          -4.2009    4.1760   20.9265 C.ar    1  UNL1       -0.0029
     15 C          -4.0548    3.6271   22.3148 C.ar    1  UNL1       -0.0011
     16 C          -5.2471    3.5546   23.2219 C.ar    1  UNL1        0.0204
     17 C          -6.5857    4.0309   22.7407 C.ar    1  UNL1        0.0989
     18 N          -6.7318    4.5798   21.3524 N.ar    1  UNL1       -0.2426
     19 C          -5.5393    4.6523   20.4453 C.ar    1  UNL1        0.0946
     20 S           4.0670   -1.9703   21.6868 S.O2    1  UNL1        0.0072
     21 O           3.9314   -1.7907   23.1698 O.2     1  UNL1       -0.1687
     22 O           4.2027   -2.1498   20.2038 O.2     1  UNL1       -0.1687
     23 C           5.2321   -2.8896   21.9046 C.3     1  UNL1        0.1388
     24 C           5.4908   -3.4628   23.2665 C.3     1  UNL1        0.0561
     25 C           6.6559   -4.3821   23.4843 C.3     1  UNL1        0.1439
     26 O           7.5623   -4.7282   22.3403 O.3     1  UNL1       -0.3537
     27 C           7.3036   -4.1550   20.9786 C.3     1  UNL1        0.1439
     28 C           6.1385   -3.2357   20.7607 C.3     1  UNL1        0.0561
@<TRIPOS>BOND
     1     7     8    2
     2     8     9   am
     3     9     1    1
     4     1     2   ar
     5     2     3   ar
     6     3     4   ar
     7     4    20    1
     8    20    21    2
     9    20    22    2
    10    20    23    1
    11    23    24    1
    12    24    25    1
    13    25    26    1
    14    26    27    1
    15    27    28    1
    16     4     5   ar
    17     5     6   ar
    18    11     8    1
    19    11    12    1
    20    12    13    1
    21    13    14    1
    22    14    15   ar
    23    15    16   ar
    24    16    17   ar
    25    17    18   ar
    26    18    19   ar
    27     6     1   ar
    28    13    11    1
    29    19    14   ar
    30    28    23    1
    31     9    10    1
