@<TRIPOS>MOLECULE
*****
 33 35 0 0 0
SMALL
GASTEIGER

@<TRIPOS>ATOM
      1 C          -8.7473  -18.6974   21.9452 C.ar    1  UNL1        0.0053
      2 C          -8.6516  -19.3716   20.6087 C.ar    1  UNL1        0.0033
      3 C          -7.3138  -19.5555   19.9557 C.ar    1  UNL1        0.0382
      4 C          -6.0718  -19.0653   20.6391 C.ar    1  UNL1        0.1524
      5 C          -6.1676  -18.3911   21.9756 C.ar    1  UNL1        0.0881
      6 C          -7.5053  -18.2072   22.6286 C.ar    1  UNL1        0.0181
      7 N          -4.9256  -17.9008   22.6590 N.am    1  UNL1       -0.2531
      8 C          -3.5878  -18.0847   22.0060 C.2     1  UNL1        0.2656
      9 O          -2.3458  -17.5944   22.6894 O.2     1  UNL1       -0.2708
     10 C          -3.4920  -18.7589   20.6694 C.3     1  UNL1        0.2011
     11 C          -2.8926  -19.3320   19.4195 C.3     1  UNL1        0.0532
     12 O          -4.7340  -19.2492   19.9860 O.3     1  UNL1       -0.4727
     13 C         -10.9987  -17.4155   22.1403 C.ar    1  UNL1        0.0645
     14 N         -12.3365  -17.2315   22.7934 N.ar    1  UNL1       -0.2183
     15 C         -12.7607  -18.1456   23.9045 C.ar    1  UNL1        0.2145
     16 N         -14.0985  -17.9616   24.5576 N.pl3   1  UNL1       -0.3274
     17 N         -11.8472  -19.2436   24.3625 N.ar    1  UNL1       -0.1995
     18 C         -10.5093  -19.4275   23.7094 C.ar    1  UNL1        0.1293
     19 N          -9.5958  -20.5255   24.1674 N.pl3   1  UNL1       -0.3425
     20 C         -10.0852  -18.5135   22.5983 C.ar    1  UNL1        0.0449
     21 H         -14.6981  -17.2409   24.2569 H       1  UNL1        0.1452
     22 H         -14.3769  -18.5615   25.2868 H       1  UNL1        0.1452
     23 H          -9.8742  -21.1254   24.8967 H       1  UNL1        0.1437
     24 H          -8.7178  -20.6463   23.7388 H       1  UNL1        0.1437
     25 C         -11.4660  -16.3033   19.8392 C.3     1  UNL1        0.0067
     26 C         -10.5745  -16.5014   21.0291 C.3     1  UNL1        0.0460
     27 C          -2.0419  -18.4677   20.9187 C.3     1  UNL1        0.0491
     28 C          -1.0944  -18.3335   19.7636 C.3     1  UNL1        0.0042
     29 C          -5.0214  -17.2266   23.9955 C.3     1  UNL1        0.1010
     30 C          -5.2211  -15.7420   24.0740 C.3     1  UNL1        0.0539
     31 C          -6.2793  -15.1741   24.9728 C.3     1  UNL1        0.1440
     32 O          -7.6369  -14.8518   24.4224 O.3     1  UNL1       -0.3510
     33 C          -8.8393  -15.6110   24.8995 C.3     1  UNL1        0.1741
@<TRIPOS>BOND
     1    25    26    1
     2    26    13    1
     3    13    14   ar
     4    14    15   ar
     5    15    16    1
     6    15    17   ar
     7    17    18   ar
     8    18    19    1
     9    18    20   ar
    10    20     1    1
    11     1     2   ar
    12     2     3   ar
    13     3     4   ar
    14     4     5   ar
    15     5     6   ar
    16     5     7    1
    17     7    29    1
    18    29    30    1
    19    30    31    1
    20    31    32    1
    21    32    33    1
    22     7     8   am
    23     8     9    2
    24     8    10    1
    25    10    11    1
    26    10    27    1
    27    27    28    1
    28    10    12    1
    29    20    13   ar
    30     6     1   ar
    31    12     4    1
    32    16    21    1
    33    16    22    1
    34    19    23    1
    35    19    24    1
@<TRIPOS>MOLECULE
*****
 33 35 0 0 0
SMALL
GASTEIGER

@<TRIPOS>ATOM
      1 C          -8.8375  -17.4903   23.3939 C.ar    1  UNL1        0.0053
      2 C          -8.0988  -16.4029   24.1163 C.ar    1  UNL1        0.0033
      3 C          -6.6158  -16.2602   23.9424 C.ar    1  UNL1        0.0382
      4 C          -5.8714  -17.2050   23.0461 C.ar    1  UNL1        0.1524
      5 C          -6.6101  -18.2925   22.3238 C.ar    1  UNL1        0.0881
      6 C          -8.0931  -18.4351   22.4977 C.ar    1  UNL1        0.0181
      7 N          -5.8657  -19.2373   21.4276 N.am    1  UNL1       -0.2531
      8 C          -4.3827  -19.0947   21.2537 C.2     1  UNL1        0.2656
      9 O          -3.6383  -20.0395   20.3575 O.2     1  UNL1       -0.2708
     10 C          -3.6440  -18.0072   21.9760 C.3     1  UNL1        0.2011
     11 C          -2.5100  -17.1437   22.4435 C.3     1  UNL1        0.0532
     12 O          -4.3883  -17.0624   22.8723 O.3     1  UNL1       -0.4727
     13 C         -10.8712  -18.7038   24.4623 C.ar    1  UNL1        0.0645
     14 N         -12.3542  -18.8465   24.6362 N.ar    1  UNL1       -0.2183
     15 C         -13.2866  -17.9184   23.9156 C.ar    1  UNL1        0.2145
     16 N         -14.7696  -18.0611   24.0895 N.pl3   1  UNL1       -0.3274
     17 N         -12.7360  -16.8476   23.0211 N.ar    1  UNL1       -0.1995
     18 C         -11.2529  -16.7049   22.8472 C.ar    1  UNL1        0.1293
     19 N         -10.7022  -15.6341   21.9527 N.pl3   1  UNL1       -0.3425
     20 C         -10.3205  -17.6330   23.5678 C.ar    1  UNL1        0.0449
     21 H         -15.1311  -18.7639   24.6766 H       1  UNL1        0.1452
     22 H         -15.3816  -17.4519   23.6165 H       1  UNL1        0.1452
     23 H         -11.3142  -15.0249   21.4798 H       1  UNL1        0.1437
     24 H          -9.7289  -15.5404   21.8386 H       1  UNL1        0.1437
     25 C          -9.5926  -20.9623   24.5827 C.3     1  UNL1        0.0067
     26 C          -9.9388  -19.6319   25.1829 C.3     1  UNL1        0.0460
     27 C          -2.5058  -18.6521   21.2422 C.3     1  UNL1        0.0491
     28 C          -1.3362  -17.8254   20.7967 C.3     1  UNL1        0.0042
     29 C          -6.6043  -20.3248   20.7053 C.3     1  UNL1        0.1010
     30 C          -7.2112  -20.0539   19.3605 C.3     1  UNL1        0.0539
     31 C          -8.7007  -19.9481   19.2174 C.3     1  UNL1        0.1440
     32 O          -9.3746  -18.6151   19.3556 O.3     1  UNL1       -0.3510
     33 C         -10.8255  -18.5434   19.7291 C.3     1  UNL1        0.1741
@<TRIPOS>BOND
     1    25    26    1
     2    26    13    1
     3    13    14   ar
     4    14    15   ar
     5    15    16    1
     6    15    17   ar
     7    17    18   ar
     8    18    19    1
     9    18    20   ar
    10    20     1    1
    11     1     2   ar
    12     2     3   ar
    13     3     4   ar
    14     4     5   ar
    15     5     6   ar
    16     5     7    1
    17     7    29    1
    18    29    30    1
    19    30    31    1
    20    31    32    1
    21    32    33    1
    22     7     8   am
    23     8     9    2
    24     8    10    1
    25    10    11    1
    26    10    27    1
    27    27    28    1
    28    10    12    1
    29    20    13   ar
    30     6     1   ar
    31    12     4    1
    32    16    21    1
    33    16    22    1
    34    19    23    1
    35    19    24    1
@<TRIPOS>MOLECULE
*****
 33 35 0 0 0
SMALL
GASTEIGER

@<TRIPOS>ATOM
      1 C          -8.8598  -17.5014   23.3700 C.ar    1  UNL1        0.0053
      2 C          -8.1775  -16.2982   23.9503 C.ar    1  UNL1        0.0033
      3 C          -6.6972  -16.1224   23.7838 C.ar    1  UNL1        0.0382
      4 C          -5.8992  -17.1497   23.0369 C.ar    1  UNL1        0.1524
      5 C          -6.5815  -18.3528   22.4566 C.ar    1  UNL1        0.0881
      6 C          -8.0618  -18.5287   22.6231 C.ar    1  UNL1        0.0181
      7 N          -5.7835  -19.3802   21.7097 N.am    1  UNL1       -0.2531
      8 C          -4.3032  -19.2043   21.5432 C.2     1  UNL1        0.2656
      9 O          -3.5052  -20.2316   20.7963 O.2     1  UNL1       -0.2708
     10 C          -3.6208  -18.0011   22.1235 C.3     1  UNL1        0.2011
     11 C          -2.5298  -17.0386   22.4885 C.3     1  UNL1        0.0532
     12 O          -4.4188  -16.9738   22.8704 O.3     1  UNL1       -0.4727
     13 C         -11.2875  -16.9858   22.6014 C.ar    1  UNL1        0.0645
     14 N         -12.7677  -17.1617   22.7679 N.ar    1  UNL1       -0.2183
     15 C         -13.3008  -18.0291   23.8695 C.ar    1  UNL1        0.2145
     16 N         -14.7811  -18.2049   24.0360 N.pl3   1  UNL1       -0.3274
     17 N         -12.3535  -18.7205   24.8047 N.ar    1  UNL1       -0.1995
     18 C         -10.8731  -18.5446   24.6382 C.ar    1  UNL1        0.1293
     19 N          -9.9258  -19.2361   25.5733 N.pl3   1  UNL1       -0.3425
     20 C         -10.3401  -17.6773   23.5365 C.ar    1  UNL1        0.0449
     21 H         -15.4028  -17.7511   23.4222 H       1  UNL1        0.1452
     22 H         -15.1309  -18.7742   24.7591 H       1  UNL1        0.1452
     23 H         -10.2757  -19.8053   26.2964 H       1  UNL1        0.1437
     24 H          -8.9542  -19.1206   25.4640 H       1  UNL1        0.1437
     25 C         -11.4635  -16.0630   20.1791 C.3     1  UNL1        0.0067
     26 C         -10.7544  -16.1185   21.4997 C.3     1  UNL1        0.0460
     27 C          -2.4440  -18.6941   21.5034 C.3     1  UNL1        0.0491
     28 C          -1.3718  -17.8919   20.8275 C.3     1  UNL1        0.0042
     29 C          -6.4658  -20.5833   21.1294 C.3     1  UNL1        0.1010
     30 C          -6.9278  -20.5681   19.7024 C.3     1  UNL1        0.0539
     31 C          -8.0048  -19.6163   19.2729 C.3     1  UNL1        0.1440
     32 O          -9.4124  -20.1050   19.1004 O.3     1  UNL1       -0.3510
     33 C         -10.4878  -19.6403   20.0373 C.3     1  UNL1        0.1741
@<TRIPOS>BOND
     1    25    26    1
     2    26    13    1
     3    13    14   ar
     4    14    15   ar
     5    15    16    1
     6    15    17   ar
     7    17    18   ar
     8    18    19    1
     9    18    20   ar
    10    20     1    1
    11     1     2   ar
    12     2     3   ar
    13     3     4   ar
    14     4     5   ar
    15     5     6   ar
    16     5     7    1
    17     7    29    1
    18    29    30    1
    19    30    31    1
    20    31    32    1
    21    32    33    1
    22     7     8   am
    23     8     9    2
    24     8    10    1
    25    10    11    1
    26    10    27    1
    27    27    28    1
    28    10    12    1
    29    20    13   ar
    30     6     1   ar
    31    12     4    1
    32    16    21    1
    33    16    22    1
    34    19    23    1
    35    19    24    1
@<TRIPOS>MOLECULE
*****
 33 35 0 0 0
SMALL
GASTEIGER

@<TRIPOS>ATOM
      1 C          -8.5617  -18.5904   21.7648 C.ar    1  UNL1        0.0053
      2 C          -8.4292  -19.2612   20.4298 C.ar    1  UNL1        0.0033
      3 C          -7.0725  -19.4598   19.8216 C.ar    1  UNL1        0.0382
      4 C          -5.8483  -18.9874   20.5484 C.ar    1  UNL1        0.1524
      5 C          -5.9808  -18.3166   21.8834 C.ar    1  UNL1        0.0881
      6 C          -7.3375  -18.1181   22.4916 C.ar    1  UNL1        0.0181
      7 N          -4.7566  -17.8443   22.6103 N.am    1  UNL1       -0.2531
      8 C          -3.3999  -18.0428   22.0021 C.2     1  UNL1        0.2656
      9 O          -2.1758  -17.5705   22.7289 O.2     1  UNL1       -0.2708
     10 C          -3.2674  -18.7137   20.6670 C.3     1  UNL1        0.2011
     11 C          -2.6332  -19.2900   19.4358 C.3     1  UNL1        0.0532
     12 O          -4.4916  -19.1860   19.9401 O.3     1  UNL1       -0.4727
     13 C         -10.4038  -19.3233   23.4440 C.ar    1  UNL1        0.0645
     14 N         -11.7604  -19.1248   24.0522 N.ar    1  UNL1       -0.2183
     15 C         -12.6318  -17.9948   23.5896 C.ar    1  UNL1        0.2145
     16 N         -13.9885  -17.7963   24.1979 N.pl3   1  UNL1       -0.3274
     17 N         -12.1464  -17.0634   22.5187 N.ar    1  UNL1       -0.1995
     18 C         -10.7897  -17.2619   21.9104 C.ar    1  UNL1        0.1293
     19 N         -10.3043  -16.3305   20.8395 N.pl3   1  UNL1       -0.3425
     20 C          -9.9184  -18.3918   22.3731 C.ar    1  UNL1        0.0449
     21 H         -14.3070  -18.4076   24.9007 H       1  UNL1        0.1452
     22 H         -14.5603  -17.0547   23.8942 H       1  UNL1        0.1452
     23 H         -10.8762  -15.5889   20.5359 H       1  UNL1        0.1437
     24 H          -9.4139  -16.4608   20.4403 H       1  UNL1        0.1437
     25 C          -9.9224  -21.2559   25.1123 C.3     1  UNL1        0.0067
     26 C          -9.5324  -20.4532   23.9066 C.3     1  UNL1        0.0460
     27 C          -1.8230  -18.4415   20.9662 C.3     1  UNL1        0.0491
     28 C          -0.8434  -18.2717   19.8431 C.3     1  UNL1        0.0042
     29 C          -4.8891  -17.1735   23.9453 C.3     1  UNL1        0.1010
     30 C          -5.1812  -15.7041   24.0207 C.3     1  UNL1        0.0539
     31 C          -6.2639  -15.2002   24.9284 C.3     1  UNL1        0.1440
     32 O          -7.6170  -14.8710   24.3709 O.3     1  UNL1       -0.3510
     33 C          -8.8252  -15.6269   24.8389 C.3     1  UNL1        0.1741
@<TRIPOS>BOND
     1    25    26    1
     2    26    13    1
     3    13    14   ar
     4    14    15   ar
     5    15    16    1
     6    15    17   ar
     7    17    18   ar
     8    18    19    1
     9    18    20   ar
    10    20     1    1
    11     1     2   ar
    12     2     3   ar
    13     3     4   ar
    14     4     5   ar
    15     5     6   ar
    16     5     7    1
    17     7    29    1
    18    29    30    1
    19    30    31    1
    20    31    32    1
    21    32    33    1
    22     7     8   am
    23     8     9    2
    24     8    10    1
    25    10    11    1
    26    10    27    1
    27    27    28    1
    28    10    12    1
    29    20    13   ar
    30     6     1   ar
    31    12     4    1
    32    16    21    1
    33    16    22    1
    34    19    23    1
    35    19    24    1
@<TRIPOS>MOLECULE
*****
 33 35 0 0 0
SMALL
GASTEIGER

@<TRIPOS>ATOM
      1 C          -5.1982  -18.8379   21.7367 C.ar    1  UNL1        0.0053
      2 C          -5.6569  -20.2630   21.8296 C.ar    1  UNL1        0.0033
      3 C          -7.0735  -20.5713   22.2143 C.ar    1  UNL1        0.0382
      4 C          -8.0315  -19.4545   22.5060 C.ar    1  UNL1        0.1524
      5 C          -7.5728  -18.0294   22.4130 C.ar    1  UNL1        0.0881
      6 C          -6.1562  -17.7211   22.0284 C.ar    1  UNL1        0.0181
      7 N          -8.5308  -16.9126   22.7047 N.am    1  UNL1       -0.2531
      8 C          -9.9474  -17.2209   23.0894 C.2     1  UNL1        0.2656
      9 O         -10.9054  -16.1041   23.3811 O.2     1  UNL1       -0.2708
     10 C         -10.4062  -18.6461   23.1824 C.3     1  UNL1        0.2011
     11 C         -11.3061  -19.8256   23.4033 C.3     1  UNL1        0.0532
     12 O          -9.4482  -19.7629   22.8907 O.3     1  UNL1       -0.4727
     13 C          -2.7339  -18.3699   22.4136 C.ar    1  UNL1        0.0645
     14 N          -1.3172  -18.0616   22.0290 N.ar    1  UNL1       -0.2183
     15 C          -0.9481  -17.9128   20.5827 C.ar    1  UNL1        0.2145
     16 N           0.4685  -17.6045   20.1981 N.pl3   1  UNL1       -0.3274
     17 N          -1.9957  -18.0724   19.5211 N.ar    1  UNL1       -0.1995
     18 C          -3.4124  -18.3808   19.9058 C.ar    1  UNL1        0.1293
     19 N          -4.4600  -18.5404   18.8441 N.pl3   1  UNL1       -0.3425
     20 C          -3.7815  -18.5295   21.3520 C.ar    1  UNL1        0.0449
     21 H           1.1561  -17.4997   20.8949 H       1  UNL1        0.1452
     22 H           0.7108  -17.5068   19.2489 H       1  UNL1        0.1452
     23 H          -4.2178  -18.4428   17.8949 H       1  UNL1        0.1437
     24 H          -5.3899  -18.7428   19.0966 H       1  UNL1        0.1437
     25 C          -3.7522  -17.3799   24.5892 C.3     1  UNL1        0.0067
     26 C          -3.1030  -18.5187   23.8599 C.3     1  UNL1        0.0460
     27 C         -11.6767  -17.9390   23.5508 C.3     1  UNL1        0.0491
     28 C         -12.7027  -18.6324   24.3971 C.3     1  UNL1        0.0042
     29 C          -8.0721  -15.4875   22.6118 C.3     1  UNL1        0.1010
     30 C          -7.3957  -14.8394   23.7833 C.3     1  UNL1        0.0539
     31 C          -7.2861  -15.5739   25.0866 C.3     1  UNL1        0.1440
     32 O          -8.4592  -15.6244   26.0200 O.3     1  UNL1       -0.3510
     33 C          -8.2486  -15.9285   27.4736 C.3     1  UNL1        0.1741
@<TRIPOS>BOND
     1    25    26    1
     2    26    13    1
     3    13    14   ar
     4    14    15   ar
     5    15    16    1
     6    15    17   ar
     7    17    18   ar
     8    18    19    1
     9    18    20   ar
    10    20     1    1
    11     1     2   ar
    12     2     3   ar
    13     3     4   ar
    14     4     5   ar
    15     5     6   ar
    16     5     7    1
    17     7    29    1
    18    29    30    1
    19    30    31    1
    20    31    32    1
    21    32    33    1
    22     7     8   am
    23     8     9    2
    24     8    10    1
    25    10    11    1
    26    10    27    1
    27    27    28    1
    28    10    12    1
    29    20    13   ar
    30     6     1   ar
    31    12     4    1
    32    16    21    1
    33    16    22    1
    34    19    23    1
    35    19    24    1
@<TRIPOS>MOLECULE
*****
 33 35 0 0 0
SMALL
GASTEIGER

@<TRIPOS>ATOM
      1 C           6.7183   -2.4586   31.5694 C.ar    1  UNL1        0.0053
      2 C           7.5184   -1.8557   32.6857 C.ar    1  UNL1        0.0033
      3 C           6.9536   -0.7182   33.4839 C.ar    1  UNL1        0.0382
      4 C           5.5887   -0.1836   33.1657 C.ar    1  UNL1        0.1524
      5 C           4.7885   -0.7866   32.0494 C.ar    1  UNL1        0.0881
      6 C           5.3533   -1.9241   31.2512 C.ar    1  UNL1        0.0181
      7 N           3.4236   -0.2520   31.7312 N.am    1  UNL1       -0.2531
      8 C           2.8588    0.8855   32.5293 C.2     1  UNL1        0.2656
      9 O           1.4939    1.4200   32.2111 O.2     1  UNL1       -0.2708
     10 C           3.6590    1.4885   33.6457 C.3     1  UNL1        0.2011
     11 C           4.0298    2.3852   34.7895 C.3     1  UNL1        0.0532
     12 O           5.0239    0.9539   33.9639 O.3     1  UNL1       -0.4727
     13 C           8.0332   -3.3218   29.5016 C.ar    1  UNL1        0.0645
     14 N           8.5980   -4.4593   28.7034 N.ar    1  UNL1       -0.2183
     15 C           8.4126   -5.8712   29.1748 C.ar    1  UNL1        0.2145
     16 N           8.9774   -7.0087   28.3767 N.pl3   1  UNL1       -0.3274
     17 N           7.6624   -6.1456   30.4445 N.ar    1  UNL1       -0.1995
     18 C           7.0976   -5.0080   31.2427 C.ar    1  UNL1        0.1293
     19 N           6.3474   -5.2824   32.5123 N.pl3   1  UNL1       -0.3425
     20 C           7.2830   -3.5962   30.7712 C.ar    1  UNL1        0.0449
     21 H           9.4697   -6.8286   27.5434 H       1  UNL1        0.1452
     22 H           8.8557   -7.9354   28.6861 H       1  UNL1        0.1452
     23 H           6.2257   -6.2091   32.8217 H       1  UNL1        0.1437
     24 H           5.9767   -4.5358   33.0362 H       1  UNL1        0.1437
     25 C           9.4079   -1.1173   29.4855 C.3     1  UNL1        0.0067
     26 C           8.2186   -1.9099   29.0302 C.3     1  UNL1        0.0460
     27 C           2.4229    2.3345   33.7247 C.3     1  UNL1        0.0491
     28 C           2.2827    3.3579   34.8124 C.3     1  UNL1        0.0042
     29 C           2.6235   -0.8550   30.6149 C.3     1  UNL1        0.1010
     30 C           2.4400   -0.1008   29.3313 C.3     1  UNL1        0.0539
     31 C           1.0590    0.1834   28.8192 C.3     1  UNL1        0.1440
     32 O          -0.1349   -0.3868   29.5258 O.3     1  UNL1       -0.3510
     33 C          -1.4740   -0.3934   28.8499 C.3     1  UNL1        0.1741
@<TRIPOS>BOND
     1    25    26    1
     2    26    13    1
     3    13    14   ar
     4    14    15   ar
     5    15    16    1
     6    15    17   ar
     7    17    18   ar
     8    18    19    1
     9    18    20   ar
    10    20     1    1
    11     1     2   ar
    12     2     3   ar
    13     3     4   ar
    14     4     5   ar
    15     5     6   ar
    16     5     7    1
    17     7    29    1
    18    29    30    1
    19    30    31    1
    20    31    32    1
    21    32    33    1
    22     7     8   am
    23     8     9    2
    24     8    10    1
    25    10    11    1
    26    10    27    1
    27    27    28    1
    28    10    12    1
    29    20    13   ar
    30     6     1   ar
    31    12     4    1
    32    16    21    1
    33    16    22    1
    34    19    23    1
    35    19    24    1
@<TRIPOS>MOLECULE
*****
 33 35 0 0 0
SMALL
GASTEIGER

@<TRIPOS>ATOM
      1 C          -0.1003    2.7621   27.2784 C.ar    1  UNL1        0.0053
      2 C           0.9511    2.5885   26.2228 C.ar    1  UNL1        0.0033
      3 C           0.5935    2.7476   24.7748 C.ar    1  UNL1        0.0382
      4 C          -0.8155    3.0802   24.3824 C.ar    1  UNL1        0.1524
      5 C          -1.8669    3.2538   25.4380 C.ar    1  UNL1        0.0881
      6 C          -1.5093    3.0948   26.8860 C.ar    1  UNL1        0.0181
      7 N          -3.2760    3.5865   25.0455 N.am    1  UNL1       -0.2531
      8 C          -3.6335    3.7455   23.5975 C.2     1  UNL1        0.2656
      9 O          -5.0426    4.0782   23.2051 O.2     1  UNL1       -0.2708
     10 C          -2.5821    3.5719   22.5418 C.3     1  UNL1        0.2011
     11 C          -1.9429    3.5059   21.1865 C.3     1  UNL1        0.0532
     12 O          -1.1731    3.2393   22.9343 O.3     1  UNL1       -0.4727
     13 C           0.2049    1.2479   29.3674 C.ar    1  UNL1        0.0645
     14 N           0.5625    1.0888   30.8155 N.ar    1  UNL1       -0.2183
     15 C           0.9724    2.2849   31.6226 C.ar    1  UNL1        0.2145
     16 N           1.3299    2.1258   33.0706 N.pl3   1  UNL1       -0.3274
     17 N           1.0247    3.6401   30.9817 N.ar    1  UNL1       -0.1995
     18 C           0.6671    3.7991   29.5336 C.ar    1  UNL1        0.1293
     19 N           0.7194    5.1543   28.8926 N.pl3   1  UNL1       -0.3425
     20 C           0.2573    2.6031   28.7265 C.ar    1  UNL1        0.0449
     21 H           1.2956    1.2364   33.4913 H       1  UNL1        0.1452
     22 H           1.5989    2.9109   33.6004 H       1  UNL1        0.1452
     23 H           0.9884    5.9393   29.4223 H       1  UNL1        0.1437
     24 H           0.4847    5.2587   27.9422 H       1  UNL1        0.1437
     25 C          -1.5241   -0.6127   28.8212 C.3     1  UNL1        0.0067
     26 C          -0.2049    0.0518   28.5603 C.3     1  UNL1        0.0460
     27 C          -3.7691    3.8816   21.6787 C.3     1  UNL1        0.0491
     28 C          -3.7265    3.5826   20.2095 C.3     1  UNL1        0.0042
     29 C          -4.3274    3.7601   26.1011 C.3     1  UNL1        0.1010
     30 C          -4.7115    5.1362   26.5580 C.3     1  UNL1        0.0539
     31 C          -6.0291    5.7228   26.1456 C.3     1  UNL1        0.1440
     32 O          -6.7218    6.7109   27.0366 O.3     1  UNL1       -0.3510
     33 C          -7.3882    6.2455   28.2972 C.3     1  UNL1        0.1741
@<TRIPOS>BOND
     1    25    26    1
     2    26    13    1
     3    13    14   ar
     4    14    15   ar
     5    15    16    1
     6    15    17   ar
     7    17    18   ar
     8    18    19    1
     9    18    20   ar
    10    20     1    1
    11     1     2   ar
    12     2     3   ar
    13     3     4   ar
    14     4     5   ar
    15     5     6   ar
    16     5     7    1
    17     7    29    1
    18    29    30    1
    19    30    31    1
    20    31    32    1
    21    32    33    1
    22     7     8   am
    23     8     9    2
    24     8    10    1
    25    10    11    1
    26    10    27    1
    27    27    28    1
    28    10    12    1
    29    20    13   ar
    30     6     1   ar
    31    12     4    1
    32    16    21    1
    33    16    22    1
    34    19    23    1
    35    19    24    1
@<TRIPOS>MOLECULE
*****
 33 35 0 0 0
SMALL
GASTEIGER

@<TRIPOS>ATOM
      1 C           0.5451    2.0729   27.0824 C.ar    1  UNL1        0.0053
      2 C          -0.6802    2.5375   26.3525 C.ar    1  UNL1        0.0033
      3 C          -0.8000    2.3190   24.8734 C.ar    1  UNL1        0.0382
      4 C           0.3055    1.6361   24.1241 C.ar    1  UNL1        0.1524
      5 C           1.5308    1.1715   24.8539 C.ar    1  UNL1        0.0881
      6 C           1.6506    1.3899   26.3331 C.ar    1  UNL1        0.0181
      7 N           2.6363    0.4885   24.1047 N.am    1  UNL1       -0.2531
      8 C           2.5164    0.2701   22.6255 C.2     1  UNL1        0.2656
      9 O           3.6219   -0.4129   21.8762 O.2     1  UNL1       -0.2708
     10 C           1.2911    0.7347   21.8956 C.3     1  UNL1        0.2011
     11 C           0.3343    0.9932   20.7697 C.3     1  UNL1        0.0532
     12 O           0.1856    1.4177   22.6449 O.3     1  UNL1       -0.4727
     13 C           0.2597    1.2066   29.5151 C.ar    1  UNL1        0.0645
     14 N           0.3795    1.4250   30.9942 N.ar    1  UNL1       -0.2183
     15 C           0.9047    2.7281   31.5199 C.ar    1  UNL1        0.2145
     16 N           1.0245    2.9464   32.9991 N.pl3   1  UNL1       -0.3274
     17 N           1.3100    3.8127   30.5664 N.ar    1  UNL1       -0.1995
     18 C           1.1901    3.5943   29.0872 C.ar    1  UNL1        0.1293
     19 N           1.5954    4.6790   28.1337 N.pl3   1  UNL1       -0.3425
     20 C           0.6650    2.2913   28.5616 C.ar    1  UNL1        0.0449
     21 H           0.7585    2.2345   33.6249 H       1  UNL1        0.1452
     22 H           1.3692    3.8016   33.3441 H       1  UNL1        0.1452
     23 H           1.9401    5.5342   28.4786 H       1  UNL1        0.1437
     24 H           1.5167    4.5357   27.1628 H       1  UNL1        0.1437
     25 C          -1.7414   -0.3641   28.9873 C.3     1  UNL1        0.0067
     26 C          -0.2655   -0.0965   28.9894 C.3     1  UNL1        0.0460
     27 C           2.0643    0.1415   20.7553 C.3     1  UNL1        0.0491
     28 C           1.4356    0.0355   19.3976 C.3     1  UNL1        0.0042
     29 C           3.8616    0.0239   24.8345 C.3     1  UNL1        0.1010
     30 C           3.8967   -1.3457   25.4451 C.3     1  UNL1        0.0539
     31 C           4.2131   -1.5093   26.9023 C.3     1  UNL1        0.1440
     32 O           3.1230   -1.3841   27.9251 O.3     1  UNL1       -0.3510
     33 C           3.3826   -0.6604   29.2130 C.3     1  UNL1        0.1741
@<TRIPOS>BOND
     1    25    26    1
     2    26    13    1
     3    13    14   ar
     4    14    15   ar
     5    15    16    1
     6    15    17   ar
     7    17    18   ar
     8    18    19    1
     9    18    20   ar
    10    20     1    1
    11     1     2   ar
    12     2     3   ar
    13     3     4   ar
    14     4     5   ar
    15     5     6   ar
    16     5     7    1
    17     7    29    1
    18    29    30    1
    19    30    31    1
    20    31    32    1
    21    32    33    1
    22     7     8   am
    23     8     9    2
    24     8    10    1
    25    10    11    1
    26    10    27    1
    27    27    28    1
    28    10    12    1
    29    20    13   ar
    30     6     1   ar
    31    12     4    1
    32    16    21    1
    33    16    22    1
    34    19    23    1
    35    19    24    1
@<TRIPOS>MOLECULE
*****
 33 35 0 0 0
SMALL
GASTEIGER

@<TRIPOS>ATOM
      1 C           7.8617   -3.9471   22.6057 C.ar    1  UNL1        0.0053
      2 C           8.9222   -2.8967   22.7532 C.ar    1  UNL1        0.0033
      3 C           9.0296   -1.7925   21.7438 C.ar    1  UNL1        0.0382
      4 C           8.0764   -1.7386   20.5868 C.ar    1  UNL1        0.1524
      5 C           7.0158   -2.7890   20.4393 C.ar    1  UNL1        0.0881
      6 C           6.9085   -3.8933   21.4488 C.ar    1  UNL1        0.0181
      7 N           6.0627   -2.7352   19.2824 N.am    1  UNL1       -0.2531
      8 C           6.1700   -1.6309   18.2729 C.2     1  UNL1        0.2656
      9 O           5.2168   -1.5771   17.1160 O.2     1  UNL1       -0.2708
     10 C           7.2306   -0.5804   18.4204 C.3     1  UNL1        0.2011
     11 C           8.0602    0.6354   18.1313 C.3     1  UNL1        0.0532
     12 O           8.1838   -0.6343   19.5774 O.3     1  UNL1       -0.4727
     13 C           7.0140   -4.8240   24.8998 C.ar    1  UNL1        0.0645
     14 N           6.9065   -5.9282   25.9092 N.ar    1  UNL1       -0.2183
     15 C           7.5394   -7.2601   25.6341 C.ar    1  UNL1        0.2145
     16 N           7.4320   -8.3644   26.6436 N.pl3   1  UNL1       -0.3274
     17 N           8.2798   -7.4876   24.3495 N.ar    1  UNL1       -0.1995
     18 C           8.3872   -6.3833   23.3400 C.ar    1  UNL1        0.1293
     19 N           9.1275   -6.6108   22.0555 N.pl3   1  UNL1       -0.3425
     20 C           7.7543   -5.0515   23.6152 C.ar    1  UNL1        0.0449
     21 H           6.9461   -8.2150   27.4867 H       1  UNL1        0.1452
     22 H           7.8474   -9.2385   26.4630 H       1  UNL1        0.1452
     23 H           9.5429   -7.4849   21.8749 H       1  UNL1        0.1437
     24 H           9.1980   -5.8860   21.3929 H       1  UNL1        0.1437
     25 C           7.0882   -2.4897   26.0381 C.3     1  UNL1        0.0067
     26 C           6.3811   -3.4921   25.1749 C.3     1  UNL1        0.0460
     27 C           6.5655   -0.1044   17.1631 C.3     1  UNL1        0.0491
     28 C           7.0722    1.1228   16.4650 C.3     1  UNL1        0.0042
     29 C           5.0021   -3.7856   19.1349 C.3     1  UNL1        0.1010
     30 C           3.5682   -3.4486   19.4182 C.3     1  UNL1        0.0539
     31 C           3.2245   -2.1796   20.1404 C.3     1  UNL1        0.1440
     32 O           2.7799   -0.9735   19.3673 O.3     1  UNL1       -0.3510
     33 C           3.3846    0.3682   19.6574 C.3     1  UNL1        0.1741
@<TRIPOS>BOND
     1    25    26    1
     2    26    13    1
     3    13    14   ar
     4    14    15   ar
     5    15    16    1
     6    15    17   ar
     7    17    18   ar
     8    18    19    1
     9    18    20   ar
    10    20     1    1
    11     1     2   ar
    12     2     3   ar
    13     3     4   ar
    14     4     5   ar
    15     5     6   ar
    16     5     7    1
    17     7    29    1
    18    29    30    1
    19    30    31    1
    20    31    32    1
    21    32    33    1
    22     7     8   am
    23     8     9    2
    24     8    10    1
    25    10    11    1
    26    10    27    1
    27    27    28    1
    28    10    12    1
    29    20    13   ar
    30     6     1   ar
    31    12     4    1
    32    16    21    1
    33    16    22    1
    34    19    23    1
    35    19    24    1
