@<TRIPOS>MOLECULE
*****
 34 37 0 0 0
SMALL
GASTEIGER

@<TRIPOS>ATOM
      1 C           5.2947   -1.8286   24.0048 C.3     1  UNL1        0.1139
      2 C           4.1012   -0.9867   24.3469 C.ar    1  UNL1       -0.0029
      3 C           3.1800   -0.5152   23.2611 C.ar    1  UNL1       -0.0026
      4 C           1.9866    0.3267   23.6032 C.ar    1  UNL1       -0.0003
      5 C           1.7144    0.6970   25.0311 C.ar    1  UNL1       -0.0000
      6 C           2.6357    0.2255   26.1168 C.ar    1  UNL1       -0.0003
      7 C           3.8290   -0.6164   25.7747 C.ar    1  UNL1       -0.0026
      8 C           0.5210    1.5389   25.3731 C.ar    1  UNL1       -0.0000
      9 C          -0.1189    2.3955   24.3211 C.ar    1  UNL1       -0.0000
     10 C          -1.3124    3.2374   24.6632 C.ar    1  UNL1        0.0000
     11 C          -1.8659    3.2227   26.0573 C.ar    1  UNL1        0.0000
     12 C          -1.2259    2.3660   27.1093 C.ar    1  UNL1        0.0000
     13 C          -0.0325    1.5242   26.7672 C.ar    1  UNL1       -0.0000
     14 C           6.0443   -1.8989   21.5182 C.2     1  UNL1        0.2461
     15 O           6.6699   -0.5439   21.6685 O.2     1  UNL1       -0.2730
     16 N           5.3567   -2.5413   22.6864 N.am    1  UNL1       -0.2729
     17 C           4.7311   -3.8962   22.5361 C.3     1  UNL1        0.1152
     18 C           6.1063   -2.6116   20.1998 C.3     1  UNL1        0.1773
     19 C           4.5376   -4.2119   18.8853 C.3     1  UNL1        0.1126
     20 N           4.8507   -2.8429   19.4125 N.pl3   1  UNL1       -0.2980
     21 C           3.9083   -1.7054   19.1524 C.ar    1  UNL1        0.0491
     22 C           4.2369   -0.6838   18.1043 C.ar    1  UNL1        0.0154
     23 C           3.2944    0.4538   17.8442 C.ar    1  UNL1        0.0135
     24 C           2.0234    0.5699   18.6322 C.ar    1  UNL1        0.0683
     25 CL          1.0809    1.7075   18.3721 Cl      1  UNL1       -0.0814
     26 C           1.6948   -0.4516   19.6803 C.ar    1  UNL1        0.0694
     27 CL          0.4238   -0.3355   20.4684 Cl      1  UNL1       -0.0813
     28 C           2.6373   -1.5893   19.9404 C.ar    1  UNL1        0.0268
     29 C           6.4260   -1.9578   24.9811 C.3     1  UNL1        0.0967
     30 N           6.4996   -3.1484   25.8906 N.3     1  UNL1       -0.2710
     31 C           6.8533   -4.5481   25.4836 C.3     1  UNL1        0.0722
     32 C           6.8047   -5.4132   26.7082 C.3     1  UNL1        0.0188
     33 C           6.4209   -4.5479   27.8720 C.3     1  UNL1        0.0188
     34 C           6.2324   -3.1483   27.3666 C.3     1  UNL1        0.0722
@<TRIPOS>BOND
     1    19    20    1
     2    20    18    1
     3    18    14    1
     4    14    15    2
     5    14    16   am
     6    16    17    1
     7    16     1    1
     8     1    29    1
     9    29    30    1
    10    30    31    1
    11    31    32    1
    12    32    33    1
    13    33    34    1
    14     1     2    1
    15     2     3   ar
    16     3     4   ar
    17     4     5   ar
    18     5     8    1
    19     8     9   ar
    20     9    10   ar
    21    10    11   ar
    22    11    12   ar
    23    12    13   ar
    24     5     6   ar
    25     6     7   ar
    26    20    21    1
    27    21    22   ar
    28    22    23   ar
    29    23    24   ar
    30    24    25    1
    31    24    26   ar
    32    26    27    1
    33    26    28   ar
    34    34    30    1
    35     7     2   ar
    36    28    21   ar
    37    13     8   ar
@<TRIPOS>MOLECULE
*****
 34 37 0 0 0
SMALL
GASTEIGER

@<TRIPOS>ATOM
      1 C           6.3334   -1.8974   23.8147 C.3     1  UNL1        0.1139
      2 C           5.1292   -1.1822   24.3518 C.ar    1  UNL1       -0.0029
      3 C           5.0904   -0.7534   25.7887 C.ar    1  UNL1       -0.0026
      4 C           3.8862   -0.0383   26.3257 C.ar    1  UNL1       -0.0003
      5 C           2.7208    0.2480   25.4259 C.ar    1  UNL1       -0.0000
      6 C           2.7595   -0.1808   23.9890 C.ar    1  UNL1       -0.0003
      7 C           3.9637   -0.8959   23.4520 C.ar    1  UNL1       -0.0026
      8 C           1.5165    0.9632   25.9629 C.ar    1  UNL1       -0.0000
      9 C           1.4273    1.2885   27.4245 C.ar    1  UNL1       -0.0000
     10 C           0.2230    2.0036   27.9616 C.ar    1  UNL1        0.0000
     11 C          -0.8920    2.3935   27.0370 C.ar    1  UNL1        0.0000
     12 C          -0.8027    2.0682   25.5754 C.ar    1  UNL1        0.0000
     13 C           0.4015    1.3531   25.0384 C.ar    1  UNL1       -0.0000
     14 C           5.9143   -3.2740   21.6516 C.2     1  UNL1        0.2461
     15 O           5.1578   -4.2954   22.4481 O.2     1  UNL1       -0.2730
     16 N           6.5021   -2.0750   22.3349 N.am    1  UNL1       -0.2729
     17 C           7.2586   -1.0536   21.5383 C.3     1  UNL1        0.1152
     18 C           6.0830   -3.4516   20.1717 C.3     1  UNL1        0.1773
     19 C           4.5115   -4.8544   18.6511 C.3     1  UNL1        0.1126
     20 N           4.8767   -3.5450   19.2852 N.pl3   1  UNL1       -0.2980
     21 C           4.0355   -2.3290   19.0328 C.ar    1  UNL1        0.0491
     22 C           4.2571   -1.5069   17.7978 C.ar    1  UNL1        0.0154
     23 C           3.4160   -0.2909   17.5454 C.ar    1  UNL1        0.0135
     24 C           2.3532    0.1031   18.5279 C.ar    1  UNL1        0.0683
     25 CL          1.5120    1.3191   18.2754 Cl      1  UNL1       -0.0814
     26 C           2.1316   -0.7190   19.7628 C.ar    1  UNL1        0.0694
     27 CL          1.0688   -0.3250   20.7453 Cl      1  UNL1       -0.0813
     28 C           2.9728   -1.9351   20.0153 C.ar    1  UNL1        0.0268
     29 C           7.3689   -2.4349   24.7575 C.3     1  UNL1        0.0967
     30 N           7.4045   -3.9002   25.0763 N.3     1  UNL1       -0.2710
     31 C           6.7749   -4.5587   26.2680 C.3     1  UNL1        0.0722
     32 C           7.0571   -6.0298   26.1877 C.3     1  UNL1        0.0188
     33 C           7.8611   -6.2804   24.9463 C.3     1  UNL1        0.0188
     34 C           8.0757   -4.9642   24.2595 C.3     1  UNL1        0.0722
@<TRIPOS>BOND
     1    19    20    1
     2    20    18    1
     3    18    14    1
     4    14    15    2
     5    14    16   am
     6    16    17    1
     7    16     1    1
     8     1    29    1
     9    29    30    1
    10    30    31    1
    11    31    32    1
    12    32    33    1
    13    33    34    1
    14     1     2    1
    15     2     3   ar
    16     3     4   ar
    17     4     5   ar
    18     5     8    1
    19     8     9   ar
    20     9    10   ar
    21    10    11   ar
    22    11    12   ar
    23    12    13   ar
    24     5     6   ar
    25     6     7   ar
    26    20    21    1
    27    21    22   ar
    28    22    23   ar
    29    23    24   ar
    30    24    25    1
    31    24    26   ar
    32    26    27    1
    33    26    28   ar
    34    34    30    1
    35     7     2   ar
    36    28    21   ar
    37    13     8   ar
@<TRIPOS>MOLECULE
*****
 34 37 0 0 0
SMALL
GASTEIGER

@<TRIPOS>ATOM
      1 C          -0.6594    3.3422   19.2218 C.3     1  UNL1        0.1139
      2 C           0.2135    2.1759   19.5797 C.ar    1  UNL1       -0.0029
      3 C           0.3213    1.7304   21.0079 C.ar    1  UNL1       -0.0026
      4 C           1.1941    0.5642   21.3658 C.ar    1  UNL1       -0.0003
      5 C           1.9591   -0.1564   20.2956 C.ar    1  UNL1       -0.0000
      6 C           1.8512    0.2891   18.8674 C.ar    1  UNL1       -0.0003
      7 C           0.9784    1.4553   18.5094 C.ar    1  UNL1       -0.0026
      8 C           2.8319   -1.3227   20.6535 C.ar    1  UNL1       -0.0000
      9 C           3.1511   -2.3648   19.6230 C.ar    1  UNL1       -0.0000
     10 C           4.0240   -3.5310   19.9810 C.ar    1  UNL1        0.0000
     11 C           4.5776   -3.6551   21.3695 C.ar    1  UNL1        0.0000
     12 C           4.2583   -2.6130   22.4001 C.ar    1  UNL1        0.0000
     13 C           3.3855   -1.4468   22.0421 C.ar    1  UNL1       -0.0000
     14 C          -2.4172    3.9839   21.0240 C.2     1  UNL1        0.2461
     15 O          -3.2131    2.7588   20.6840 O.2     1  UNL1       -0.2730
     16 N          -1.1403    4.2757   20.2929 N.am    1  UNL1       -0.2729
     17 C          -0.3445    5.5008   20.6329 C.3     1  UNL1        0.1152
     18 C          -2.8982    4.9174   22.0952 C.3     1  UNL1        0.1773
     19 C          -2.6575    3.5640   24.2998 C.3     1  UNL1        0.1126
     20 N          -3.5002    4.3676   23.3543 N.pl3   1  UNL1       -0.2980
     21 C          -4.9449    4.6215   23.6678 C.ar    1  UNL1        0.0491
     22 C          -6.0131    4.1130   22.7456 C.ar    1  UNL1        0.0154
     23 C          -7.4578    4.3669   23.0591 C.ar    1  UNL1        0.0135
     24 C          -7.8343    5.1293   24.2949 C.ar    1  UNL1        0.0683
     25 CL         -9.2791    5.3832   24.6084 Cl      1  UNL1       -0.0814
     26 C          -6.7662    5.6378   25.2170 C.ar    1  UNL1        0.0694
     27 CL         -7.1427    6.4001   26.4528 Cl      1  UNL1       -0.0813
     28 C          -5.3214    5.3839   24.9035 C.ar    1  UNL1        0.0268
     29 C          -1.0512    3.5750   17.7927 C.3     1  UNL1        0.0967
     30 N          -2.2736    4.3831   17.4722 N.3     1  UNL1       -0.2710
     31 C          -2.3296    5.8742   17.3192 C.3     1  UNL1        0.0722
     32 C          -3.7453    6.2547   17.0010 C.3     1  UNL1        0.0188
     33 C          -4.5642    4.9986   16.9573 C.3     1  UNL1        0.0188
     34 C          -3.6546    3.8419   17.2486 C.3     1  UNL1        0.0722
@<TRIPOS>BOND
     1    19    20    1
     2    20    18    1
     3    18    14    1
     4    14    15    2
     5    14    16   am
     6    16    17    1
     7    16     1    1
     8     1    29    1
     9    29    30    1
    10    30    31    1
    11    31    32    1
    12    32    33    1
    13    33    34    1
    14     1     2    1
    15     2     3   ar
    16     3     4   ar
    17     4     5   ar
    18     5     8    1
    19     8     9   ar
    20     9    10   ar
    21    10    11   ar
    22    11    12   ar
    23    12    13   ar
    24     5     6   ar
    25     6     7   ar
    26    20    21    1
    27    21    22   ar
    28    22    23   ar
    29    23    24   ar
    30    24    25    1
    31    24    26   ar
    32    26    27    1
    33    26    28   ar
    34    34    30    1
    35     7     2   ar
    36    28    21   ar
    37    13     8   ar
@<TRIPOS>MOLECULE
*****
 34 37 0 0 0
SMALL
GASTEIGER

@<TRIPOS>ATOM
      1 C           4.5474    0.1805   26.9663 C.3     1  UNL1        0.1139
      2 C           4.4163   -0.5008   25.6364 C.ar    1  UNL1       -0.0029
      3 C           3.3433   -0.0755   24.6784 C.ar    1  UNL1       -0.0026
      4 C           3.2122   -0.7567   23.3485 C.ar    1  UNL1       -0.0003
      5 C           4.1541   -1.8633   22.9766 C.ar    1  UNL1       -0.0000
      6 C           5.2270   -2.2887   23.9346 C.ar    1  UNL1       -0.0003
      7 C           5.3581   -1.6074   25.2645 C.ar    1  UNL1       -0.0026
      8 C           4.0229   -2.5446   21.6466 C.ar    1  UNL1       -0.0000
      9 C           3.6052   -1.7586   20.4393 C.ar    1  UNL1       -0.0000
     10 C           3.4741   -2.4399   19.1093 C.ar    1  UNL1        0.0000
     11 C           3.7607   -3.9072   18.9868 C.ar    1  UNL1        0.0000
     12 C           4.1784   -4.6931   20.1942 C.ar    1  UNL1        0.0000
     13 C           4.3095   -4.0119   21.5241 C.ar    1  UNL1       -0.0000
     14 C           2.2993    0.2751   28.2654 C.2     1  UNL1        0.2461
     15 O           2.3471   -1.2118   28.4565 O.2     1  UNL1       -0.2730
     16 N           3.3995    0.9713   27.5203 N.am    1  UNL1       -0.2729
     17 C           3.3517    2.4583   27.3292 C.3     1  UNL1        0.1152
     18 C           1.1515    1.0660   28.8193 C.3     1  UNL1        0.1773
     19 C          -1.2474    0.0688   28.8529 C.3     1  UNL1        0.1126
     20 N          -0.2116    0.9398   28.2060 N.pl3   1  UNL1       -0.2980
     21 C          -0.5387    1.6845   26.9457 C.ar    1  UNL1        0.0491
     22 C          -1.5466    2.7952   26.9710 C.ar    1  UNL1        0.0154
     23 C          -1.8737    3.5400   25.7108 C.ar    1  UNL1        0.0135
     24 C          -1.1931    3.1740   24.4251 C.ar    1  UNL1        0.0683
     25 CL         -1.5204    3.9188   23.1648 Cl      1  UNL1       -0.0814
     26 C          -0.1853    2.0633   24.3998 C.ar    1  UNL1        0.0694
     27 CL          0.4953    1.6973   23.1142 Cl      1  UNL1       -0.0813
     28 C           0.1419    1.3185   25.6601 C.ar    1  UNL1        0.0268
     29 C           5.8264    0.0708   27.7423 C.3     1  UNL1        0.0967
     30 N           5.9394   -0.9159   28.8664 N.3     1  UNL1       -0.2710
     31 C           5.4303   -0.7222   30.2641 C.3     1  UNL1        0.0722
     32 C           5.7577   -1.9561   31.0518 C.3     1  UNL1        0.0188
     33 C           6.4690   -2.9124   30.1409 C.3     1  UNL1        0.0188
     34 C           6.5813   -2.2695   28.7903 C.3     1  UNL1        0.0722
@<TRIPOS>BOND
     1    19    20    1
     2    20    18    1
     3    18    14    1
     4    14    15    2
     5    14    16   am
     6    16    17    1
     7    16     1    1
     8     1    29    1
     9    29    30    1
    10    30    31    1
    11    31    32    1
    12    32    33    1
    13    33    34    1
    14     1     2    1
    15     2     3   ar
    16     3     4   ar
    17     4     5   ar
    18     5     8    1
    19     8     9   ar
    20     9    10   ar
    21    10    11   ar
    22    11    12   ar
    23    12    13   ar
    24     5     6   ar
    25     6     7   ar
    26    20    21    1
    27    21    22   ar
    28    22    23   ar
    29    23    24   ar
    30    24    25    1
    31    24    26   ar
    32    26    27    1
    33    26    28   ar
    34    34    30    1
    35     7     2   ar
    36    28    21   ar
    37    13     8   ar
@<TRIPOS>MOLECULE
*****
 34 37 0 0 0
SMALL
GASTEIGER

@<TRIPOS>ATOM
      1 C          -0.5350    3.3927   19.3472 C.3     1  UNL1        0.1139
      2 C           0.3157    2.2071   19.6948 C.ar    1  UNL1       -0.0029
      3 C           0.4581    1.7798   21.1255 C.ar    1  UNL1       -0.0026
      4 C           1.3088    0.5943   21.4730 C.ar    1  UNL1       -0.0003
      5 C           2.0170   -0.1640   20.3898 C.ar    1  UNL1       -0.0000
      6 C           1.8745    0.2632   18.9590 C.ar    1  UNL1       -0.0003
      7 C           1.0239    1.4488   18.6115 C.ar    1  UNL1       -0.0026
      8 C           2.8677   -1.3496   20.7374 C.ar    1  UNL1       -0.0000
      9 C           3.4136   -1.4996   22.1264 C.ar    1  UNL1       -0.0000
     10 C           4.2643   -2.6852   22.4740 C.ar    1  UNL1        0.0000
     11 C           4.5690   -3.7208   21.4325 C.ar    1  UNL1        0.0000
     12 C           4.0230   -3.5708   20.0434 C.ar    1  UNL1        0.0000
     13 C           3.1724   -2.3852   19.6959 C.ar    1  UNL1       -0.0000
     14 C          -2.4574    3.9369   21.0081 C.2     1  UNL1        0.2461
     15 O          -3.2368    2.7646   20.4901 O.2     1  UNL1       -0.2730
     16 N          -1.1065    4.2509   20.4366 N.am    1  UNL1       -0.2729
     17 C          -0.3271    5.4231   20.9546 C.3     1  UNL1        0.1152
     18 C          -3.0289    4.7951   22.0975 C.3     1  UNL1        0.1773
     19 C          -5.1672    4.0494   23.3708 C.3     1  UNL1        0.1126
     20 N          -3.6732    4.1589   23.2933 N.pl3   1  UNL1       -0.2980
     21 C          -2.8235    3.6323   24.4117 C.ar    1  UNL1        0.0491
     22 C          -3.2444    3.8420   25.8361 C.ar    1  UNL1        0.0154
     23 C          -2.3947    3.3154   26.9545 C.ar    1  UNL1        0.0135
     24 C          -1.1242    2.5791   26.6484 C.ar    1  UNL1        0.0683
     25 CL         -0.2746    2.0525   27.7669 Cl      1  UNL1       -0.0814
     26 C          -0.7034    2.3694   25.2241 C.ar    1  UNL1        0.0694
     27 CL          0.5672    1.6331   24.9181 Cl      1  UNL1       -0.0813
     28 C          -1.5530    2.8960   24.1056 C.ar    1  UNL1        0.0268
     29 C          -0.8143    3.7200   17.9102 C.3     1  UNL1        0.0967
     30 N          -2.0754    4.4412   17.5366 N.3     1  UNL1       -0.2710
     31 C          -2.3190    5.9157   17.6658 C.3     1  UNL1        0.0722
     32 C          -3.7084    6.2004   17.1773 C.3     1  UNL1        0.0188
     33 C          -4.3234    4.9019   16.7462 C.3     1  UNL1        0.0188
     34 C          -3.3141    3.8147   16.9683 C.3     1  UNL1        0.0722
@<TRIPOS>BOND
     1    19    20    1
     2    20    18    1
     3    18    14    1
     4    14    15    2
     5    14    16   am
     6    16    17    1
     7    16     1    1
     8     1    29    1
     9    29    30    1
    10    30    31    1
    11    31    32    1
    12    32    33    1
    13    33    34    1
    14     1     2    1
    15     2     3   ar
    16     3     4   ar
    17     4     5   ar
    18     5     8    1
    19     8     9   ar
    20     9    10   ar
    21    10    11   ar
    22    11    12   ar
    23    12    13   ar
    24     5     6   ar
    25     6     7   ar
    26    20    21    1
    27    21    22   ar
    28    22    23   ar
    29    23    24   ar
    30    24    25    1
    31    24    26   ar
    32    26    27    1
    33    26    28   ar
    34    34    30    1
    35     7     2   ar
    36    28    21   ar
    37    13     8   ar
@<TRIPOS>MOLECULE
*****
 34 37 0 0 0
SMALL
GASTEIGER

@<TRIPOS>ATOM
      1 C           4.7964   -0.2913   32.8116 C.3     1  UNL1        0.1139
      2 C           5.4225   -1.4388   32.0757 C.ar    1  UNL1       -0.0029
      3 C           5.7807   -2.6958   32.8116 C.ar    1  UNL1       -0.0026
      4 C           6.4068   -3.8431   32.0757 C.ar    1  UNL1       -0.0003
      5 C           6.6748   -3.7334   30.6039 C.ar    1  UNL1       -0.0000
      6 C           6.3166   -2.4764   29.8680 C.ar    1  UNL1       -0.0003
      7 C           5.6905   -1.3291   30.6039 C.ar    1  UNL1       -0.0026
      8 C           7.3010   -4.8808   29.8681 C.ar    1  UNL1       -0.0000
      9 C           6.8062   -5.2555   28.5025 C.ar    1  UNL1       -0.0000
     10 C           7.4324   -6.4029   27.7666 C.ar    1  UNL1        0.0000
     11 C           8.5533   -7.1756   28.3964 C.ar    1  UNL1        0.0000
     12 C           9.0480   -6.8008   29.7620 C.ar    1  UNL1        0.0000
     13 C           8.4219   -5.6534   30.4978 C.ar    1  UNL1       -0.0000
     14 C           5.2570    0.0042   35.3514 C.2     1  UNL1        0.2461
     15 O           4.2282   -1.0430   35.6598 O.2     1  UNL1       -0.2730
     16 N           5.5411    0.3800   33.9273 N.am    1  UNL1       -0.2729
     17 C           6.5698    1.4271   33.6188 C.3     1  UNL1        0.1152
     18 C           6.0017    0.6755   36.4671 C.3     1  UNL1        0.1773
     19 C           6.4307    3.1876   36.9723 C.3     1  UNL1        0.1126
     20 N           5.5239    1.9931   37.0015 N.pl3   1  UNL1       -0.2980
     21 C           4.1393    2.1161   37.5652 C.ar    1  UNL1        0.0491
     22 C           3.3337    3.3558   37.3116 C.ar    1  UNL1        0.0154
     23 C           1.9491    3.4789   37.8753 C.ar    1  UNL1        0.0135
     24 C           1.3701    2.3623   38.6926 C.ar    1  UNL1        0.0683
     25 CL         -0.0145    2.4854   39.2563 Cl      1  UNL1       -0.0814
     26 C           2.1756    1.1226   38.9462 C.ar    1  UNL1        0.0694
     27 CL          1.5966    0.0061   39.7635 Cl      1  UNL1       -0.0813
     28 C           3.5603    0.9995   38.3825 C.ar    1  UNL1        0.0268
     29 C           3.4256    0.1847   32.4318 C.3     1  UNL1        0.0967
     30 N           3.0143    1.5973   32.7243 N.3     1  UNL1       -0.2710
     31 C           3.2686    2.7887   31.8492 C.3     1  UNL1        0.0722
     32 C           2.6880    3.9942   32.5274 C.3     1  UNL1        0.0188
     33 C           2.0750    3.5477   33.8216 C.3     1  UNL1        0.0188
     34 C           2.2767    2.0663   33.9433 C.3     1  UNL1        0.0722
@<TRIPOS>BOND
     1    19    20    1
     2    20    18    1
     3    18    14    1
     4    14    15    2
     5    14    16   am
     6    16    17    1
     7    16     1    1
     8     1    29    1
     9    29    30    1
    10    30    31    1
    11    31    32    1
    12    32    33    1
    13    33    34    1
    14     1     2    1
    15     2     3   ar
    16     3     4   ar
    17     4     5   ar
    18     5     8    1
    19     8     9   ar
    20     9    10   ar
    21    10    11   ar
    22    11    12   ar
    23    12    13   ar
    24     5     6   ar
    25     6     7   ar
    26    20    21    1
    27    21    22   ar
    28    22    23   ar
    29    23    24   ar
    30    24    25    1
    31    24    26   ar
    32    26    27    1
    33    26    28   ar
    34    34    30    1
    35     7     2   ar
    36    28    21   ar
    37    13     8   ar
@<TRIPOS>MOLECULE
*****
 34 37 0 0 0
SMALL
GASTEIGER

@<TRIPOS>ATOM
      1 C           3.5115   -1.1114   19.9614 C.3     1  UNL1        0.1139
      2 C           2.9527   -0.5854   21.2502 C.ar    1  UNL1       -0.0029
      3 C           3.5018   -1.0702   22.5591 C.ar    1  UNL1       -0.0026
      4 C           2.9430   -0.5442   23.8479 C.ar    1  UNL1       -0.0003
      5 C           1.8349    0.4667   23.8277 C.ar    1  UNL1       -0.0000
      6 C           1.2858    0.9515   22.5188 C.ar    1  UNL1       -0.0003
      7 C           1.8447    0.4255   21.2301 C.ar    1  UNL1       -0.0026
      8 C           1.2761    0.9927   25.1166 C.ar    1  UNL1       -0.0000
      9 C          -0.1256    1.5246   25.1646 C.ar    1  UNL1       -0.0000
     10 C          -0.6844    2.0506   26.4535 C.ar    1  UNL1        0.0000
     11 C           0.1584    2.0447   27.6942 C.ar    1  UNL1        0.0000
     12 C           1.5602    1.5126   27.6462 C.ar    1  UNL1        0.0000
     13 C           2.1189    0.9867   26.3574 C.ar    1  UNL1       -0.0000
     14 C           5.7961   -2.3165   20.2416 C.2     1  UNL1        0.2461
     15 O           6.4544   -1.0007   20.5335 O.2     1  UNL1       -0.2730
     16 N           4.3246   -2.3718   19.9555 N.am    1  UNL1       -0.2729
     17 C           3.6664   -3.6877   19.6636 C.3     1  UNL1        0.1152
     18 C           6.6092   -3.5769   20.2357 C.3     1  UNL1        0.1773
     19 C           9.1422   -3.2771   20.7301 C.3     1  UNL1        0.1126
     20 N           7.7771   -3.7204   21.1660 N.pl3   1  UNL1       -0.2980
     21 C           7.5799   -4.3072   22.5323 C.ar    1  UNL1        0.0491
     22 C           6.7877   -3.5586   23.5629 C.ar    1  UNL1        0.0154
     23 C           6.5905   -4.1454   24.9292 C.ar    1  UNL1        0.0135
     24 C           7.1854   -5.4808   25.2649 C.ar    1  UNL1        0.0683
     25 CL          6.9881   -6.0676   26.6313 Cl      1  UNL1       -0.0814
     26 C           7.9775   -6.2294   24.2344 C.ar    1  UNL1        0.0694
     27 CL          8.5724   -7.5649   24.5701 Cl      1  UNL1       -0.0813
     28 C           8.1748   -5.6426   22.8680 C.ar    1  UNL1        0.0268
     29 C           3.2573   -0.3769   18.6785 C.3     1  UNL1        0.0967
     30 N           4.3627    0.4005   18.0275 N.3     1  UNL1       -0.2710
     31 C           5.3855   -0.1484   17.0774 C.3     1  UNL1        0.0722
     32 C           6.2944    0.9751   16.6750 C.3     1  UNL1        0.0188
     33 C           5.8332    2.2182   17.3765 C.3     1  UNL1        0.0188
     34 C           4.6394    1.8631   18.2123 C.3     1  UNL1        0.0722
@<TRIPOS>BOND
     1    19    20    1
     2    20    18    1
     3    18    14    1
     4    14    15    2
     5    14    16   am
     6    16    17    1
     7    16     1    1
     8     1    29    1
     9    29    30    1
    10    30    31    1
    11    31    32    1
    12    32    33    1
    13    33    34    1
    14     1     2    1
    15     2     3   ar
    16     3     4   ar
    17     4     5   ar
    18     5     8    1
    19     8     9   ar
    20     9    10   ar
    21    10    11   ar
    22    11    12   ar
    23    12    13   ar
    24     5     6   ar
    25     6     7   ar
    26    20    21    1
    27    21    22   ar
    28    22    23   ar
    29    23    24   ar
    30    24    25    1
    31    24    26   ar
    32    26    27    1
    33    26    28   ar
    34    34    30    1
    35     7     2   ar
    36    28    21   ar
    37    13     8   ar
@<TRIPOS>MOLECULE
*****
 34 37 0 0 0
SMALL
GASTEIGER

@<TRIPOS>ATOM
      1 C           2.8579    1.0495   24.0026 C.3     1  UNL1        0.1139
      2 C           3.7500   -0.1556   24.0467 C.ar    1  UNL1       -0.0029
      3 C           4.8313   -0.2508   25.0819 C.ar    1  UNL1       -0.0026
      4 C           5.7233   -1.4559   25.1260 C.ar    1  UNL1       -0.0003
      5 C           5.5342   -2.5657   24.1348 C.ar    1  UNL1       -0.0000
      6 C           4.4529   -2.4705   23.0996 C.ar    1  UNL1       -0.0003
      7 C           3.5608   -1.2654   23.0555 C.ar    1  UNL1       -0.0026
      8 C           6.4263   -3.7708   24.1789 C.ar    1  UNL1       -0.0000
      9 C           7.1367   -4.2239   22.9379 C.ar    1  UNL1       -0.0000
     10 C           8.0288   -5.4290   22.9820 C.ar    1  UNL1        0.0000
     11 C           8.2105   -6.1810   24.2671 C.ar    1  UNL1        0.0000
     12 C           7.5000   -5.7279   25.5081 C.ar    1  UNL1        0.0000
     13 C           6.6080   -4.5228   25.4640 C.ar    1  UNL1       -0.0000
     14 C           2.9971    2.1098   21.6348 C.2     1  UNL1        0.2461
     15 O           4.4589    2.3762   21.8400 O.2     1  UNL1       -0.2730
     16 N           2.1966    1.4464   22.7161 N.am    1  UNL1       -0.2729
     17 C           0.7348    1.1799   22.5108 C.3     1  UNL1        0.1152
     18 C           2.3358    2.5066   20.3482 C.3     1  UNL1        0.1773
     19 C           0.7489    1.5041   18.5519 C.3     1  UNL1        0.1126
     20 N           2.0472    1.4707   19.3026 N.pl3   1  UNL1       -0.2980
     21 C           3.0568    0.4013   19.0076 C.ar    1  UNL1        0.0491
     22 C           4.2994    0.7352   18.2366 C.ar    1  UNL1        0.0154
     23 C           5.3090   -0.3342   17.9415 C.ar    1  UNL1        0.0135
     24 C           5.0761   -1.7375   18.4175 C.ar    1  UNL1        0.0683
     25 CL          6.0857   -2.8069   18.1224 Cl      1  UNL1       -0.0814
     26 C           3.8335   -2.0714   19.1885 C.ar    1  UNL1        0.0694
     27 CL          3.6005   -3.4747   19.6644 Cl      1  UNL1       -0.0813
     28 C           2.8238   -1.0020   19.4835 C.ar    1  UNL1        0.0268
     29 C           2.6271    1.8577   25.2450 C.3     1  UNL1        0.0967
     30 N           1.6234    1.4003   26.2616 N.3     1  UNL1       -0.2710
     31 C           0.1354    1.5657   26.1677 C.3     1  UNL1        0.0722
     32 C          -0.4762    0.9649   27.3986 C.3     1  UNL1        0.0188
     33 C           0.6337    0.4283   28.2531 C.3     1  UNL1        0.0188
     34 C           1.9313    0.6974   27.5504 C.3     1  UNL1        0.0722
@<TRIPOS>BOND
     1    19    20    1
     2    20    18    1
     3    18    14    1
     4    14    15    2
     5    14    16   am
     6    16    17    1
     7    16     1    1
     8     1    29    1
     9    29    30    1
    10    30    31    1
    11    31    32    1
    12    32    33    1
    13    33    34    1
    14     1     2    1
    15     2     3   ar
    16     3     4   ar
    17     4     5   ar
    18     5     8    1
    19     8     9   ar
    20     9    10   ar
    21    10    11   ar
    22    11    12   ar
    23    12    13   ar
    24     5     6   ar
    25     6     7   ar
    26    20    21    1
    27    21    22   ar
    28    22    23   ar
    29    23    24   ar
    30    24    25    1
    31    24    26   ar
    32    26    27    1
    33    26    28   ar
    34    34    30    1
    35     7     2   ar
    36    28    21   ar
    37    13     8   ar
@<TRIPOS>MOLECULE
*****
 34 37 0 0 0
SMALL
GASTEIGER

@<TRIPOS>ATOM
      1 C          -0.0425    3.3727   25.7605 C.3     1  UNL1        0.1139
      2 C          -1.4834    3.7327   25.5499 C.ar    1  UNL1       -0.0029
      3 C          -2.1066    3.5708   24.1951 C.ar    1  UNL1       -0.0026
      4 C          -3.5474    3.9309   23.9846 C.ar    1  UNL1       -0.0003
      5 C          -4.3650    4.4528   25.1288 C.ar    1  UNL1       -0.0000
      6 C          -3.7418    4.6147   26.4835 C.ar    1  UNL1       -0.0003
      7 C          -2.3009    4.2546   26.6940 C.ar    1  UNL1       -0.0026
      8 C          -5.8059    4.8128   24.9181 C.ar    1  UNL1       -0.0000
      9 C          -6.4759    5.7926   25.8352 C.ar    1  UNL1       -0.0000
     10 C          -7.9168    6.1527   25.6246 C.ar    1  UNL1        0.0000
     11 C          -8.6876    5.5329   24.4969 C.ar    1  UNL1        0.0000
     12 C          -8.0175    4.5530   23.5798 C.ar    1  UNL1        0.0000
     13 C          -6.5767    4.1930   23.7904 C.ar    1  UNL1       -0.0000
     14 C           1.0988    1.8760   23.9695 C.2     1  UNL1        0.2461
     15 O           0.4070    0.6714   24.5353 O.2     1  UNL1       -0.2730
     16 N           0.8741    3.2267   24.5821 N.am    1  UNL1       -0.2729
     17 C           1.5659    4.4314   24.0163 C.3     1  UNL1        0.1152
     18 C           2.0154    1.7301   22.7911 C.3     1  UNL1        0.1773
     19 C           0.1180    1.7344   21.0163 C.3     1  UNL1        0.1126
     20 N           1.4714    1.2735   21.4699 N.pl3   1  UNL1       -0.2980
     21 C           2.2810    0.3560   20.6022 C.ar    1  UNL1        0.0491
     22 C           2.5674    0.7295   19.1779 C.ar    1  UNL1        0.0154
     23 C           3.3769   -0.1880   18.3103 C.ar    1  UNL1        0.0135
     24 C           3.9001   -1.4789   18.8668 C.ar    1  UNL1        0.0683
     25 CL          4.7096   -2.3964   17.9991 Cl      1  UNL1       -0.0814
     26 C           3.6137   -1.8524   20.2910 C.ar    1  UNL1        0.0694
     27 CL          4.1368   -3.1434   20.8476 Cl      1  UNL1       -0.0813
     28 C           2.8041   -0.9349   21.1588 C.ar    1  UNL1        0.0268
     29 C           0.4818    3.1586   27.1494 C.3     1  UNL1        0.0967
     30 N           0.3127    1.8264   27.8179 N.3     1  UNL1       -0.2710
     31 C           1.4019    1.0147   28.4541 C.3     1  UNL1        0.0722
     32 C           0.7871   -0.2414   28.9969 C.3     1  UNL1        0.0188
     33 C          -0.6821   -0.2057   28.6962 C.3     1  UNL1        0.0188
     34 C          -0.9752    1.0722   27.9676 C.3     1  UNL1        0.0722
@<TRIPOS>BOND
     1    19    20    1
     2    20    18    1
     3    18    14    1
     4    14    15    2
     5    14    16   am
     6    16    17    1
     7    16     1    1
     8     1    29    1
     9    29    30    1
    10    30    31    1
    11    31    32    1
    12    32    33    1
    13    33    34    1
    14     1     2    1
    15     2     3   ar
    16     3     4   ar
    17     4     5   ar
    18     5     8    1
    19     8     9   ar
    20     9    10   ar
    21    10    11   ar
    22    11    12   ar
    23    12    13   ar
    24     5     6   ar
    25     6     7   ar
    26    20    21    1
    27    21    22   ar
    28    22    23   ar
    29    23    24   ar
    30    24    25    1
    31    24    26   ar
    32    26    27    1
    33    26    28   ar
    34    34    30    1
    35     7     2   ar
    36    28    21   ar
    37    13     8   ar
