@<TRIPOS>MOLECULE
*****
 45 49 0 0 0
SMALL
GASTEIGER

@<TRIPOS>ATOM
      1 C           3.1305    0.0273   24.5931 C.ar    1  UNL1        0.0846
      2 C           2.2883    0.3331   23.3901 C.ar    1  UNL1        0.0174
      3 C           0.9929    1.0725   23.5497 C.ar    1  UNL1       -0.0031
      4 C           0.5398    1.5059   24.9124 C.ar    1  UNL1       -0.0218
      5 C           1.3819    1.2001   26.1153 C.ar    1  UNL1        0.0091
      6 C           2.6773    0.4608   25.9557 C.ar    1  UNL1        0.1477
      7 C           1.1178    1.5388   27.5526 C.3     1  UNL1        0.0292
      8 C          -0.0539    2.2670   28.1417 C.3     1  UNL1        0.0062
      9 C          -1.2506    2.8363   27.4392 C.3     1  UNL1        0.0166
     10 C          -1.5714    2.8181   25.9740 C.3     1  UNL1        0.0619
     11 C          -0.7746    2.2260   24.8495 C.3     1  UNL1        0.0421
     12 N          -2.8592    3.4793   25.5815 N.3     1  UNL1       -0.2713
     13 C          -3.2312    3.5964   24.1330 C.3     1  UNL1        0.0896
     14 C          -4.5191    4.2578   23.7405 C.3     1  UNL1        0.0897
     15 N          -5.4351    4.8020   24.7963 N.3     1  UNL1       -0.2682
     16 C          -5.0631    4.6848   26.2448 C.3     1  UNL1        0.0897
     17 C          -3.7752    4.0235   26.6374 C.3     1  UNL1        0.0896
     18 C          -6.7229    5.4632   24.4038 C.3     1  UNL1        0.1043
     19 C          -7.4998    4.9525   23.2267 C.3     1  UNL1        0.1544
     20 O          -8.4436    3.7989   23.3944 O.3     1  UNL1       -0.3805
     21 H          -7.9409    2.9995   23.6162 H       1  UNL1        0.2105
     22 N           4.4258   -0.7120   24.4334 N.pl3   1  UNL1       -0.2801
     23 H           5.1464   -0.5906   25.0931 H       1  UNL1        0.1552
     24 C           4.0421   -2.3497   20.8388 C.ar    1  UNL1        0.1472
     25 N           3.8448   -1.4255   22.0037 N.ar    1  UNL1       -0.1976
     26 C           4.6231   -1.6363   23.2686 C.ar    1  UNL1        0.2220
     27 N           5.5987   -2.7714   23.3685 N.ar    1  UNL1       -0.2110
     28 C           5.7960   -3.6956   22.2038 C.ar    1  UNL1        0.1160
     29 C           5.0177   -3.4848   20.9389 C.ar    1  UNL1        0.1085
     30 CL          5.2150   -4.4090   19.7740 Cl      1  UNL1       -0.0777
     31 N           3.2638   -2.1389   19.5740 N.pl3   1  UNL1       -0.2970
     32 H           3.2952   -2.8142   18.8583 H       1  UNL1        0.1536
     33 C           2.8854    0.1733   18.4511 C.ar    1  UNL1        0.0668
     34 C           2.0593    1.4131   18.2768 C.ar    1  UNL1        0.0058
     35 C           0.7854    1.5806   19.0509 C.ar    1  UNL1        0.0002
     36 C           0.3376    0.5083   19.9994 C.ar    1  UNL1        0.0013
     37 C           1.1638   -0.7315   20.1738 C.ar    1  UNL1        0.0148
     38 C           2.4377   -0.8991   19.3996 C.ar    1  UNL1        0.0537
     39 C           6.5244    0.8603   17.0243 C.3     1  UNL1        0.1109
     40 N           5.2505    1.0278   17.7984 N.am    1  UNL1       -0.2991
     41 C           4.1592    0.0059   17.6770 C.2     1  UNL1        0.2471
     42 O           4.3417   -1.1835   16.7814 O.2     1  UNL1       -0.2701
     43 H           5.1307    1.8084   18.3862 H       1  UNL1        0.1498
     44 O           3.5195    0.1550   27.1587 O.3     1  UNL1       -0.4705
     45 C           3.5577   -1.2383   27.7129 C.3     1  UNL1        0.2525
@<TRIPOS>BOND
     1    39    40    1
     2    40    41   am
     3    41    42    2
     4    41    33    1
     5    33    34   ar
     6    34    35   ar
     7    35    36   ar
     8    36    37   ar
     9    37    38   ar
    10    38    31    1
    11    31    24    1
    12    24    25   ar
    13    25    26   ar
    14    26    22    1
    15    22     1    1
    16     1     2   ar
    17     2     3   ar
    18     3     4   ar
    19     4     5   ar
    20     5     6   ar
    21     6    44    1
    22    44    45    1
    23     5     7    1
    24     7     8    1
    25     8     9    1
    26     9    10    1
    27    10    12    1
    28    12    13    1
    29    13    14    1
    30    14    15    1
    31    15    18    1
    32    18    19    1
    33    19    20    1
    34    15    16    1
    35    16    17    1
    36    10    11    1
    37    26    27   ar
    38    27    28   ar
    39    28    29   ar
    40    29    30    1
    41    38    33   ar
    42    29    24   ar
    43     6     1   ar
    44    17    12    1
    45    11     4    1
    46    40    43    1
    47    31    32    1
    48    22    23    1
    49    20    21    1
@<TRIPOS>MOLECULE
*****
 45 49 0 0 0
SMALL
GASTEIGER

@<TRIPOS>ATOM
      1 C           4.1624   -2.1122   20.0543 C.ar    1  UNL1        0.0846
      2 C           3.4924   -1.9781   21.3897 C.ar    1  UNL1        0.0174
      3 C           4.1260   -2.5774   22.6102 C.ar    1  UNL1       -0.0031
      4 C           5.4295   -3.3108   22.4952 C.ar    1  UNL1       -0.0218
      5 C           6.0993   -3.4448   21.1599 C.ar    1  UNL1        0.0091
      6 C           5.4658   -2.8455   19.9394 C.ar    1  UNL1        0.1477
      7 C           7.3914   -4.1299   20.8262 C.3     1  UNL1        0.0292
      8 C           8.3327   -4.8502   21.7457 C.3     1  UNL1        0.0062
      9 C           8.2143   -5.0632   23.2256 C.3     1  UNL1        0.0166
     10 C           7.1255   -4.6087   24.1519 C.3     1  UNL1        0.0619
     11 C           5.8861   -3.8287   23.8268 C.3     1  UNL1        0.0421
     12 N           7.2990   -4.9836   25.5939 N.3     1  UNL1       -0.2713
     13 C           6.9342   -4.0065   26.6720 C.3     1  UNL1        0.0896
     14 C           7.1078   -4.3815   28.1140 C.3     1  UNL1        0.0897
     15 N           7.6461   -5.7335   28.4779 N.3     1  UNL1       -0.2682
     16 C           8.0108   -6.7105   27.3998 C.3     1  UNL1        0.0897
     17 C           7.8373   -6.3355   25.9577 C.3     1  UNL1        0.0896
     18 C           7.8196   -6.1084   29.9199 C.3     1  UNL1        0.1043
     19 C           7.0466   -5.3834   30.9816 C.3     1  UNL1        0.1544
     20 O           6.4722   -6.1421   32.1410 O.3     1  UNL1       -0.3805
     21 H           5.7833   -6.7462   31.8227 H       1  UNL1        0.2105
     22 N           3.5288   -1.5128   18.8340 N.pl3   1  UNL1       -0.2801
     23 H           3.3923   -2.0635   18.0293 H       1  UNL1        0.1552
     24 C           1.2912    1.7340   19.2830 C.ar    1  UNL1        0.1472
     25 N           1.7169    0.2957   19.2774 N.ar    1  UNL1       -0.1976
     26 C           3.1031   -0.0745   18.8396 C.ar    1  UNL1        0.2220
     27 N           4.0634    0.9937   18.4074 N.ar    1  UNL1       -0.2110
     28 C           3.6378    2.4319   18.4130 C.ar    1  UNL1        0.1160
     29 C           2.2516    2.8021   18.8508 C.ar    1  UNL1        0.1085
     30 CL          1.8259    4.2404   18.8564 Cl      1  UNL1       -0.0777
     31 N          -0.0949    2.1041   19.7208 N.pl3   1  UNL1       -0.2970
     32 H          -0.8315    2.1132   19.0676 H       1  UNL1        0.1536
     33 C          -1.6463    3.1285   21.5357 C.ar    1  UNL1        0.0668
     34 C          -1.9101    3.4847   22.9687 C.ar    1  UNL1        0.0058
     35 C          -0.8864    3.1729   24.0198 C.ar    1  UNL1        0.0002
     36 C           0.4012    2.5049   23.6379 C.ar    1  UNL1        0.0013
     37 C           0.6650    2.1486   22.2049 C.ar    1  UNL1        0.0148
     38 C          -0.3587    2.4604   21.1538 C.ar    1  UNL1        0.0537
     39 C          -5.1172    3.3171   19.6206 C.3     1  UNL1        0.1109
     40 N          -4.0934    3.0053   20.6716 N.am    1  UNL1       -0.2991
     41 C          -2.6700    3.4402   20.4847 C.2     1  UNL1        0.2471
     42 O          -2.2705    4.1870   19.2467 O.2     1  UNL1       -0.2701
     43 H          -4.3556    2.5152   21.4842 H       1  UNL1        0.1498
     44 O           6.1358   -2.9795   18.6040 O.3     1  UNL1       -0.4705
     45 C           6.9250   -1.8342   18.0426 C.3     1  UNL1        0.2525
@<TRIPOS>BOND
     1    39    40    1
     2    40    41   am
     3    41    42    2
     4    41    33    1
     5    33    34   ar
     6    34    35   ar
     7    35    36   ar
     8    36    37   ar
     9    37    38   ar
    10    38    31    1
    11    31    24    1
    12    24    25   ar
    13    25    26   ar
    14    26    22    1
    15    22     1    1
    16     1     2   ar
    17     2     3   ar
    18     3     4   ar
    19     4     5   ar
    20     5     6   ar
    21     6    44    1
    22    44    45    1
    23     5     7    1
    24     7     8    1
    25     8     9    1
    26     9    10    1
    27    10    12    1
    28    12    13    1
    29    13    14    1
    30    14    15    1
    31    15    18    1
    32    18    19    1
    33    19    20    1
    34    15    16    1
    35    16    17    1
    36    10    11    1
    37    26    27   ar
    38    27    28   ar
    39    28    29   ar
    40    29    30    1
    41    38    33   ar
    42    29    24   ar
    43     6     1   ar
    44    17    12    1
    45    11     4    1
    46    40    43    1
    47    31    32    1
    48    22    23    1
    49    20    21    1
@<TRIPOS>MOLECULE
*****
 45 49 0 0 0
SMALL
GASTEIGER

@<TRIPOS>ATOM
      1 C           7.9615   -4.8092   25.9431 C.ar    1  UNL1        0.0846
      2 C           7.4381   -3.4035   25.9595 C.ar    1  UNL1        0.0174
      3 C           6.9713   -2.7920   27.2472 C.ar    1  UNL1       -0.0031
      4 C           7.0277   -3.5862   28.5185 C.ar    1  UNL1       -0.0218
      5 C           7.5510   -4.9918   28.5020 C.ar    1  UNL1        0.0091
      6 C           8.0179   -5.6033   27.2144 C.ar    1  UNL1        0.1477
      7 C           7.6921   -5.9507   29.6469 C.3     1  UNL1        0.0292
      8 C           7.3446   -5.7407   31.0910 C.3     1  UNL1        0.0062
      9 C           6.7703   -4.5200   31.7467 C.3     1  UNL1        0.0166
     10 C           6.4016   -3.2078   31.1205 C.3     1  UNL1        0.0619
     11 C           6.5162   -2.7922   29.6838 C.3     1  UNL1        0.0421
     12 N           5.8448   -2.1746   32.0544 N.3     1  UNL1       -0.2713
     13 C           6.2899   -0.7464   31.9444 C.3     1  UNL1        0.0896
     14 C           5.7330    0.2869   32.8784 C.3     1  UNL1        0.0897
     15 N           4.7310   -0.1081   33.9224 N.3     1  UNL1       -0.2682
     16 C           4.2858   -1.5363   34.0324 C.3     1  UNL1        0.0897
     17 C           4.8427   -2.5696   33.0984 C.3     1  UNL1        0.0896
     18 C           4.1741    0.9251   34.8564 C.3     1  UNL1        0.1043
     19 C           3.1171    1.8762   34.3785 C.3     1  UNL1        0.1544
     20 O           2.1184    1.4330   33.3509 O.3     1  UNL1       -0.3805
     21 H           2.5730    1.2605   32.5116 H       1  UNL1        0.2105
     22 N           8.4283   -5.4206   24.6554 N.pl3   1  UNL1       -0.2801
     23 H           8.9185   -6.2744   24.6651 H       1  UNL1        0.1552
     24 C           6.4523   -3.8354   21.6004 C.ar    1  UNL1        0.1472
     25 N           6.7323   -4.5248   22.9029 N.ar    1  UNL1       -0.1976
     26 C           8.1483   -4.7312   23.3529 C.ar    1  UNL1        0.2220
     27 N           9.2842   -4.2483   22.5005 N.ar    1  UNL1       -0.2110
     28 C           9.0042   -3.5589   21.1981 C.ar    1  UNL1        0.1160
     29 C           7.5882   -3.3525   20.7481 C.ar    1  UNL1        0.1085
     30 CL          7.3082   -2.6631   19.4456 Cl      1  UNL1       -0.0777
     31 N           5.0364   -3.6289   21.1504 N.pl3   1  UNL1       -0.2970
     32 H           4.6290   -4.2515   20.5057 H       1  UNL1        0.1536
     33 C           3.5345   -1.5498   20.7358 C.ar    1  UNL1        0.0668
     34 C           2.7393   -0.3948   21.2682 C.ar    1  UNL1        0.0058
     35 C           2.6506   -0.1638   22.7477 C.ar    1  UNL1        0.0002
     36 C           3.3571   -1.0878   23.6947 C.ar    1  UNL1        0.0013
     37 C           4.1524   -2.2428   23.1623 C.ar    1  UNL1        0.0148
     38 C           4.2411   -2.4739   21.6828 C.ar    1  UNL1        0.0537
     39 C           3.7734   -0.8438   16.8377 C.3     1  UNL1        0.1109
     40 N           3.6847   -0.6128   18.3172 N.am    1  UNL1       -0.2991
     41 C           3.6232   -1.7808   19.2564 C.2     1  UNL1        0.2471
     42 O           3.6504   -3.1798   18.7160 O.2     1  UNL1       -0.2701
     43 H           3.6668    0.3054   18.6719 H       1  UNL1        0.1498
     44 O           8.5412   -7.0090   27.1980 O.3     1  UNL1       -0.4705
     45 C           7.6640   -8.1304   26.7261 C.3     1  UNL1        0.2525
@<TRIPOS>BOND
     1    39    40    1
     2    40    41   am
     3    41    42    2
     4    41    33    1
     5    33    34   ar
     6    34    35   ar
     7    35    36   ar
     8    36    37   ar
     9    37    38   ar
    10    38    31    1
    11    31    24    1
    12    24    25   ar
    13    25    26   ar
    14    26    22    1
    15    22     1    1
    16     1     2   ar
    17     2     3   ar
    18     3     4   ar
    19     4     5   ar
    20     5     6   ar
    21     6    44    1
    22    44    45    1
    23     5     7    1
    24     7     8    1
    25     8     9    1
    26     9    10    1
    27    10    12    1
    28    12    13    1
    29    13    14    1
    30    14    15    1
    31    15    18    1
    32    18    19    1
    33    19    20    1
    34    15    16    1
    35    16    17    1
    36    10    11    1
    37    26    27   ar
    38    27    28   ar
    39    28    29   ar
    40    29    30    1
    41    38    33   ar
    42    29    24   ar
    43     6     1   ar
    44    17    12    1
    45    11     4    1
    46    40    43    1
    47    31    32    1
    48    22    23    1
    49    20    21    1
@<TRIPOS>MOLECULE
*****
 45 49 0 0 0
SMALL
GASTEIGER

@<TRIPOS>ATOM
      1 C           3.5177   -1.2429   20.1350 C.ar    1  UNL1        0.0846
      2 C           2.9354   -1.0704   21.5066 C.ar    1  UNL1        0.0174
      3 C           3.5868   -1.7291   22.6863 C.ar    1  UNL1       -0.0031
      4 C           4.8206   -2.5605   22.4944 C.ar    1  UNL1       -0.0218
      5 C           5.4028   -2.7330   21.1229 C.ar    1  UNL1        0.0091
      6 C           4.7514   -2.0743   19.9432 C.ar    1  UNL1        0.1477
      7 C           6.6169   -3.5132   20.7135 C.3     1  UNL1        0.0292
      8 C           7.5484   -4.3136   21.5748 C.3     1  UNL1        0.0062
      9 C           7.4960   -4.5313   23.0579 C.3     1  UNL1        0.0166
     10 C           6.4992   -4.0026   24.0462 C.3     1  UNL1        0.0619
     11 C           5.3085   -3.1255   23.7954 C.3     1  UNL1        0.0421
     12 N           6.7225   -4.4041   25.4741 N.3     1  UNL1       -0.2713
     13 C           7.1445   -5.8058   25.8019 C.3     1  UNL1        0.0896
     14 C           7.3678   -6.2072   27.2299 C.3     1  UNL1        0.0897
     15 N           7.1693   -5.2071   28.3300 N.3     1  UNL1       -0.2682
     16 C           6.7474   -3.8054   28.0022 C.3     1  UNL1        0.0897
     17 C           6.5240   -3.4040   26.5742 C.3     1  UNL1        0.0896
     18 C           7.3927   -5.6086   29.7579 C.3     1  UNL1        0.1043
     19 C           6.8624   -4.7523   30.8695 C.3     1  UNL1        0.1544
     20 O           6.4943   -5.3732   32.1843 O.3     1  UNL1       -0.3805
     21 H           5.7369   -5.9665   32.0610 H       1  UNL1        0.2105
     22 N           2.8662   -0.5841   18.9554 N.pl3   1  UNL1       -0.2801
     23 H           2.5718   -1.1271   18.1888 H       1  UNL1        0.1552
     24 C           1.1214    2.9651   19.2854 C.ar    1  UNL1        0.1472
     25 N           1.3244    1.4790   19.2970 N.ar    1  UNL1       -0.1976
     26 C           2.6633    0.9020   18.9439 C.ar    1  UNL1        0.2220
     27 N           3.7992    1.8114   18.5792 N.ar    1  UNL1       -0.2110
     28 C           3.5963    3.2975   18.5677 C.ar    1  UNL1        0.1160
     29 C           2.2574    3.8744   18.9208 C.ar    1  UNL1        0.1085
     30 CL          2.0544    5.3606   18.9092 Cl      1  UNL1       -0.0777
     31 N          -0.2174    3.5420   19.6385 N.pl3   1  UNL1       -0.2970
     32 H          -0.4170    3.7882   20.5706 H       1  UNL1        0.1536
     33 C          -2.7017    3.8492   18.9426 C.ar    1  UNL1        0.0668
     34 C          -3.7364    4.0509   17.8755 C.ar    1  UNL1        0.0058
     35 C          -3.3216    4.1469   16.4372 C.ar    1  UNL1        0.0002
     36 C          -1.8722    4.0413   16.0659 C.ar    1  UNL1        0.0013
     37 C          -0.8374    3.8396   17.1330 C.ar    1  UNL1        0.0148
     38 C          -1.2522    3.7436   18.5714 C.ar    1  UNL1        0.0537
     39 C          -4.7347    2.8470   22.2003 C.3     1  UNL1        0.1109
     40 N          -4.3199    2.9430   20.7620 N.am    1  UNL1       -0.2991
     41 C          -3.1164    3.7532   20.3809 C.2     1  UNL1        0.2471
     42 O          -2.3278    4.4675   21.4382 O.2     1  UNL1       -0.2701
     43 H          -4.8375    2.4742   20.0681 H       1  UNL1        0.1498
     44 O           5.3337   -2.2468   18.5716 O.3     1  UNL1       -0.4705
     45 C           6.2130   -1.1796   17.9905 C.3     1  UNL1        0.2525
@<TRIPOS>BOND
     1    39    40    1
     2    40    41   am
     3    41    42    2
     4    41    33    1
     5    33    34   ar
     6    34    35   ar
     7    35    36   ar
     8    36    37   ar
     9    37    38   ar
    10    38    31    1
    11    31    24    1
    12    24    25   ar
    13    25    26   ar
    14    26    22    1
    15    22     1    1
    16     1     2   ar
    17     2     3   ar
    18     3     4   ar
    19     4     5   ar
    20     5     6   ar
    21     6    44    1
    22    44    45    1
    23     5     7    1
    24     7     8    1
    25     8     9    1
    26     9    10    1
    27    10    12    1
    28    12    13    1
    29    13    14    1
    30    14    15    1
    31    15    18    1
    32    18    19    1
    33    19    20    1
    34    15    16    1
    35    16    17    1
    36    10    11    1
    37    26    27   ar
    38    27    28   ar
    39    28    29   ar
    40    29    30    1
    41    38    33   ar
    42    29    24   ar
    43     6     1   ar
    44    17    12    1
    45    11     4    1
    46    40    43    1
    47    31    32    1
    48    22    23    1
    49    20    21    1
@<TRIPOS>MOLECULE
*****
 45 49 0 0 0
SMALL
GASTEIGER

@<TRIPOS>ATOM
      1 C           2.1038   -0.3011   20.4399 C.ar    1  UNL1        0.0846
      2 C           2.0369   -0.1354   21.9292 C.ar    1  UNL1        0.0174
      3 C           2.9970   -0.8783   22.8104 C.ar    1  UNL1       -0.0031
      4 C           4.0239   -1.7869   22.2021 C.ar    1  UNL1       -0.0218
      5 C           4.0908   -1.9526   20.7129 C.ar    1  UNL1        0.0091
      6 C           3.1307   -1.2098   19.8317 C.ar    1  UNL1        0.1477
      7 C           5.0294   -2.8014   19.9075 C.3     1  UNL1        0.0292
      8 C           6.1330   -3.6941   20.3926 C.3     1  UNL1        0.0062
      9 C           6.5704   -3.9584   21.8027 C.3     1  UNL1        0.0166
     10 C           6.0125   -3.3955   23.0762 C.3     1  UNL1        0.0619
     11 C           4.8791   -2.4290   23.2540 C.3     1  UNL1        0.0421
     12 N           6.6754   -3.8603   24.3388 N.3     1  UNL1       -0.2713
     13 C           7.4913   -5.1191   24.3380 C.3     1  UNL1        0.0896
     14 C           8.1543   -5.5840   25.6007 C.3     1  UNL1        0.0897
     15 N           8.0014   -4.7902   26.8643 N.3     1  UNL1       -0.2682
     16 C           7.1856   -3.5314   26.8651 C.3     1  UNL1        0.0897
     17 C           6.5226   -3.0665   25.6024 C.3     1  UNL1        0.0896
     18 C           8.6644   -5.2551   28.1269 C.3     1  UNL1        0.1043
     19 C           7.9133   -6.1230   29.0927 C.3     1  UNL1        0.1544
     20 O           6.4605   -5.8637   29.3606 O.3     1  UNL1       -0.3805
     21 H           6.3612   -5.0058   29.8022 H       1  UNL1        0.2105
     22 N           1.1437    0.4417   19.5588 N.pl3   1  UNL1       -0.2801
     23 H           0.8846    0.0662   18.6864 H       1  UNL1        0.1552
     24 C          -1.4134    3.1591   20.9108 C.ar    1  UNL1        0.1472
     25 N          -0.8481    1.8439   20.4627 N.ar    1  UNL1       -0.1976
     26 C           0.5784    1.7569   20.0069 C.ar    1  UNL1        0.2220
     27 N           1.4395    2.9851   19.9993 N.ar    1  UNL1       -0.2110
     28 C           0.8743    4.3002   20.4474 C.ar    1  UNL1        0.1160
     29 C          -0.5522    4.3872   20.9032 C.ar    1  UNL1        0.1085
     30 CL         -1.1175    5.7024   21.3513 Cl      1  UNL1       -0.0777
     31 N          -2.8398    3.2460   21.3666 N.pl3   1  UNL1       -0.2970
     32 H          -3.0629    3.1059   22.3152 H       1  UNL1        0.1536
     33 C          -5.3255    3.8015   20.8538 C.ar    1  UNL1        0.0668
     34 C          -6.4120    4.1019   19.8642 C.ar    1  UNL1        0.0058
     35 C          -6.0993    4.1472   18.3978 C.ar    1  UNL1        0.0002
     36 C          -4.7002    3.8921   17.9210 C.ar    1  UNL1        0.0013
     37 C          -3.6137    3.5917   18.9106 C.ar    1  UNL1        0.0148
     38 C          -3.9263    3.5464   20.3770 C.ar    1  UNL1        0.0537
     39 C          -6.9647    4.6519   24.3666 C.3     1  UNL1        0.1109
     40 N          -6.6520    4.6972   22.9002 N.am    1  UNL1       -0.2991
     41 C          -5.6381    3.7562   22.3201 C.2     1  UNL1        0.2471
     42 O          -4.9368    2.7699   23.2063 O.2     1  UNL1       -0.2701
     43 H          -7.1123    5.3445   22.3185 H       1  UNL1        0.1498
     44 O           3.1976   -1.3755   18.3424 O.3     1  UNL1       -0.4705
     45 C           3.8780   -0.3361   17.5019 C.3     1  UNL1        0.2525
@<TRIPOS>BOND
     1    39    40    1
     2    40    41   am
     3    41    42    2
     4    41    33    1
     5    33    34   ar
     6    34    35   ar
     7    35    36   ar
     8    36    37   ar
     9    37    38   ar
    10    38    31    1
    11    31    24    1
    12    24    25   ar
    13    25    26   ar
    14    26    22    1
    15    22     1    1
    16     1     2   ar
    17     2     3   ar
    18     3     4   ar
    19     4     5   ar
    20     5     6   ar
    21     6    44    1
    22    44    45    1
    23     5     7    1
    24     7     8    1
    25     8     9    1
    26     9    10    1
    27    10    12    1
    28    12    13    1
    29    13    14    1
    30    14    15    1
    31    15    18    1
    32    18    19    1
    33    19    20    1
    34    15    16    1
    35    16    17    1
    36    10    11    1
    37    26    27   ar
    38    27    28   ar
    39    28    29   ar
    40    29    30    1
    41    38    33   ar
    42    29    24   ar
    43     6     1   ar
    44    17    12    1
    45    11     4    1
    46    40    43    1
    47    31    32    1
    48    22    23    1
    49    20    21    1
@<TRIPOS>MOLECULE
*****
 45 49 0 0 0
SMALL
GASTEIGER

@<TRIPOS>ATOM
      1 C           1.5135    0.0266   28.4662 C.ar    1  UNL1        0.0846
      2 C           0.1490    0.1775   29.0706 C.ar    1  UNL1        0.0174
      3 C          -0.8953    0.9955   28.3702 C.ar    1  UNL1       -0.0031
      4 C          -0.5750    1.6626   27.0654 C.ar    1  UNL1       -0.0218
      5 C           0.7895    1.5117   26.4611 C.ar    1  UNL1        0.0091
      6 C           1.8337    0.6938   27.1614 C.ar    1  UNL1        0.1477
      7 C           1.3135    2.0880   25.1791 C.3     1  UNL1        0.0292
      8 C           0.6023    2.9575   24.1850 C.3     1  UNL1        0.0062
      9 C          -0.8084    3.4654   24.2273 C.3     1  UNL1        0.0166
     10 C          -1.8565    3.2293   25.2741 C.3     1  UNL1        0.0619
     11 C          -1.7526    2.4270   26.5372 C.3     1  UNL1        0.0421
     12 N          -3.1838    3.8819   25.0249 N.3     1  UNL1       -0.2713
     13 C          -3.5781    4.2715   23.6311 C.3     1  UNL1        0.0896
     14 C          -4.9056    4.9241   23.3819 C.3     1  UNL1        0.0897
     15 N          -5.8388    5.1870   24.5264 N.3     1  UNL1       -0.2682
     16 C          -5.4445    4.7973   25.9203 C.3     1  UNL1        0.0897
     17 C          -4.1170    4.1447   26.1695 C.3     1  UNL1        0.0896
     18 C          -7.1662    5.8395   24.2772 C.3     1  UNL1        0.1043
     19 C          -8.3947    4.9970   24.1007 C.3     1  UNL1        0.1544
     20 O          -8.3450    3.7695   23.2402 O.3     1  UNL1       -0.3805
     21 H          -8.1911    4.0273   22.3178 H       1  UNL1        0.2105
     22 N           2.5577   -0.7913   29.1665 N.pl3   1  UNL1       -0.2801
     23 H           2.7654   -1.7001   28.8498 H       1  UNL1        0.1552
     24 C           3.2412    0.9197   32.6816 C.ar    1  UNL1        0.1472
     25 N           2.5135    0.3531   31.4986 N.ar    1  UNL1       -0.1976
     26 C           3.2854   -0.2247   30.3495 C.ar    1  UNL1        0.2220
     27 N           4.7850   -0.2358   30.3834 N.ar    1  UNL1       -0.2110
     28 C           5.5127    0.3307   31.5663 C.ar    1  UNL1        0.1160
     29 C           4.7408    0.9085   32.7154 C.ar    1  UNL1        0.1085
     30 CL          5.4685    1.4752   33.8984 Cl      1  UNL1       -0.0777
     31 N           2.4693    1.4975   33.8306 N.pl3   1  UNL1       -0.2970
     32 H           2.4259    1.0141   34.6872 H       1  UNL1        0.1536
     33 C           1.7432    3.7918   34.8100 C.ar    1  UNL1        0.0668
     34 C           1.0373    5.1061   34.6539 C.ar    1  UNL1        0.0058
     35 C           0.3516    5.4404   33.3623 C.ar    1  UNL1        0.0002
     36 C           0.3717    4.4605   32.2268 C.ar    1  UNL1        0.0013
     37 C           1.0776    3.1462   32.3829 C.ar    1  UNL1        0.0148
     38 C           1.7634    2.8118   33.6745 C.ar    1  UNL1        0.0537
     39 C           2.3033    2.8648   38.6279 C.3     1  UNL1        0.1109
     40 N           1.6176    3.1991   37.3364 N.am    1  UNL1       -0.2991
     41 C           2.4289    3.4575   36.1014 C.2     1  UNL1        0.2471
     42 O           3.9259    3.3816   36.1581 O.2     1  UNL1       -0.2701
     43 H           0.6351    3.2489   37.2992 H       1  UNL1        0.1498
     44 O           3.1983    0.5429   26.5569 O.3     1  UNL1       -0.4705
     45 C           4.3470    1.3479   27.0882 C.3     1  UNL1        0.2525
@<TRIPOS>BOND
     1    39    40    1
     2    40    41   am
     3    41    42    2
     4    41    33    1
     5    33    34   ar
     6    34    35   ar
     7    35    36   ar
     8    36    37   ar
     9    37    38   ar
    10    38    31    1
    11    31    24    1
    12    24    25   ar
    13    25    26   ar
    14    26    22    1
    15    22     1    1
    16     1     2   ar
    17     2     3   ar
    18     3     4   ar
    19     4     5   ar
    20     5     6   ar
    21     6    44    1
    22    44    45    1
    23     5     7    1
    24     7     8    1
    25     8     9    1
    26     9    10    1
    27    10    12    1
    28    12    13    1
    29    13    14    1
    30    14    15    1
    31    15    18    1
    32    18    19    1
    33    19    20    1
    34    15    16    1
    35    16    17    1
    36    10    11    1
    37    26    27   ar
    38    27    28   ar
    39    28    29   ar
    40    29    30    1
    41    38    33   ar
    42    29    24   ar
    43     6     1   ar
    44    17    12    1
    45    11     4    1
    46    40    43    1
    47    31    32    1
    48    22    23    1
    49    20    21    1
@<TRIPOS>MOLECULE
*****
 45 49 0 0 0
SMALL
GASTEIGER

@<TRIPOS>ATOM
      1 C           3.2569   -0.3259   30.8131 C.ar    1  UNL1        0.0846
      2 C           2.0948   -0.2588   29.8670 C.ar    1  UNL1        0.0174
      3 C           2.2891   -0.5858   28.4160 C.ar    1  UNL1       -0.0031
      4 C           3.6456   -0.9800   27.9111 C.ar    1  UNL1       -0.0218
      5 C           4.8075   -1.0470   28.8572 C.ar    1  UNL1        0.0091
      6 C           4.6133   -0.7200   30.3082 C.ar    1  UNL1        0.1477
      7 C           6.2321   -1.4144   28.5643 C.3     1  UNL1        0.0292
      8 C           6.8464   -1.8054   27.2528 C.3     1  UNL1        0.0062
      9 C           6.1879   -1.9256   25.9106 C.3     1  UNL1        0.0166
     10 C           4.7524   -1.6845   25.5480 C.3     1  UNL1        0.0619
     11 C           3.6210   -1.2636   26.4384 C.3     1  UNL1        0.0421
     12 N           4.4021   -1.8916   24.1044 N.3     1  UNL1       -0.2713
     13 C           3.4932   -0.9235   23.4067 C.3     1  UNL1        0.0896
     14 C           3.1429   -1.1307   21.9629 C.3     1  UNL1        0.0897
     15 N           3.7015   -2.3059   21.2168 N.3     1  UNL1       -0.2682
     16 C           4.6104   -3.2740   21.9144 C.3     1  UNL1        0.0897
     17 C           4.9607   -3.0669   23.3582 C.3     1  UNL1        0.0896
     18 C           3.3512   -2.5130   19.7731 C.3     1  UNL1        0.1043
     19 C           3.9059   -3.6910   19.0282 C.3     1  UNL1        0.1544
     20 O           5.0169   -3.4974   18.0392 O.3     1  UNL1       -0.3805
     21 H           4.6959   -2.9692   17.2917 H       1  UNL1        0.2105
     22 N           3.0625    0.0011   32.2640 N.pl3   1  UNL1       -0.2801
     23 H           3.1908   -0.6960   32.9472 H       1  UNL1        0.1552
     24 C           2.1429    3.1212   34.5378 C.ar    1  UNL1        0.1472
     25 N           2.5327    1.7319   34.1279 N.ar    1  UNL1       -0.1976
     26 C           2.6727    1.3904   32.6739 C.ar    1  UNL1        0.2220
     27 N           2.4227    2.4382   31.6300 N.ar    1  UNL1       -0.2110
     28 C           2.0329    3.8273   32.0399 C.ar    1  UNL1        0.1160
     29 C           1.8930    4.1689   33.4938 C.ar    1  UNL1        0.1085
     30 CL          1.5031    5.5581   33.9037 Cl      1  UNL1       -0.0777
     31 N           2.0030    3.4626   35.9917 N.pl3   1  UNL1       -0.2970
     32 H           1.1119    3.6342   36.3735 H       1  UNL1        0.1536
     33 C           3.2595    2.8022   38.1678 C.ar    1  UNL1        0.0668
     34 C           4.4773    2.8823   39.0399 C.ar    1  UNL1        0.0058
     35 C           5.6564    3.7028   38.6080 C.ar    1  UNL1        0.0002
     36 C           5.6178    4.4433   37.3041 C.ar    1  UNL1        0.0013
     37 C           4.4000    4.3632   36.4320 C.ar    1  UNL1        0.0148
     38 C           3.2208    3.5427   36.8638 C.ar    1  UNL1        0.0537
     39 C           1.1061   -0.2313   39.5499 C.3     1  UNL1        0.1109
     40 N           2.2852    0.5892   39.1181 N.am    1  UNL1       -0.2991
     41 C           2.0805    1.9818   38.5996 C.2     1  UNL1        0.2471
     42 O           0.6965    2.5539   38.5130 O.2     1  UNL1       -0.2701
     43 H           3.1935    0.2137   39.1749 H       1  UNL1        0.1498
     44 O           5.7754   -0.7871   31.2543 O.3     1  UNL1       -0.4705
     45 C           5.9961   -2.0163   32.0850 C.3     1  UNL1        0.2525
@<TRIPOS>BOND
     1    39    40    1
     2    40    41   am
     3    41    42    2
     4    41    33    1
     5    33    34   ar
     6    34    35   ar
     7    35    36   ar
     8    36    37   ar
     9    37    38   ar
    10    38    31    1
    11    31    24    1
    12    24    25   ar
    13    25    26   ar
    14    26    22    1
    15    22     1    1
    16     1     2   ar
    17     2     3   ar
    18     3     4   ar
    19     4     5   ar
    20     5     6   ar
    21     6    44    1
    22    44    45    1
    23     5     7    1
    24     7     8    1
    25     8     9    1
    26     9    10    1
    27    10    12    1
    28    12    13    1
    29    13    14    1
    30    14    15    1
    31    15    18    1
    32    18    19    1
    33    19    20    1
    34    15    16    1
    35    16    17    1
    36    10    11    1
    37    26    27   ar
    38    27    28   ar
    39    28    29   ar
    40    29    30    1
    41    38    33   ar
    42    29    24   ar
    43     6     1   ar
    44    17    12    1
    45    11     4    1
    46    40    43    1
    47    31    32    1
    48    22    23    1
    49    20    21    1
@<TRIPOS>MOLECULE
*****
 45 49 0 0 0
SMALL
GASTEIGER

@<TRIPOS>ATOM
      1 C           1.6746    1.7465   31.7746 C.ar    1  UNL1        0.0846
      2 C           2.7036    0.9339   32.5032 C.ar    1  UNL1        0.0174
      3 C           3.6249    0.0304   31.7383 C.ar    1  UNL1       -0.0031
      4 C           3.5172   -0.0604   30.2449 C.ar    1  UNL1       -0.0218
      5 C           2.4882    0.7522   29.5165 C.ar    1  UNL1        0.0091
      6 C           1.5669    1.6557   30.2812 C.ar    1  UNL1        0.1477
      7 C           2.2138    0.8101   28.0429 C.3     1  UNL1        0.0292
      8 C           2.9008    0.0696   26.9339 C.3     1  UNL1        0.0062
      9 C           4.0316   -0.9116   27.0246 C.3     1  UNL1        0.0166
     10 C           4.7550   -1.3947   28.2466 C.3     1  UNL1        0.0619
     11 C           4.5260   -1.0159   29.6798 C.3     1  UNL1        0.0421
     12 N           5.8523   -2.3879   28.0033 N.3     1  UNL1       -0.2713
     13 C           6.6080   -2.9693   29.1614 C.3     1  UNL1        0.0896
     14 C           7.7054   -3.9626   28.9180 C.3     1  UNL1        0.0897
     15 N           8.0472   -4.3744   27.5167 N.3     1  UNL1       -0.2682
     16 C           7.2915   -3.7930   26.3587 C.3     1  UNL1        0.0897
     17 C           6.1941   -2.7997   26.6021 C.3     1  UNL1        0.0896
     18 C           9.1445   -5.3677   27.2734 C.3     1  UNL1        0.1043
     19 C           8.8387   -6.8362   27.2651 C.3     1  UNL1        0.1544
     20 O           7.5767   -7.3430   27.8976 O.3     1  UNL1       -0.3805
     21 H           7.6105   -7.1897   28.8548 H       1  UNL1        0.2105
     22 N           0.7533    2.6500   32.5395 N.pl3   1  UNL1       -0.2801
     23 H          -0.2215    2.5660   32.4300 H       1  UNL1        0.1552
     24 C           2.4564    4.2955   35.7242 C.ar    1  UNL1        0.1472
     25 N           1.8925    3.2641   34.7924 N.ar    1  UNL1       -0.1976
     26 C           1.3173    3.6813   33.4713 C.ar    1  UNL1        0.2220
     27 N           1.3061    5.1300   33.0821 N.ar    1  UNL1       -0.2110
     28 C           1.8701    6.1613   34.0138 C.ar    1  UNL1        0.1160
     29 C           2.4452    5.7441   35.3349 C.ar    1  UNL1        0.1085
     30 CL          3.0092    6.7755   36.2667 Cl      1  UNL1       -0.0777
     31 N           3.0316    3.8782   37.0452 N.pl3   1  UNL1       -0.2970
     32 H           3.8806    4.2668   37.3572 H       1  UNL1        0.1536
     33 C           2.9500    1.5415   38.1779 C.ar    1  UNL1        0.0668
     34 C           2.2315    0.5321   39.0234 C.ar    1  UNL1        0.0058
     35 C           0.8760    0.8501   39.5818 C.ar    1  UNL1        0.0002
     36 C           0.2391    2.1774   39.2947 C.ar    1  UNL1        0.0013
     37 C           0.9576    3.1868   38.4491 C.ar    1  UNL1        0.0148
     38 C           2.3131    2.8689   37.8907 C.ar    1  UNL1        0.0537
     39 C           5.8855   -0.3820   36.3251 C.3     1  UNL1        0.1109
     40 N           4.5301   -0.0640   36.8835 N.am    1  UNL1       -0.2991
     41 C           4.3053    1.2235   37.6196 C.2     1  UNL1        0.2471
     42 O           5.4360    2.1930   37.7973 O.2     1  UNL1       -0.2701
     43 H           3.7880   -0.7003   36.7668 H       1  UNL1        0.1498
     44 O           0.5378    2.4683   29.5527 O.3     1  UNL1       -0.4705
     45 C           0.7742    3.9283   29.3032 C.3     1  UNL1        0.2525
@<TRIPOS>BOND
     1    39    40    1
     2    40    41   am
     3    41    42    2
     4    41    33    1
     5    33    34   ar
     6    34    35   ar
     7    35    36   ar
     8    36    37   ar
     9    37    38   ar
    10    38    31    1
    11    31    24    1
    12    24    25   ar
    13    25    26   ar
    14    26    22    1
    15    22     1    1
    16     1     2   ar
    17     2     3   ar
    18     3     4   ar
    19     4     5   ar
    20     5     6   ar
    21     6    44    1
    22    44    45    1
    23     5     7    1
    24     7     8    1
    25     8     9    1
    26     9    10    1
    27    10    12    1
    28    12    13    1
    29    13    14    1
    30    14    15    1
    31    15    18    1
    32    18    19    1
    33    19    20    1
    34    15    16    1
    35    16    17    1
    36    10    11    1
    37    26    27   ar
    38    27    28   ar
    39    28    29   ar
    40    29    30    1
    41    38    33   ar
    42    29    24   ar
    43     6     1   ar
    44    17    12    1
    45    11     4    1
    46    40    43    1
    47    31    32    1
    48    22    23    1
    49    20    21    1
@<TRIPOS>MOLECULE
*****
 45 49 0 0 0
SMALL
GASTEIGER

@<TRIPOS>ATOM
      1 C           4.8777   -1.7386   28.0202 C.ar    1  UNL1        0.0846
      2 C           3.6645   -0.9406   28.3960 C.ar    1  UNL1        0.0174
      3 C           3.4997   -0.4432   29.8015 C.ar    1  UNL1       -0.0031
      4 C           4.5482   -0.7438   30.8313 C.ar    1  UNL1       -0.0218
      5 C           5.7613   -1.5418   30.4555 C.ar    1  UNL1        0.0091
      6 C           5.9262   -2.0392   29.0500 C.ar    1  UNL1        0.1477
      7 C           6.9167   -1.9506   31.3204 C.3     1  UNL1        0.0292
      8 C           7.1441   -1.6622   32.7749 C.3     1  UNL1        0.0062
      9 C           6.2724   -0.8940   33.7233 C.3     1  UNL1        0.0166
     10 C           4.9579   -0.2243   33.4519 C.3     1  UNL1        0.0619
     11 C           4.1905   -0.1574   32.1648 C.3     1  UNL1        0.0421
     12 N           4.3275    0.4704   34.6223 N.3     1  UNL1       -0.2713
     13 C           3.3897    1.6192   34.3964 C.3     1  UNL1        0.0896
     14 C           2.7592    2.3140   35.5669 C.3     1  UNL1        0.0897
     15 N           3.0665    1.8600   36.9632 N.3     1  UNL1       -0.2682
     16 C           4.0043    0.7112   37.1890 C.3     1  UNL1        0.0897
     17 C           4.6347    0.0164   36.0185 C.3     1  UNL1        0.0896
     18 C           2.4360    2.5547   38.1335 C.3     1  UNL1        0.1043
     19 C           1.5731    1.7834   39.0877 C.3     1  UNL1        0.1544
     20 O           0.0914    1.7091   38.8667 O.3     1  UNL1       -0.3805
     21 H          -0.2963    2.5918   38.9744 H       1  UNL1        0.2105
     22 N           5.0425   -2.2359   26.6147 N.pl3   1  UNL1       -0.2801
     23 H           5.2987   -3.1723   26.4507 H       1  UNL1        0.1552
     24 C           3.7793   -0.8286   23.1256 C.ar    1  UNL1        0.1472
     25 N           4.0050   -1.7579   24.2812 N.ar    1  UNL1       -0.1976
     26 C           4.8169   -1.3066   25.4591 C.ar    1  UNL1        0.2220
     27 N           5.4031    0.0740   25.4812 N.ar    1  UNL1       -0.2110
     28 C           5.1775    1.0032   24.3256 C.ar    1  UNL1        0.1160
     29 C           4.3656    0.5520   23.1478 C.ar    1  UNL1        0.1085
     30 CL          4.1399    1.4813   21.9921 Cl      1  UNL1       -0.0777
     31 N           2.9675   -1.2799   21.9478 N.pl3   1  UNL1       -0.2970
     32 H           1.9861   -1.2048   21.9686 H       1  UNL1        0.1536
     33 C           3.3644   -1.2766   19.3802 C.ar    1  UNL1        0.0668
     34 C           4.0479   -1.8421   18.1706 C.ar    1  UNL1        0.0058
     35 C           5.0180   -2.9766   18.3192 C.ar    1  UNL1        0.0002
     36 C           5.3046   -3.5455   19.6772 C.ar    1  UNL1        0.0013
     37 C           4.6210   -2.9800   20.8867 C.ar    1  UNL1        0.0148
     38 C           3.6510   -1.8455   20.7382 C.ar    1  UNL1        0.0537
     39 C           1.8674    2.2806   18.4553 C.3     1  UNL1        0.1109
     40 N           2.8374    1.1461   18.6039 N.am    1  UNL1       -0.2991
     41 C           2.3945   -0.1421   19.2316 C.2     1  UNL1        0.2471
     42 O           0.9814   -0.2959   19.7109 O.2     1  UNL1       -0.2701
     43 H           3.7648    1.2471   18.2893 H       1  UNL1        0.1498
     44 O           7.1395   -2.8372   28.6743 O.3     1  UNL1       -0.4705
     45 C           8.3036   -2.1641   28.0098 C.3     1  UNL1        0.2525
@<TRIPOS>BOND
     1    39    40    1
     2    40    41   am
     3    41    42    2
     4    41    33    1
     5    33    34   ar
     6    34    35   ar
     7    35    36   ar
     8    36    37   ar
     9    37    38   ar
    10    38    31    1
    11    31    24    1
    12    24    25   ar
    13    25    26   ar
    14    26    22    1
    15    22     1    1
    16     1     2   ar
    17     2     3   ar
    18     3     4   ar
    19     4     5   ar
    20     5     6   ar
    21     6    44    1
    22    44    45    1
    23     5     7    1
    24     7     8    1
    25     8     9    1
    26     9    10    1
    27    10    12    1
    28    12    13    1
    29    13    14    1
    30    14    15    1
    31    15    18    1
    32    18    19    1
    33    19    20    1
    34    15    16    1
    35    16    17    1
    36    10    11    1
    37    26    27   ar
    38    27    28   ar
    39    28    29   ar
    40    29    30    1
    41    38    33   ar
    42    29    24   ar
    43     6     1   ar
    44    17    12    1
    45    11     4    1
    46    40    43    1
    47    31    32    1
    48    22    23    1
    49    20    21    1
