@<TRIPOS>MOLECULE
*****
 19 22 0 0 0
SMALL
GASTEIGER

@<TRIPOS>ATOM
      1 C          -6.2420  -15.1660   26.9159 C.ar    1  UNL1       -0.0000
      2 C          -7.3627  -15.8993   27.5913 C.ar    1  UNL1       -0.0000
      3 C          -8.4466  -16.5329   26.7705 C.ar    1  UNL1       -0.0000
      4 C          -8.4097  -16.4332   25.2743 C.ar    1  UNL1       -0.0003
      5 C          -9.4936  -17.0667   24.4534 C.ar    1  UNL1       -0.0042
      6 C          -9.4568  -16.9670   22.9572 C.ar    1  UNL1       -0.0215
      7 C          -8.3360  -16.2337   22.2818 C.ar    1  UNL1       -0.0042
      8 C          -7.2521  -15.6001   23.1026 C.ar    1  UNL1       -0.0003
      9 C          -7.2890  -15.6999   24.5989 C.ar    1  UNL1       -0.0000
     10 C          -6.2051  -15.0663   25.4197 C.ar    1  UNL1       -0.0000
     11 C         -10.5407  -17.6006   22.1364 C.3     1  UNL1        0.0347
     12 C         -11.1159  -16.3889   22.8078 C.3     1  UNL1        0.0054
     13 C         -12.5553  -16.2736   22.4019 C.3     1  UNL1        0.0004
     14 C         -12.8697  -17.4140   21.4797 C.3     1  UNL1        0.0017
     15 C         -11.6246  -18.2341   21.3155 C.3     1  UNL1        0.0208
     16 C         -11.0492  -19.4458   20.6441 C.3     1  UNL1        0.0689
     17 N          -9.6098  -19.5611   21.0500 N.3     1  UNL1       -0.2972
     18 C          -9.2955  -18.4207   21.9722 C.3     1  UNL1        0.0726
     19 H          -9.0125  -19.5135   20.2245 H       1  UNL1        0.1233
@<TRIPOS>BOND
     1     1     2   ar
     2     2     3   ar
     3     3     4   ar
     4     4     5   ar
     5     5     6   ar
     6    11     6    1
     7    11    12    1
     8    12    13    1
     9    13    14    1
    10    15    14    1
    11    15    16    1
    12    16    17    1
    13    17    18    1
    14     6     7   ar
    15     7     8   ar
    16     8     9   ar
    17     9    10   ar
    18    10     1   ar
    19     9     4   ar
    20    15    11    1
    21    18    11    1
    22    17    19    1
@<TRIPOS>MOLECULE
*****
 19 22 0 0 0
SMALL
GASTEIGER

@<TRIPOS>ATOM
      1 C          -2.9268  -19.8634   20.6671 C.ar    1  UNL1       -0.0000
      2 C          -2.8565  -19.1360   21.9771 C.ar    1  UNL1       -0.0000
      3 C          -4.1173  -18.6855   22.6534 C.ar    1  UNL1       -0.0000
      4 C          -5.4484  -18.9624   22.0197 C.ar    1  UNL1       -0.0003
      5 C          -6.7092  -18.5119   22.6960 C.ar    1  UNL1       -0.0042
      6 C          -8.0403  -18.7887   22.0624 C.ar    1  UNL1       -0.0215
      7 C          -8.1106  -19.5161   20.7524 C.ar    1  UNL1       -0.0042
      8 C          -6.8498  -19.9666   20.0761 C.ar    1  UNL1       -0.0003
      9 C          -5.5187  -19.6897   20.7098 C.ar    1  UNL1       -0.0000
     10 C          -4.2578  -20.1402   20.0335 C.ar    1  UNL1       -0.0000
     11 C          -9.3011  -18.3382   22.7387 C.3     1  UNL1        0.0347
     12 C          -9.0476  -19.7631   23.1325 C.3     1  UNL1        0.0054
     13 C         -10.1517  -20.1933   24.0522 C.3     1  UNL1        0.0004
     14 C         -11.0876  -19.0342   24.2268 C.3     1  UNL1        0.0017
     15 C         -10.5619  -17.8877   23.4150 C.3     1  UNL1        0.0208
     16 C         -10.8154  -16.4627   23.0212 C.3     1  UNL1        0.0689
     17 N          -9.7113  -16.0325   22.1014 N.3     1  UNL1       -0.2972
     18 C          -8.7754  -17.1916   21.9269 C.3     1  UNL1        0.0726
     19 H          -9.2110  -15.2417   22.5074 H       1  UNL1        0.1233
@<TRIPOS>BOND
     1     1     2   ar
     2     2     3   ar
     3     3     4   ar
     4     4     5   ar
     5     5     6   ar
     6    11     6    1
     7    11    12    1
     8    12    13    1
     9    13    14    1
    10    15    14    1
    11    15    16    1
    12    16    17    1
    13    17    18    1
    14     6     7   ar
    15     7     8   ar
    16     8     9   ar
    17     9    10   ar
    18    10     1   ar
    19     9     4   ar
    20    15    11    1
    21    18    11    1
    22    17    19    1
@<TRIPOS>MOLECULE
*****
 19 22 0 0 0
SMALL
GASTEIGER

@<TRIPOS>ATOM
      1 C          -6.1689  -15.1451   26.8912 C.ar    1  UNL1       -0.0000
      2 C          -7.2776  -15.8541   27.6108 C.ar    1  UNL1       -0.0000
      3 C          -8.3854  -16.4991   26.8319 C.ar    1  UNL1       -0.0000
      4 C          -8.3845  -16.4351   25.3333 C.ar    1  UNL1       -0.0003
      5 C          -9.4923  -17.0801   24.5544 C.ar    1  UNL1       -0.0042
      6 C          -9.4914  -17.0160   23.0558 C.ar    1  UNL1       -0.0215
      7 C          -8.3827  -16.3069   22.3360 C.ar    1  UNL1       -0.0042
      8 C          -7.2749  -15.6619   23.1149 C.ar    1  UNL1       -0.0003
      9 C          -7.2758  -15.7260   24.6136 C.ar    1  UNL1       -0.0000
     10 C          -6.1680  -15.0810   25.3926 C.ar    1  UNL1       -0.0000
     11 C         -10.5993  -17.6610   22.2768 C.3     1  UNL1        0.0347
     12 C          -9.4323  -18.6033   22.2900 C.3     1  UNL1        0.0054
     13 C          -9.8189  -19.8306   21.5192 C.3     1  UNL1        0.0004
     14 C         -11.2248  -19.6469   21.0297 C.3     1  UNL1        0.0017
     15 C         -11.7071  -18.3060   21.4979 C.3     1  UNL1        0.0208
     16 C         -12.8741  -17.3637   21.4847 C.3     1  UNL1        0.0689
     17 N         -12.4875  -16.1363   22.2555 N.3     1  UNL1       -0.2972
     18 C         -11.0816  -16.3201   22.7450 C.3     1  UNL1        0.0726
     19 H         -13.1169  -16.0131   23.0487 H       1  UNL1        0.1233
@<TRIPOS>BOND
     1     1     2   ar
     2     2     3   ar
     3     3     4   ar
     4     4     5   ar
     5     5     6   ar
     6    11     6    1
     7    11    12    1
     8    12    13    1
     9    13    14    1
    10    15    14    1
    11    15    16    1
    12    16    17    1
    13    17    18    1
    14     6     7   ar
    15     7     8   ar
    16     8     9   ar
    17     9    10   ar
    18    10     1   ar
    19     9     4   ar
    20    15    11    1
    21    18    11    1
    22    17    19    1
@<TRIPOS>MOLECULE
*****
 19 22 0 0 0
SMALL
GASTEIGER

@<TRIPOS>ATOM
      1 C          -1.9385  -18.7464   21.9258 C.ar    1  UNL1       -0.0000
      2 C          -2.6235  -17.8284   22.8943 C.ar    1  UNL1       -0.0000
      3 C          -4.1199  -17.8284   22.9976 C.ar    1  UNL1       -0.0000
      4 C          -4.9314  -18.7464   22.1323 C.ar    1  UNL1       -0.0003
      5 C          -6.4278  -18.7464   22.2355 C.ar    1  UNL1       -0.0042
      6 C          -7.2393  -19.6644   21.3702 C.ar    1  UNL1       -0.0215
      7 C          -6.5544  -20.5824   20.4016 C.ar    1  UNL1       -0.0042
      8 C          -5.0579  -20.5824   20.2984 C.ar    1  UNL1       -0.0003
      9 C          -4.2464  -19.6644   21.1637 C.ar    1  UNL1       -0.0000
     10 C          -2.7500  -19.6644   21.0605 C.ar    1  UNL1       -0.0000
     11 C          -8.7358  -19.6644   21.4735 C.3     1  UNL1        0.0347
     12 C          -8.3700  -19.4099   20.0413 C.3     1  UNL1        0.0054
     13 C          -9.6403  -19.2525   19.2594 C.3     1  UNL1        0.0004
     14 C         -10.7912  -19.4099   20.2084 C.3     1  UNL1        0.0017
     15 C         -10.2322  -19.6644   21.5768 C.3     1  UNL1        0.0208
     16 C         -10.5980  -19.9189   23.0090 C.3     1  UNL1        0.0689
     17 N          -9.3276  -20.0763   23.7910 N.3     1  UNL1       -0.2972
     18 C          -8.1767  -19.9189   22.8420 C.3     1  UNL1        0.0726
     19 H          -9.2980  -21.0008   24.2208 H       1  UNL1        0.1233
@<TRIPOS>BOND
     1     1     2   ar
     2     2     3   ar
     3     3     4   ar
     4     4     5   ar
     5     5     6   ar
     6    11     6    1
     7    11    12    1
     8    12    13    1
     9    13    14    1
    10    15    14    1
    11    15    16    1
    12    16    17    1
    13    17    18    1
    14     6     7   ar
    15     7     8   ar
    16     8     9   ar
    17     9    10   ar
    18    10     1   ar
    19     9     4   ar
    20    15    11    1
    21    18    11    1
    22    17    19    1
@<TRIPOS>MOLECULE
*****
 19 22 0 0 0
SMALL
GASTEIGER

@<TRIPOS>ATOM
      1 C          -3.7944  -17.6529   23.2132 C.ar    1  UNL1       -0.0000
      2 C          -4.3055  -18.7924   22.3823 C.ar    1  UNL1       -0.0000
      3 C          -5.7752  -18.9239   22.1127 C.ar    1  UNL1       -0.0000
      4 C          -6.7338  -17.9159   22.6739 C.ar    1  UNL1       -0.0003
      5 C          -8.2035  -18.0474   22.4043 C.ar    1  UNL1       -0.0042
      6 C          -9.1621  -17.0394   22.9655 C.ar    1  UNL1       -0.0215
      7 C          -8.6510  -15.8999   23.7964 C.ar    1  UNL1       -0.0042
      8 C          -7.1813  -15.7684   24.0660 C.ar    1  UNL1       -0.0003
      9 C          -6.2227  -16.7764   23.5048 C.ar    1  UNL1       -0.0000
     10 C          -4.7530  -16.6449   23.7744 C.ar    1  UNL1       -0.0000
     11 C         -10.6318  -17.1709   22.6959 C.3     1  UNL1        0.0347
     12 C         -10.3157  -17.9555   23.9346 C.3     1  UNL1        0.0054
     13 C         -11.5901  -18.5720   24.4306 C.3     1  UNL1        0.0004
     14 C         -12.6937  -18.1683   23.4983 C.3     1  UNL1        0.0017
     15 C         -12.1015  -17.3024   22.4263 C.3     1  UNL1        0.0208
     16 C         -12.4175  -16.5177   21.1876 C.3     1  UNL1        0.0689
     17 N         -11.1431  -15.9013   20.6916 N.3     1  UNL1       -0.2972
     18 C         -10.0395  -16.3050   21.6238 C.3     1  UNL1        0.0726
     19 H         -11.2318  -14.8852   20.6796 H       1  UNL1        0.1233
@<TRIPOS>BOND
     1     1     2   ar
     2     2     3   ar
     3     3     4   ar
     4     4     5   ar
     5     5     6   ar
     6    11     6    1
     7    11    12    1
     8    12    13    1
     9    13    14    1
    10    15    14    1
    11    15    16    1
    12    16    17    1
    13    17    18    1
    14     6     7   ar
    15     7     8   ar
    16     8     9   ar
    17     9    10   ar
    18    10     1   ar
    19     9     4   ar
    20    15    11    1
    21    18    11    1
    22    17    19    1
@<TRIPOS>MOLECULE
*****
 19 22 0 0 0
SMALL
GASTEIGER

@<TRIPOS>ATOM
      1 C          -4.4409  -19.9200   20.6632 C.ar    1  UNL1       -0.0000
      2 C          -4.5385  -19.1334   21.9366 C.ar    1  UNL1       -0.0000
      3 C          -5.8661  -18.6032   22.3908 C.ar    1  UNL1       -0.0000
      4 C          -7.0961  -18.8595   21.5715 C.ar    1  UNL1       -0.0003
      5 C          -8.4237  -18.3292   22.0257 C.ar    1  UNL1       -0.0042
      6 C          -9.6538  -18.5855   21.2064 C.ar    1  UNL1       -0.0215
      7 C          -9.5562  -19.3721   19.9328 C.ar    1  UNL1       -0.0042
      8 C          -8.2286  -19.9023   19.4787 C.ar    1  UNL1       -0.0003
      9 C          -6.9985  -19.6460   20.2980 C.ar    1  UNL1       -0.0000
     10 C          -5.6709  -20.1763   19.8439 C.ar    1  UNL1       -0.0000
     11 C         -10.9814  -18.0553   21.6606 C.3     1  UNL1        0.0347
     12 C         -10.4674  -18.9859   22.7186 C.3     1  UNL1        0.0054
     13 C         -11.4773  -19.0309   23.8268 C.3     1  UNL1        0.0004
     14 C         -12.6155  -18.1280   23.4535 C.3     1  UNL1        0.0017
     15 C         -12.3090  -17.5251   22.1147 C.3     1  UNL1        0.0208
     16 C         -12.8230  -16.5944   21.0566 C.3     1  UNL1        0.0689
     17 N         -11.8131  -16.5494   19.9484 N.3     1  UNL1       -0.2972
     18 C         -10.6749  -17.4523   20.3217 C.3     1  UNL1        0.0726
     19 H         -11.4730  -15.5953   19.8285 H       1  UNL1        0.1233
@<TRIPOS>BOND
     1     1     2   ar
     2     2     3   ar
     3     3     4   ar
     4     4     5   ar
     5     5     6   ar
     6    11     6    1
     7    11    12    1
     8    12    13    1
     9    13    14    1
    10    15    14    1
    11    15    16    1
    12    16    17    1
    13    17    18    1
    14     6     7   ar
    15     7     8   ar
    16     8     9   ar
    17     9    10   ar
    18    10     1   ar
    19     9     4   ar
    20    15    11    1
    21    18    11    1
    22    17    19    1
@<TRIPOS>MOLECULE
*****
 19 22 0 0 0
SMALL
GASTEIGER

@<TRIPOS>ATOM
      1 C          -3.8491  -17.5803   23.1392 C.ar    1  UNL1       -0.0000
      2 C          -4.3644  -18.7136   22.3026 C.ar    1  UNL1       -0.0000
      3 C          -5.8410  -18.8894   22.1055 C.ar    1  UNL1       -0.0000
      4 C          -6.8023  -17.9319   22.7450 C.ar    1  UNL1       -0.0003
      5 C          -8.2788  -18.1077   22.5478 C.ar    1  UNL1       -0.0042
      6 C          -9.2401  -17.1501   23.1873 C.ar    1  UNL1       -0.0215
      7 C          -8.7248  -16.0167   24.0240 C.ar    1  UNL1       -0.0042
      8 C          -7.2483  -15.8409   24.2212 C.ar    1  UNL1       -0.0003
      9 C          -6.2870  -16.7985   23.5816 C.ar    1  UNL1       -0.0000
     10 C          -4.8104  -16.6228   23.7787 C.ar    1  UNL1       -0.0000
     11 C         -10.7167  -17.3259   22.9902 C.3     1  UNL1        0.0347
     12 C         -10.1981  -16.4720   21.8714 C.3     1  UNL1        0.0054
     13 C         -11.3541  -16.1200   20.9828 C.3     1  UNL1        0.0004
     14 C         -12.5872  -16.7564   21.5524 C.3     1  UNL1        0.0017
     15 C         -12.1932  -17.5017   22.7930 C.3     1  UNL1        0.0208
     16 C         -12.7118  -18.3557   23.9119 C.3     1  UNL1        0.0689
     17 N         -11.5558  -18.7077   24.8005 N.3     1  UNL1       -0.2972
     18 C         -10.3227  -18.0713   24.2308 C.3     1  UNL1        0.0726
     19 H         -11.4394  -19.7205   24.8322 H       1  UNL1        0.1233
@<TRIPOS>BOND
     1     1     2   ar
     2     2     3   ar
     3     3     4   ar
     4     4     5   ar
     5     5     6   ar
     6    11     6    1
     7    11    12    1
     8    12    13    1
     9    13    14    1
    10    15    14    1
    11    15    16    1
    12    16    17    1
    13    17    18    1
    14     6     7   ar
    15     7     8   ar
    16     8     9   ar
    17     9    10   ar
    18    10     1   ar
    19     9     4   ar
    20    15    11    1
    21    18    11    1
    22    17    19    1
@<TRIPOS>MOLECULE
*****
 19 22 0 0 0
SMALL
GASTEIGER

@<TRIPOS>ATOM
      1 C          -3.6127  -19.6247   20.6689 C.ar    1  UNL1       -0.0000
      2 C          -3.5776  -18.9440   22.0050 C.ar    1  UNL1       -0.0000
      3 C          -4.8562  -18.5170   22.6630 C.ar    1  UNL1       -0.0000
      4 C          -6.1698  -18.7708   21.9848 C.ar    1  UNL1       -0.0003
      5 C          -7.4484  -18.3438   22.6428 C.ar    1  UNL1       -0.0042
      6 C          -8.7620  -18.5975   21.9647 C.ar    1  UNL1       -0.0215
      7 C          -8.7971  -19.2783   20.6285 C.ar    1  UNL1       -0.0042
      8 C          -7.5186  -19.7053   19.9705 C.ar    1  UNL1       -0.0003
      9 C          -6.2049  -19.4515   20.6487 C.ar    1  UNL1       -0.0000
     10 C          -4.9263  -19.8785   19.9907 C.ar    1  UNL1       -0.0000
     11 C         -10.0406  -18.1705   22.6227 C.3     1  UNL1        0.0347
     12 C          -9.7317  -17.1904   21.5301 C.3     1  UNL1        0.0054
     13 C         -10.8194  -16.1576   21.5128 C.3     1  UNL1        0.0004
     14 C         -11.8005  -16.4995   22.5947 C.3     1  UNL1        0.0017
     15 C         -11.3191  -17.7435   23.2807 C.3     1  UNL1        0.0208
     16 C         -11.6280  -18.7237   24.3733 C.3     1  UNL1        0.0689
     17 N         -10.5403  -19.7565   24.3906 N.3     1  UNL1       -0.2972
     18 C          -9.5592  -19.4146   23.3087 C.3     1  UNL1        0.0726
     19 H         -10.9373  -20.6802   24.2186 H       1  UNL1        0.1233
@<TRIPOS>BOND
     1     1     2   ar
     2     2     3   ar
     3     3     4   ar
     4     4     5   ar
     5     5     6   ar
     6    11     6    1
     7    11    12    1
     8    12    13    1
     9    13    14    1
    10    15    14    1
    11    15    16    1
    12    16    17    1
    13    17    18    1
    14     6     7   ar
    15     7     8   ar
    16     8     9   ar
    17     9    10   ar
    18    10     1   ar
    19     9     4   ar
    20    15    11    1
    21    18    11    1
    22    17    19    1
@<TRIPOS>MOLECULE
*****
 19 22 0 0 0
SMALL
GASTEIGER

@<TRIPOS>ATOM
      1 C          -2.1000  -18.4967   22.3345 C.ar    1  UNL1       -0.0000
      2 C          -2.3623  -19.6654   21.4316 C.ar    1  UNL1       -0.0000
      3 C          -3.7724  -20.0626   21.1094 C.ar    1  UNL1       -0.0000
      4 C          -4.9202  -19.2910   21.6899 C.ar    1  UNL1       -0.0003
      5 C          -6.3303  -19.6881   21.3676 C.ar    1  UNL1       -0.0042
      6 C          -7.4781  -18.9165   21.9481 C.ar    1  UNL1       -0.0215
      7 C          -7.2159  -17.7477   22.8510 C.ar    1  UNL1       -0.0042
      8 C          -5.8058  -17.3505   23.1733 C.ar    1  UNL1       -0.0003
      9 C          -4.6579  -18.1222   22.5927 C.ar    1  UNL1       -0.0000
     10 C          -3.2478  -17.7250   22.9150 C.ar    1  UNL1       -0.0000
     11 C          -8.8882  -19.3137   21.6258 C.3     1  UNL1        0.0347
     12 C          -8.6677  -19.5364   23.0926 C.3     1  UNL1        0.0054
     13 C          -9.9415  -20.0711   23.6769 C.3     1  UNL1        0.0004
     14 C         -10.9493  -20.1789   22.5711 C.3     1  UNL1        0.0017
     15 C         -10.2984  -19.7108   21.3035 C.3     1  UNL1        0.0208
     16 C         -10.5189  -19.4881   19.8366 C.3     1  UNL1        0.0689
     17 N          -9.2451  -18.9533   19.2523 N.3     1  UNL1       -0.2972
     18 C          -8.2373  -18.8455   20.3581 C.3     1  UNL1        0.0726
     19 H          -9.4109  -18.0333   18.8442 H       1  UNL1        0.1233
@<TRIPOS>BOND
     1     1     2   ar
     2     2     3   ar
     3     3     4   ar
     4     4     5   ar
     5     5     6   ar
     6    11     6    1
     7    11    12    1
     8    12    13    1
     9    13    14    1
    10    15    14    1
    11    15    16    1
    12    16    17    1
    13    17    18    1
    14     6     7   ar
    15     7     8   ar
    16     8     9   ar
    17     9    10   ar
    18    10     1   ar
    19     9     4   ar
    20    15    11    1
    21    18    11    1
    22    17    19    1
