@<TRIPOS>MOLECULE
*****
 20 21 0 0 0
SMALL
GASTEIGER

@<TRIPOS>ATOM
      1 C         -11.8497  -18.5079   23.3734 C.ar    1  UNL1        0.1418
      2 C         -10.4798  -19.1187   23.3538 C.ar    1  UNL1        0.0371
      3 C          -9.6450  -19.0483   22.1096 C.ar    1  UNL1        0.0061
      4 C         -10.1800  -18.3672   20.8849 C.ar    1  UNL1        0.0371
      5 C         -11.5499  -17.7564   20.9045 C.ar    1  UNL1        0.1418
      6 C         -12.3847  -17.8268   22.1487 C.ar    1  UNL1        0.0737
      7 C         -14.1454  -18.2429   24.5605 C.3     1  UNL1        0.2525
      8 O         -12.6845  -18.5783   24.6176 O.3     1  UNL1       -0.4713
      9 C          -8.2751  -19.6591   22.0900 C.2     1  UNL1        0.0035
     10 C          -7.3249  -19.3342   20.9758 C.2     1  UNL1        0.0435
     11 C          -5.9550  -19.9449   20.9562 C.2     1  UNL1        0.2111
     12 O          -5.7358  -21.2741   20.2964 O.2     1  UNL1       -0.2850
     13 C          -4.8043  -19.2265   21.5964 C.ar    1  UNL1        0.0961
     14 C          -3.3504  -19.5385   21.3992 C.ar    1  UNL1        0.0218
     15 C          -2.5530  -18.5749   22.2271 C.ar    1  UNL1        0.0200
     16 C          -3.5141  -17.6673   22.9362 C.ar    1  UNL1        0.0725
     17 N          -4.9054  -18.0701   22.5463 N.ar    1  UNL1       -0.3495
     18 H          -5.7387  -17.6492   22.8591 H       1  UNL1        0.1661
     19 O         -12.0849  -17.0752   19.6798 O.3     1  UNL1       -0.4713
     20 C         -11.6034  -15.7025   19.3143 C.3     1  UNL1        0.2525
@<TRIPOS>BOND
     1     7     8    1
     2     8     1    1
     3     1     2   ar
     4     2     3   ar
     5     3     9    1
     6     9    10    2
     7    10    11    1
     8    11    12    2
     9    11    13    1
    10    13    14   ar
    11    14    15   ar
    12    15    16   ar
    13    16    17   ar
    14     3     4   ar
    15     4     5   ar
    16     5    19    1
    17    19    20    1
    18     5     6   ar
    19     6     1   ar
    20    17    13   ar
    21    17    18    1
@<TRIPOS>MOLECULE
*****
 20 21 0 0 0
SMALL
GASTEIGER

@<TRIPOS>ATOM
      1 C         -11.5647  -17.7507   20.9027 C.ar    1  UNL1        0.1418
      2 C         -10.2057  -18.3823   20.8390 C.ar    1  UNL1        0.0371
      3 C          -9.6454  -19.0793   22.0433 C.ar    1  UNL1        0.0061
      4 C         -10.4441  -19.1446   23.3113 C.ar    1  UNL1        0.0371
      5 C         -11.8031  -18.5130   23.3749 C.ar    1  UNL1        0.1418
      6 C         -12.3634  -17.8160   22.1706 C.ar    1  UNL1        0.0737
      7 C         -11.6282  -15.6892   19.3227 C.3     1  UNL1        0.2525
      8 O         -12.1250  -17.0537   19.6984 O.3     1  UNL1       -0.4713
      9 C          -8.2863  -19.7110   21.9796 C.2     1  UNL1        0.0035
     10 C          -7.3118  -19.2883   20.9205 C.2     1  UNL1        0.0435
     11 C          -5.9528  -19.9199   20.8567 C.2     1  UNL1        0.2111
     12 O          -5.8013  -21.3243   20.3518 O.2     1  UNL1       -0.2850
     13 C          -4.7451  -19.1472   21.2979 C.ar    1  UNL1        0.0961
     14 C          -4.3321  -18.8913   22.7170 C.ar    1  UNL1        0.0218
     15 C          -3.0702  -18.0807   22.6936 C.ar    1  UNL1        0.0200
     16 C          -2.7033  -17.8356   21.2599 C.ar    1  UNL1        0.0725
     17 N          -3.7385  -18.4947   20.3974 N.ar    1  UNL1       -0.3495
     18 H          -3.7544  -18.4984   19.4130 H       1  UNL1        0.1661
     19 O         -12.6019  -18.5783   24.6429 O.3     1  UNL1       -0.4713
     20 C         -14.0694  -18.2688   24.6217 C.3     1  UNL1        0.2525
@<TRIPOS>BOND
     1     7     8    1
     2     8     1    1
     3     1     2   ar
     4     2     3   ar
     5     3     9    1
     6     9    10    2
     7    10    11    1
     8    11    12    2
     9    11    13    1
    10    13    14   ar
    11    14    15   ar
    12    15    16   ar
    13    16    17   ar
    14     3     4   ar
    15     4     5   ar
    16     5    19    1
    17    19    20    1
    18     5     6   ar
    19     6     1   ar
    20    17    13   ar
    21    17    18    1
@<TRIPOS>MOLECULE
*****
 20 21 0 0 0
SMALL
GASTEIGER

@<TRIPOS>ATOM
      1 C          -2.3293  -19.0378   20.7186 C.ar    1  UNL1        0.1418
      2 C          -3.6106  -19.4546   20.0596 C.ar    1  UNL1        0.0371
      3 C          -4.9134  -19.2976   20.7863 C.ar    1  UNL1        0.0061
      4 C          -4.9349  -18.7237   22.1719 C.ar    1  UNL1        0.0371
      5 C          -3.6535  -18.3069   22.8310 C.ar    1  UNL1        0.1418
      6 C          -2.3507  -18.4639   22.1043 C.ar    1  UNL1        0.0737
      7 C          -0.1491  -18.0007   19.7587 C.3     1  UNL1        0.2525
      8 O          -1.0264  -19.1948   19.9920 O.3     1  UNL1       -0.4713
      9 C          -6.1948  -19.7145   20.1272 C.2     1  UNL1        0.0035
     10 C          -7.4740  -19.0046   20.4582 C.2     1  UNL1        0.0435
     11 C          -8.7553  -19.4214   19.7992 C.2     1  UNL1        0.2111
     12 O          -8.7363  -20.4438   18.7017 O.2     1  UNL1       -0.2850
     13 C         -10.0558  -18.8158   20.2375 C.ar    1  UNL1        0.0961
     14 C         -11.0471  -19.4392   21.1750 C.ar    1  UNL1        0.0218
     15 C         -12.1972  -18.4892   21.3322 C.ar    1  UNL1        0.0200
     16 C         -11.9168  -17.2787   20.4920 C.ar    1  UNL1        0.0725
     17 N         -10.5933  -17.4806   19.8155 N.ar    1  UNL1       -0.3495
     18 H         -10.1545  -16.8478   19.2021 H       1  UNL1        0.1661
     19 O          -3.6749  -17.7330   24.2167 O.3     1  UNL1       -0.4713
     20 C          -4.5836  -16.5838   24.5386 C.3     1  UNL1        0.2525
@<TRIPOS>BOND
     1     7     8    1
     2     8     1    1
     3     1     2   ar
     4     2     3   ar
     5     3     9    1
     6     9    10    2
     7    10    11    1
     8    11    12    2
     9    11    13    1
    10    13    14   ar
    11    14    15   ar
    12    15    16   ar
    13    16    17   ar
    14     3     4   ar
    15     4     5   ar
    16     5    19    1
    17    19    20    1
    18     5     6   ar
    19     6     1   ar
    20    17    13   ar
    21    17    18    1
@<TRIPOS>MOLECULE
*****
 20 21 0 0 0
SMALL
GASTEIGER

@<TRIPOS>ATOM
      1 C         -10.9608  -18.1059   22.7335 C.ar    1  UNL1        0.1418
      2 C          -9.9587  -18.7973   21.8573 C.ar    1  UNL1        0.0371
      3 C          -8.5194  -18.3759   21.8869 C.ar    1  UNL1        0.0061
      4 C          -8.0822  -17.2630   22.7925 C.ar    1  UNL1        0.0371
      5 C          -9.0843  -16.5715   23.6687 C.ar    1  UNL1        0.1418
      6 C         -10.5236  -16.9930   23.6391 C.ar    1  UNL1        0.0737
      7 C         -13.3863  -17.8941   23.6400 C.3     1  UNL1        0.2525
      8 O         -12.4001  -18.5273   22.7039 O.3     1  UNL1       -0.4713
      9 C          -7.5173  -19.0674   21.0107 C.2     1  UNL1        0.0035
     10 C          -6.0698  -19.0940   21.4032 C.2     1  UNL1        0.0435
     11 C          -5.0678  -19.7855   20.5271 C.2     1  UNL1        0.2111
     12 O          -5.2825  -21.2147   20.1254 O.2     1  UNL1       -0.2850
     13 C          -3.8509  -19.0479   20.0527 C.ar    1  UNL1        0.0961
     14 C          -2.4345  -19.3313   20.4571 C.ar    1  UNL1        0.0218
     15 C          -1.5450  -18.3559   19.7449 C.ar    1  UNL1        0.0200
     16 C          -2.4116  -17.4695   18.9003 C.ar    1  UNL1        0.0725
     17 N          -3.8367  -17.8972   19.0905 N.ar    1  UNL1       -0.3495
     18 H          -4.6244  -17.4935   18.6595 H       1  UNL1        0.1661
     19 O          -8.6472  -15.4586   24.5744 O.3     1  UNL1       -0.4713
     20 C          -7.1926  -15.1097   24.6857 C.3     1  UNL1        0.2525
@<TRIPOS>BOND
     1     7     8    1
     2     8     1    1
     3     1     2   ar
     4     2     3   ar
     5     3     9    1
     6     9    10    2
     7    10    11    1
     8    11    12    2
     9    11    13    1
    10    13    14   ar
    11    14    15   ar
    12    15    16   ar
    13    16    17   ar
    14     3     4   ar
    15     4     5   ar
    16     5    19    1
    17    19    20    1
    18     5     6   ar
    19     6     1   ar
    20    17    13   ar
    21    17    18    1
@<TRIPOS>MOLECULE
*****
 20 21 0 0 0
SMALL
GASTEIGER

@<TRIPOS>ATOM
      1 C         -11.7060  -16.6520   21.3065 C.ar    1  UNL1        0.1418
      2 C         -10.2741  -16.2148   21.3975 C.ar    1  UNL1        0.0371
      3 C          -9.4528  -16.5814   22.5980 C.ar    1  UNL1        0.0061
      4 C         -10.0636  -17.3851   23.7075 C.ar    1  UNL1        0.0371
      5 C         -11.4955  -17.8222   23.6165 C.ar    1  UNL1        0.1418
      6 C         -12.3168  -17.4557   22.4160 C.ar    1  UNL1        0.0737
      7 C         -11.8966  -15.5466   18.9631 C.3     1  UNL1        0.2525
      8 O         -12.5273  -16.2854   20.1060 O.3     1  UNL1       -0.4713
      9 C          -8.0208  -16.1442   22.6890 C.2     1  UNL1        0.0035
     10 C          -7.2148  -16.4656   23.9125 C.2     1  UNL1        0.0435
     11 C          -5.7828  -16.0285   24.0035 C.2     1  UNL1        0.2111
     12 O          -5.4180  -14.8182   24.8111 O.2     1  UNL1       -0.2850
     13 C          -4.7157  -16.8015   23.2870 C.ar    1  UNL1        0.0961
     14 C          -4.7506  -18.2674   22.9708 C.ar    1  UNL1        0.0218
     15 C          -3.4827  -18.6164   22.2492 C.ar    1  UNL1        0.0200
     16 C          -2.6641  -17.3661   22.1194 C.ar    1  UNL1        0.0725
     17 N          -3.4262  -16.2445   22.7607 N.ar    1  UNL1       -0.3495
     18 H          -3.1317  -15.3073   22.8250 H       1  UNL1        0.1661
     19 O         -12.1063  -18.6260   24.7260 O.3     1  UNL1       -0.4713
     20 C         -13.5857  -18.5690   24.9669 C.3     1  UNL1        0.2525
@<TRIPOS>BOND
     1     7     8    1
     2     8     1    1
     3     1     2   ar
     4     2     3   ar
     5     3     9    1
     6     9    10    2
     7    10    11    1
     8    11    12    2
     9    11    13    1
    10    13    14   ar
    11    14    15   ar
    12    15    16   ar
    13    16    17   ar
    14     3     4   ar
    15     4     5   ar
    16     5    19    1
    17    19    20    1
    18     5     6   ar
    19     6     1   ar
    20    17    13   ar
    21    17    18    1
@<TRIPOS>MOLECULE
*****
 20 21 0 0 0
SMALL
GASTEIGER

@<TRIPOS>ATOM
      1 C          -4.3159  -18.5752   22.7391 C.ar    1  UNL1        0.1418
      2 C          -5.6684  -18.7992   22.1305 C.ar    1  UNL1        0.0371
      3 C          -6.7814  -17.8302   22.3989 C.ar    1  UNL1        0.0061
      4 C          -6.5420  -16.6372   23.2760 C.ar    1  UNL1        0.0371
      5 C          -5.1895  -16.4132   23.8847 C.ar    1  UNL1        0.1418
      6 C          -4.0764  -17.3822   23.6163 C.ar    1  UNL1        0.0737
      7 C          -2.5084  -19.5394   21.1412 C.3     1  UNL1        0.2525
      8 O          -3.2028  -19.5443   22.4707 O.3     1  UNL1       -0.4713
      9 C          -8.1340  -18.0542   21.7902 C.2     1  UNL1        0.0035
     10 C          -8.2826  -18.9646   20.6074 C.2     1  UNL1        0.0435
     11 C          -9.6351  -19.1887   19.9986 C.2     1  UNL1        0.2111
     12 O          -9.8102  -20.2125   18.9164 O.2     1  UNL1       -0.2850
     13 C         -10.8125  -18.3889   20.4721 C.ar    1  UNL1        0.0961
     14 C         -11.7631  -18.7812   21.5641 C.ar    1  UNL1        0.0218
     15 C         -12.7841  -17.6913   21.7036 C.ar    1  UNL1        0.0200
     16 C         -12.4645  -16.6253   20.6978 C.ar    1  UNL1        0.0725
     17 N         -11.2460  -17.0565   19.9368 N.ar    1  UNL1       -0.3495
     18 H         -10.8077  -16.5533   19.2130 H       1  UNL1        0.1661
     19 O          -4.9500  -15.2201   24.7618 O.3     1  UNL1       -0.4713
     20 C          -5.5930  -15.1428   26.1148 C.3     1  UNL1        0.2525
@<TRIPOS>BOND
     1     7     8    1
     2     8     1    1
     3     1     2   ar
     4     2     3   ar
     5     3     9    1
     6     9    10    2
     7    10    11    1
     8    11    12    2
     9    11    13    1
    10    13    14   ar
    11    14    15   ar
    12    15    16   ar
    13    16    17   ar
    14     3     4   ar
    15     4     5   ar
    16     5    19    1
    17    19    20    1
    18     5     6   ar
    19     6     1   ar
    20    17    13   ar
    21    17    18    1
@<TRIPOS>MOLECULE
*****
 20 21 0 0 0
SMALL
GASTEIGER

@<TRIPOS>ATOM
      1 C         -13.3721   -3.7792   19.3972 C.ar    1  UNL1        0.1418
      2 C         -14.3959   -4.8703   19.2912 C.ar    1  UNL1        0.0371
      3 C         -13.9600   -6.2895   19.0767 C.ar    1  UNL1        0.0061
      4 C         -12.5003   -6.6175   18.9682 C.ar    1  UNL1        0.0371
      5 C         -11.4766   -5.5263   19.0742 C.ar    1  UNL1        0.1418
      6 C         -11.9125   -4.1072   19.2887 C.ar    1  UNL1        0.0737
      7 C         -15.2663   -2.0353   19.7443 C.3     1  UNL1        0.2525
      8 O         -13.8080   -2.3600   19.6117 O.3     1  UNL1       -0.4713
      9 C         -14.9838   -7.3806   18.9708 C.2     1  UNL1        0.0035
     10 C         -14.6062   -8.7092   18.3857 C.2     1  UNL1        0.0435
     11 C         -15.6299   -9.8003   18.2798 C.2     1  UNL1        0.2111
     12 O         -15.1943  -11.2188   18.0602 O.2     1  UNL1       -0.2850
     13 C         -17.0894   -9.4731   18.3933 C.ar    1  UNL1        0.0961
     14 C         -17.9035   -9.4994   19.6529 C.ar    1  UNL1        0.0218
     15 C         -19.3082   -9.1046   19.3053 C.ar    1  UNL1        0.0200
     16 C         -19.3623   -8.8343   17.8308 C.ar    1  UNL1        0.0725
     17 N         -17.9910   -9.0620   17.2672 N.ar    1  UNL1       -0.3495
     18 H         -17.7288   -8.9596   16.3238 H       1  UNL1        0.1661
     19 O         -10.0169   -5.8543   18.9657 O.3     1  UNL1       -0.4713
     20 C          -9.5746   -7.2844   18.8692 C.3     1  UNL1        0.2525
@<TRIPOS>BOND
     1     7     8    1
     2     8     1    1
     3     1     2   ar
     4     2     3   ar
     5     3     9    1
     6     9    10    2
     7    10    11    1
     8    11    12    2
     9    11    13    1
    10    13    14   ar
    11    14    15   ar
    12    15    16   ar
    13    16    17   ar
    14     3     4   ar
    15     4     5   ar
    16     5    19    1
    17    19    20    1
    18     5     6   ar
    19     6     1   ar
    20    17    13   ar
    21    17    18    1
@<TRIPOS>MOLECULE
*****
 20 21 0 0 0
SMALL
GASTEIGER

@<TRIPOS>ATOM
      1 C         -16.9984   -8.8148   19.6489 C.ar    1  UNL1        0.1418
      2 C         -15.8881   -7.8501   19.3554 C.ar    1  UNL1        0.0371
      3 C         -16.1779   -6.3820   19.2516 C.ar    1  UNL1        0.0061
      4 C         -17.5781   -5.8787   19.4415 C.ar    1  UNL1        0.0371
      5 C         -18.6885   -6.8435   19.7351 C.ar    1  UNL1        0.1418
      6 C         -18.3986   -8.3115   19.8388 C.ar    1  UNL1        0.0737
      7 C         -17.0939  -11.2043   18.6335 C.3     1  UNL1        0.2525
      8 O         -16.7086  -10.2829   19.7527 O.3     1  UNL1       -0.4713
      9 C         -15.0674   -5.4172   18.9580 C.2     1  UNL1        0.0035
     10 C         -14.1295   -4.9981   20.0510 C.2     1  UNL1        0.0435
     11 C         -13.0191   -4.0334   19.7575 C.2     1  UNL1        0.2111
     12 O         -13.2272   -2.5631   19.9697 O.2     1  UNL1       -0.2850
     13 C         -11.7005   -4.5389   19.2517 C.ar    1  UNL1        0.0961
     14 C         -11.3616   -5.9683   18.9489 C.ar    1  UNL1        0.0218
     15 C          -9.9409   -6.0166   18.4700 C.ar    1  UNL1        0.0200
     16 C          -9.4017   -4.6168   18.4769 C.ar    1  UNL1        0.0725
     17 N         -10.4892   -3.7036   18.9600 N.ar    1  UNL1       -0.3495
     18 H         -10.4200   -2.7274   19.0669 H       1  UNL1        0.1661
     19 O         -20.0888   -6.3402   19.9249 O.3     1  UNL1       -0.4713
     20 C         -20.4639   -4.9686   19.4477 C.3     1  UNL1        0.2525
@<TRIPOS>BOND
     1     7     8    1
     2     8     1    1
     3     1     2   ar
     4     2     3   ar
     5     3     9    1
     6     9    10    2
     7    10    11    1
     8    11    12    2
     9    11    13    1
    10    13    14   ar
    11    14    15   ar
    12    15    16   ar
    13    16    17   ar
    14     3     4   ar
    15     4     5   ar
    16     5    19    1
    17    19    20    1
    18     5     6   ar
    19     6     1   ar
    20    17    13   ar
    21    17    18    1
@<TRIPOS>MOLECULE
*****
 20 21 0 0 0
SMALL
GASTEIGER

@<TRIPOS>ATOM
      1 C          -4.2830  -19.2498   21.4519 C.ar    1  UNL1        0.1418
      2 C          -5.7278  -19.4581   21.1070 C.ar    1  UNL1        0.0371
      3 C          -6.7895  -18.6730   21.8188 C.ar    1  UNL1        0.0061
      4 C          -6.4063  -17.6797   22.8753 C.ar    1  UNL1        0.0371
      5 C          -4.9614  -17.4713   23.2201 C.ar    1  UNL1        0.1418
      6 C          -3.8998  -18.2564   22.5084 C.ar    1  UNL1        0.0737
      7 C          -3.5694  -20.8292   19.5163 C.3     1  UNL1        0.2525
      8 O          -3.2213  -20.0348   20.7401 O.3     1  UNL1       -0.4713
      9 C          -8.2344  -18.8814   21.4739 C.2     1  UNL1        0.0035
     10 C          -9.2481  -17.8333   21.8257 C.2     1  UNL1        0.0435
     11 C         -10.6930  -18.0416   21.4809 C.2     1  UNL1        0.2111
     12 O         -11.1142  -18.1436   20.0448 O.2     1  UNL1       -0.2850
     13 C         -11.7167  -18.1480   22.5721 C.ar    1  UNL1        0.0961
     14 C         -13.1201  -17.6212   22.5189 C.ar    1  UNL1        0.0218
     15 C         -13.7875  -17.9475   23.8220 C.ar    1  UNL1        0.0200
     16 C         -12.7965  -18.6760   24.6806 C.ar    1  UNL1        0.0725
     17 N         -11.5167  -18.7999   23.9081 N.ar    1  UNL1       -0.3495
     18 H         -10.6905  -19.2331   24.2228 H       1  UNL1        0.1661
     19 O          -4.5782  -16.4779   24.2767 O.3     1  UNL1       -0.4713
     20 C          -5.4784  -15.3159   24.5755 C.3     1  UNL1        0.2525
@<TRIPOS>BOND
     1     7     8    1
     2     8     1    1
     3     1     2   ar
     4     2     3   ar
     5     3     9    1
     6     9    10    2
     7    10    11    1
     8    11    12    2
     9    11    13    1
    10    13    14   ar
    11    14    15   ar
    12    15    16   ar
    13    16    17   ar
    14     3     4   ar
    15     4     5   ar
    16     5    19    1
    17    19    20    1
    18     5     6   ar
    19     6     1   ar
    20    17    13   ar
    21    17    18    1
