@<TRIPOS>MOLECULE
*****
 21 23 0 0 0
SMALL
GASTEIGER

@<TRIPOS>ATOM
      1 N          -8.0934  -17.5806   22.5395 N.pl3   1  UNL1       -0.3035
      2 C          -7.0643  -18.4765   21.9160 C.ar    1  UNL1        0.0481
      3 C          -5.6595  -18.4844   22.4417 C.ar    1  UNL1        0.0145
      4 C          -4.6305  -19.3803   21.8183 C.ar    1  UNL1        0.0013
      5 C          -5.0064  -20.2681   20.6693 C.ar    1  UNL1        0.0001
      6 C          -6.4112  -20.2602   20.1436 C.ar    1  UNL1        0.0013
      7 C          -7.4402  -19.3644   20.7670 C.ar    1  UNL1        0.0145
      8 C          -7.7173  -16.1949   22.9735 C.3     1  UNL1        0.1186
      9 CL         -4.9509  -15.3656   23.7857 Cl      1  UNL1       -0.0825
     10 C          -6.0271  -15.5034   24.8215 C.ar    1  UNL1        0.0553
     11 C          -5.7201  -15.2265   26.2634 C.ar    1  UNL1        0.0111
     12 C          -6.7963  -15.3642   27.2992 C.ar    1  UNL1        0.0008
     13 C          -8.1794  -15.7789   26.8931 C.ar    1  UNL1       -0.0002
     14 C          -8.4865  -16.0558   25.4512 C.ar    1  UNL1       -0.0018
     15 C          -7.4103  -15.9181   24.4154 C.ar    1  UNL1        0.0082
     16 C          -9.4984  -18.0705   22.7288 C.3     1  UNL1        0.0938
     17 C          -9.8038  -19.0781   23.7972 C.3     1  UNL1        0.0512
     18 C          -9.3875  -20.4929   24.0711 C.3     1  UNL1        0.0716
     19 N         -10.2357  -20.5031   25.3081 N.3     1  UNL1       -0.2973
     20 C         -10.6521  -19.0883   25.0343 C.3     1  UNL1        0.0716
     21 H          -9.7089  -20.6220   26.1733 H       1  UNL1        0.1233
@<TRIPOS>BOND
     1     9    10    1
     2    10    11   ar
     3    11    12   ar
     4    12    13   ar
     5    13    14   ar
     6    14    15   ar
     7    15     8    1
     8     8     1    1
     9     1    16    1
    10    16    17    1
    11    17    18    1
    12    18    19    1
    13    19    20    1
    14     1     2    1
    15     2     3   ar
    16     3     4   ar
    17     4     5   ar
    18     5     6   ar
    19     6     7   ar
    20    15    10   ar
    21    20    17    1
    22     7     2   ar
    23    19    21    1
@<TRIPOS>MOLECULE
*****
 21 23 0 0 0
SMALL
GASTEIGER

@<TRIPOS>ATOM
      1 N          -8.7626  -17.6670   22.9975 N.pl3   1  UNL1       -0.3035
      2 C         -10.2579  -17.6336   23.1110 C.ar    1  UNL1        0.0481
      3 C         -10.9591  -18.5620   24.0578 C.ar    1  UNL1        0.0145
      4 C         -12.4544  -18.5286   24.1714 C.ar    1  UNL1        0.0013
      5 C         -13.2485  -17.5668   23.3381 C.ar    1  UNL1        0.0001
      6 C         -12.5473  -16.6385   22.3913 C.ar    1  UNL1        0.0013
      7 C         -11.0520  -16.6718   22.2777 C.ar    1  UNL1        0.0145
      8 C          -7.9661  -16.4137   23.2093 C.3     1  UNL1        0.1186
      9 CL         -5.1139  -15.6620   23.7571 Cl      1  UNL1       -0.0825
     10 C          -6.1220  -15.6398   24.8677 C.ar    1  UNL1        0.0553
     11 C          -5.7039  -15.2419   26.2521 C.ar    1  UNL1        0.0111
     12 C          -6.7119  -15.2197   27.3627 C.ar    1  UNL1        0.0008
     13 C          -8.1380  -15.5955   27.0889 C.ar    1  UNL1       -0.0002
     14 C          -8.5561  -15.9935   25.7043 C.ar    1  UNL1       -0.0018
     15 C          -7.5481  -16.0157   24.5937 C.ar    1  UNL1        0.0082
     16 C          -8.0637  -18.9537   22.6722 C.3     1  UNL1        0.0938
     17 C          -6.8325  -18.9427   21.8154 C.3     1  UNL1        0.0512
     18 C          -6.5667  -18.9850   20.3397 C.3     1  UNL1        0.0716
     19 N          -5.0914  -18.9272   20.6037 N.3     1  UNL1       -0.2973
     20 C          -5.3570  -18.8849   22.0794 C.3     1  UNL1        0.0716
     21 H          -4.6355  -18.0910   20.2386 H       1  UNL1        0.1233
@<TRIPOS>BOND
     1     9    10    1
     2    10    11   ar
     3    11    12   ar
     4    12    13   ar
     5    13    14   ar
     6    14    15   ar
     7    15     8    1
     8     8     1    1
     9     1    16    1
    10    16    17    1
    11    17    18    1
    12    18    19    1
    13    19    20    1
    14     1     2    1
    15     2     3   ar
    16     3     4   ar
    17     4     5   ar
    18     5     6   ar
    19     6     7   ar
    20    15    10   ar
    21    20    17    1
    22     7     2   ar
    23    19    21    1
@<TRIPOS>MOLECULE
*****
 21 23 0 0 0
SMALL
GASTEIGER

@<TRIPOS>ATOM
      1 N          -8.8150  -16.9778   22.6563 N.pl3   1  UNL1       -0.3035
      2 C         -10.1419  -16.7148   22.0078 C.ar    1  UNL1        0.0481
      3 C         -11.3452  -16.4214   22.8540 C.ar    1  UNL1        0.0145
      4 C         -12.6719  -16.1583   22.2056 C.ar    1  UNL1        0.0013
      5 C         -12.7954  -16.1886   20.7111 C.ar    1  UNL1        0.0001
      6 C         -11.5921  -16.4820   19.8649 C.ar    1  UNL1        0.0013
      7 C         -10.2653  -16.7451   20.5133 C.ar    1  UNL1        0.0145
      8 C          -7.9413  -15.8305   23.0689 C.3     1  UNL1        0.1186
      9 CL         -5.0631  -15.3625   23.7738 Cl      1  UNL1       -0.0825
     10 C          -6.0975  -15.4405   24.8573 C.ar    1  UNL1        0.0553
     11 C          -5.6927  -15.2846   26.2932 C.ar    1  UNL1        0.0111
     12 C          -6.7271  -15.3626   27.3767 C.ar    1  UNL1        0.0008
     13 C          -8.1662  -15.5966   27.0243 C.ar    1  UNL1       -0.0002
     14 C          -8.5710  -15.7526   25.5883 C.ar    1  UNL1       -0.0018
     15 C          -7.5366  -15.6745   24.5048 C.ar    1  UNL1        0.0082
     16 C          -8.3620  -18.3882   22.8921 C.3     1  UNL1        0.0938
     17 C          -9.0869  -19.2535   23.8799 C.3     1  UNL1        0.0512
     18 C          -9.9260  -18.9999   25.0971 C.3     1  UNL1        0.0716
     19 N         -10.1121  -20.4774   25.2767 N.3     1  UNL1       -0.2973
     20 C          -9.2731  -20.7311   24.0595 C.3     1  UNL1        0.0716
     21 H         -11.0793  -20.7890   25.1882 H       1  UNL1        0.1233
@<TRIPOS>BOND
     1     9    10    1
     2    10    11   ar
     3    11    12   ar
     4    12    13   ar
     5    13    14   ar
     6    14    15   ar
     7    15     8    1
     8     8     1    1
     9     1    16    1
    10    16    17    1
    11    17    18    1
    12    18    19    1
    13    19    20    1
    14     1     2    1
    15     2     3   ar
    16     3     4   ar
    17     4     5   ar
    18     5     6   ar
    19     6     7   ar
    20    15    10   ar
    21    20    17    1
    22     7     2   ar
    23    19    21    1
@<TRIPOS>MOLECULE
*****
 21 23 0 0 0
SMALL
GASTEIGER

@<TRIPOS>ATOM
      1 N          -8.4310  -17.3553   22.5240 N.pl3   1  UNL1       -0.3035
      2 C          -7.4811  -18.3219   21.8809 C.ar    1  UNL1        0.0481
      3 C          -7.9199  -19.1275   20.6941 C.ar    1  UNL1        0.0145
      4 C          -6.9700  -20.0940   20.0511 C.ar    1  UNL1        0.0013
      5 C          -5.5814  -20.2549   20.5948 C.ar    1  UNL1        0.0001
      6 C          -5.1426  -19.4493   21.7816 C.ar    1  UNL1        0.0013
      7 C          -6.0924  -18.4828   22.4246 C.ar    1  UNL1        0.0145
      8 C          -7.9397  -16.0148   22.9843 C.3     1  UNL1        0.1186
      9 CL         -5.1113  -15.3202   23.7037 Cl      1  UNL1       -0.0825
     10 C          -6.1462  -15.4604   24.7804 C.ar    1  UNL1        0.0553
     11 C          -5.7670  -15.2534   26.2168 C.ar    1  UNL1        0.0111
     12 C          -6.8019  -15.3937   27.2935 C.ar    1  UNL1        0.0008
     13 C          -8.2160  -15.7410   26.9338 C.ar    1  UNL1       -0.0002
     14 C          -8.5954  -15.9481   25.4974 C.ar    1  UNL1       -0.0018
     15 C          -7.5605  -15.8078   24.4207 C.ar    1  UNL1        0.0082
     16 C          -9.8721  -17.7292   22.7068 C.3     1  UNL1        0.0938
     17 C         -10.9101  -17.1988   21.7627 C.3     1  UNL1        0.0512
     18 C         -11.2489  -17.4303   20.3199 C.3     1  UNL1        0.0716
     19 N         -12.3780  -16.4488   20.4276 N.3     1  UNL1       -0.2973
     20 C         -12.0392  -16.2173   21.8704 C.3     1  UNL1        0.0716
     21 H         -13.3005  -16.8571   20.2768 H       1  UNL1        0.1233
@<TRIPOS>BOND
     1     9    10    1
     2    10    11   ar
     3    11    12   ar
     4    12    13   ar
     5    13    14   ar
     6    14    15   ar
     7    15     8    1
     8     8     1    1
     9     1    16    1
    10    16    17    1
    11    17    18    1
    12    18    19    1
    13    19    20    1
    14     1     2    1
    15     2     3   ar
    16     3     4   ar
    17     4     5   ar
    18     5     6   ar
    19     6     7   ar
    20    15    10   ar
    21    20    17    1
    22     7     2   ar
    23    19    21    1
@<TRIPOS>MOLECULE
*****
 21 23 0 0 0
SMALL
GASTEIGER

@<TRIPOS>ATOM
      1 N          -7.6026  -18.3597   22.2717 N.pl3   1  UNL1       -0.3035
      2 C          -6.2511  -18.8720   21.8703 C.ar    1  UNL1        0.0481
      3 C          -6.1159  -19.7847   20.6876 C.ar    1  UNL1        0.0145
      4 C          -4.7644  -20.2970   20.2862 C.ar    1  UNL1        0.0013
      5 C          -3.5482  -19.8966   21.0675 C.ar    1  UNL1        0.0001
      6 C          -3.6834  -18.9839   22.2502 C.ar    1  UNL1        0.0013
      7 C          -5.0348  -18.4716   22.6516 C.ar    1  UNL1        0.0145
      8 C          -8.6957  -19.3242   22.6247 C.3     1  UNL1        0.1186
      9 CL        -10.1501  -18.8132   20.0510 Cl      1  UNL1       -0.0825
     10 C         -10.8504  -18.6085   21.3616 C.ar    1  UNL1        0.0553
     11 C         -12.2778  -18.1484   21.3854 C.ar    1  UNL1        0.0111
     12 C         -12.9782  -17.9437   22.6960 C.ar    1  UNL1        0.0008
     13 C         -12.2510  -18.1993   23.9829 C.ar    1  UNL1       -0.0002
     14 C         -10.8235  -18.6594   23.9591 C.ar    1  UNL1       -0.0018
     15 C         -10.1232  -18.8641   22.6485 C.ar    1  UNL1        0.0082
     16 C          -7.8609  -16.8829   22.3199 C.3     1  UNL1        0.0938
     17 C          -7.6807  -16.1316   23.6057 C.3     1  UNL1        0.0512
     18 C          -6.5499  -15.3840   24.2478 C.3     1  UNL1        0.0716
     19 N          -7.4259  -15.0692   25.4240 N.3     1  UNL1       -0.2973
     20 C          -8.5567  -15.8168   24.7820 C.3     1  UNL1        0.0716
     21 H          -7.6058  -14.0737   25.5546 H       1  UNL1        0.1233
@<TRIPOS>BOND
     1     9    10    1
     2    10    11   ar
     3    11    12   ar
     4    12    13   ar
     5    13    14   ar
     6    14    15   ar
     7    15     8    1
     8     8     1    1
     9     1    16    1
    10    16    17    1
    11    17    18    1
    12    18    19    1
    13    19    20    1
    14     1     2    1
    15     2     3   ar
    16     3     4   ar
    17     4     5   ar
    18     5     6   ar
    19     6     7   ar
    20    15    10   ar
    21    20    17    1
    22     7     2   ar
    23    19    21    1
@<TRIPOS>MOLECULE
*****
 21 23 0 0 0
SMALL
GASTEIGER

@<TRIPOS>ATOM
      1 N          -8.6217  -17.7847   22.5552 N.pl3   1  UNL1       -0.3035
      2 C         -10.0937  -17.8661   22.8321 C.ar    1  UNL1        0.0481
      3 C         -10.5841  -18.4907   24.1047 C.ar    1  UNL1        0.0145
      4 C         -12.0560  -18.5721   24.3816 C.ar    1  UNL1        0.0013
      5 C         -13.0376  -18.0289   23.3859 C.ar    1  UNL1        0.0001
      6 C         -12.5472  -17.4043   22.1134 C.ar    1  UNL1        0.0013
      7 C         -11.0753  -17.3229   21.8364 C.ar    1  UNL1        0.0145
      8 C          -7.7992  -19.0378   22.4963 C.3     1  UNL1        0.1186
      9 CL         -7.6826  -19.4030   19.5209 Cl      1  UNL1       -0.0825
     10 C          -6.4168  -19.2160   20.3038 C.ar    1  UNL1        0.0553
     11 C          -5.0928  -19.2117   19.5990 C.ar    1  UNL1        0.0111
     12 C          -3.8270  -19.0247   20.3818 C.ar    1  UNL1        0.0008
     13 C          -3.8853  -18.8421   21.8695 C.ar    1  UNL1       -0.0002
     14 C          -5.2094  -18.8464   22.5744 C.ar    1  UNL1       -0.0018
     15 C          -6.4752  -19.0334   21.7915 C.ar    1  UNL1        0.0082
     16 C          -7.9722  -16.4504   22.3372 C.3     1  UNL1        0.0938
     17 C          -7.3567  -15.7181   23.4926 C.3     1  UNL1        0.0512
     18 C          -7.8854  -15.0414   24.7224 C.3     1  UNL1        0.0716
     19 N          -6.4863  -14.6825   25.1266 N.3     1  UNL1       -0.2973
     20 C          -5.9574  -15.3592   23.8968 C.3     1  UNL1        0.0716
     21 H          -6.1825  -15.1111   26.0009 H       1  UNL1        0.1233
@<TRIPOS>BOND
     1     9    10    1
     2    10    11   ar
     3    11    12   ar
     4    12    13   ar
     5    13    14   ar
     6    14    15   ar
     7    15     8    1
     8     8     1    1
     9     1    16    1
    10    16    17    1
    11    17    18    1
    12    18    19    1
    13    19    20    1
    14     1     2    1
    15     2     3   ar
    16     3     4   ar
    17     4     5   ar
    18     5     6   ar
    19     6     7   ar
    20    15    10   ar
    21    20    17    1
    22     7     2   ar
    23    19    21    1
@<TRIPOS>MOLECULE
*****
 21 23 0 0 0
SMALL
GASTEIGER

@<TRIPOS>ATOM
      1 N          -7.8282  -16.8736   23.1758 N.pl3   1  UNL1       -0.3035
      2 C          -7.4073  -16.2658   24.4810 C.ar    1  UNL1        0.0481
      3 C          -6.0019  -15.7731   24.6603 C.ar    1  UNL1        0.0145
      4 C          -5.5809  -15.1654   25.9654 C.ar    1  UNL1        0.0013
      5 C          -6.5653  -15.0504   27.0913 C.ar    1  UNL1        0.0001
      6 C          -7.9707  -15.5431   26.9121 C.ar    1  UNL1        0.0013
      7 C          -8.3917  -16.1508   25.6069 C.ar    1  UNL1        0.0145
      8 C          -8.9214  -16.2367   22.3699 C.3     1  UNL1        0.1186
      9 CL        -10.8697  -15.6694   20.1603 Cl      1  UNL1       -0.0825
     10 C         -11.2942  -16.4896   21.3423 C.ar    1  UNL1        0.0553
     11 C         -12.6928  -17.0262   21.4194 C.ar    1  UNL1        0.0111
     12 C         -13.1173  -17.8464   22.6014 C.ar    1  UNL1        0.0008
     13 C         -12.1432  -18.1301   23.7061 C.ar    1  UNL1       -0.0002
     14 C         -10.7445  -17.5935   23.6290 C.ar    1  UNL1       -0.0018
     15 C         -10.3200  -16.7733   22.4471 C.ar    1  UNL1        0.0082
     16 C          -7.1561  -18.1181   22.6765 C.3     1  UNL1        0.0938
     17 C          -7.4870  -18.6547   21.3155 C.3     1  UNL1        0.0512
     18 C          -8.7327  -19.1560   20.6470 C.3     1  UNL1        0.0716
     19 N          -7.9549  -19.4137   19.3907 N.3     1  UNL1       -0.2973
     20 C          -6.7091  -18.9124   20.0590 C.3     1  UNL1        0.0716
     21 H          -8.2542  -18.8526   18.5932 H       1  UNL1        0.1233
@<TRIPOS>BOND
     1     9    10    1
     2    10    11   ar
     3    11    12   ar
     4    12    13   ar
     5    13    14   ar
     6    14    15   ar
     7    15     8    1
     8     8     1    1
     9     1    16    1
    10    16    17    1
    11    17    18    1
    12    18    19    1
    13    19    20    1
    14     1     2    1
    15     2     3   ar
    16     3     4   ar
    17     4     5   ar
    18     5     6   ar
    19     6     7   ar
    20    15    10   ar
    21    20    17    1
    22     7     2   ar
    23    19    21    1
@<TRIPOS>MOLECULE
*****
 21 23 0 0 0
SMALL
GASTEIGER

@<TRIPOS>ATOM
      1 N          -8.2343  -18.9184   21.9179 N.pl3   1  UNL1       -0.3035
      2 C          -8.3390  -17.7717   22.8793 C.ar    1  UNL1        0.0481
      3 C          -9.1945  -17.8964   24.1051 C.ar    1  UNL1        0.0145
      4 C          -9.2991  -16.7497   25.0664 C.ar    1  UNL1        0.0013
      5 C          -8.5483  -15.4784   24.8020 C.ar    1  UNL1        0.0001
      6 C          -7.6929  -15.3537   23.5761 C.ar    1  UNL1        0.0013
      7 C          -7.5882  -16.5004   22.6148 C.ar    1  UNL1        0.0145
      8 C          -7.2702  -20.0359   22.1856 C.3     1  UNL1        0.1186
      9 CL         -6.4374  -21.4756   19.6888 Cl      1  UNL1       -0.0825
     10 C          -5.4380  -20.6574   20.4515 C.ar    1  UNL1        0.0553
     11 C          -4.0223  -20.5590   19.9658 C.ar    1  UNL1        0.0111
     12 C          -3.0229  -19.7407   20.7285 C.ar    1  UNL1        0.0008
     13 C          -3.4392  -19.0209   21.9769 C.ar    1  UNL1       -0.0002
     14 C          -4.8551  -19.1193   22.4626 C.ar    1  UNL1       -0.0018
     15 C          -5.8545  -19.9375   21.6999 C.ar    1  UNL1        0.0082
     16 C          -9.0938  -18.9476   20.6889 C.3     1  UNL1        0.0938
     17 C         -10.4632  -18.3361   20.7167 C.3     1  UNL1        0.0512
     18 C         -11.7405  -18.6278   21.4470 C.3     1  UNL1        0.0716
     19 N         -12.3998  -17.4713   20.7559 N.3     1  UNL1       -0.2973
     20 C         -11.1226  -17.1795   20.0255 C.3     1  UNL1        0.0716
     21 H         -12.6995  -16.7263   21.3848 H       1  UNL1        0.1233
@<TRIPOS>BOND
     1     9    10    1
     2    10    11   ar
     3    11    12   ar
     4    12    13   ar
     5    13    14   ar
     6    14    15   ar
     7    15     8    1
     8     8     1    1
     9     1    16    1
    10    16    17    1
    11    17    18    1
    12    18    19    1
    13    19    20    1
    14     1     2    1
    15     2     3   ar
    16     3     4   ar
    17     4     5   ar
    18     5     6   ar
    19     6     7   ar
    20    15    10   ar
    21    20    17    1
    22     7     2   ar
    23    19    21    1
@<TRIPOS>MOLECULE
*****
 21 23 0 0 0
SMALL
GASTEIGER

@<TRIPOS>ATOM
      1 N          -7.6727  -18.5474   21.9480 N.pl3   1  UNL1       -0.3035
      2 C          -7.0925  -17.4393   22.7760 C.ar    1  UNL1        0.0481
      3 C          -7.9697  -16.3184   23.2493 C.ar    1  UNL1        0.0145
      4 C          -7.3896  -15.2103   24.0772 C.ar    1  UNL1        0.0013
      5 C          -5.9322  -15.2231   24.4318 C.ar    1  UNL1        0.0001
      6 C          -5.0549  -16.3440   23.9585 C.ar    1  UNL1        0.0013
      7 C          -5.6351  -17.4521   23.1305 C.ar    1  UNL1        0.0145
      8 C          -8.7414  -19.4307   22.5203 C.3     1  UNL1        0.1186
      9 CL        -10.0611  -19.2406   25.2078 Cl      1  UNL1       -0.0825
     10 C         -10.8104  -18.8332   23.9739 C.ar    1  UNL1        0.0553
     11 C         -12.2194  -18.3308   24.0836 C.ar    1  UNL1        0.0111
     12 C         -12.9687  -17.9234   22.8496 C.ar    1  UNL1        0.0008
     13 C         -12.3089  -18.0185   21.5059 C.ar    1  UNL1       -0.0002
     14 C         -10.8998  -18.5209   21.3961 C.ar    1  UNL1       -0.0018
     15 C         -10.1505  -18.9283   22.6301 C.ar    1  UNL1        0.0082
     16 C          -7.1841  -18.7723   20.5478 C.3     1  UNL1        0.0938
     17 C          -5.9341  -19.5660   20.3079 C.3     1  UNL1        0.0512
     18 C          -4.5207  -19.2315   19.9335 C.3     1  UNL1        0.0716
     19 N          -4.1664  -20.6886   19.9687 N.3     1  UNL1       -0.2973
     20 C          -5.5799  -21.0232   20.3432 C.3     1  UNL1        0.0716
     21 H          -3.4781  -20.9327   20.6808 H       1  UNL1        0.1233
@<TRIPOS>BOND
     1     9    10    1
     2    10    11   ar
     3    11    12   ar
     4    12    13   ar
     5    13    14   ar
     6    14    15   ar
     7    15     8    1
     8     8     1    1
     9     1    16    1
    10    16    17    1
    11    17    18    1
    12    18    19    1
    13    19    20    1
    14     1     2    1
    15     2     3   ar
    16     3     4   ar
    17     4     5   ar
    18     5     6   ar
    19     6     7   ar
    20    15    10   ar
    21    20    17    1
    22     7     2   ar
    23    19    21    1
