@<TRIPOS>MOLECULE
*****
 29 32 0 0 0
SMALL
GASTEIGER

@<TRIPOS>ATOM
      1 C           5.2792   -0.9097   34.5457 C.ar    1  UNL1        0.0507
      2 C           6.6254   -0.7277   33.9097 C.ar    1  UNL1        0.0161
      3 C           6.9893   -1.5148   32.6857 C.ar    1  UNL1        0.0193
      4 C           6.0069   -2.4838   32.0977 C.ar    1  UNL1        0.0930
      5 C           4.6607   -2.6658   32.7337 C.ar    1  UNL1        0.0193
      6 C           4.2968   -1.8787   33.9576 C.ar    1  UNL1        0.0161
      7 N           6.3708   -3.2709   30.8737 N.pl3   1  UNL1       -0.0680
      8 S           6.2647   -2.7945   29.4554 S.O2    1  UNL1        0.0957
      9 O           5.7518   -1.5325   30.0834 O.2     1  UNL1       -0.1483
     10 O           6.0514   -2.0543   28.1683 O.2     1  UNL1       -0.1483
     11 C           6.7330   -3.9018   28.5582 C.ar    1  UNL1        0.1459
     12 C           6.8503   -4.0030   27.0663 C.ar    1  UNL1        0.0216
     13 C           7.3632   -5.2650   26.4383 C.ar    1  UNL1        0.0015
     14 C           7.7586   -6.4257   27.3022 C.ar    1  UNL1        0.0015
     15 C           7.6413   -6.3244   28.7942 C.ar    1  UNL1        0.0216
     16 C           7.1284   -5.0625   29.4222 C.ar    1  UNL1        0.1459
     17 S           6.9046   -4.6725   30.8532 S.O2    1  UNL1        0.0957
     18 O           7.4138   -6.0530   31.1446 O.2     1  UNL1       -0.1483
     19 O           6.7872   -4.5712   32.3452 O.2     1  UNL1       -0.1483
     20 O           3.4805    1.4800   34.3126 O.2     1  UNL1       -0.2682
     21 C           4.0160    1.0722   35.6531 C.2     1  UNL1        0.2672
     22 N           4.9153   -0.1226   35.7696 N.am    1  UNL1       -0.2791
     23 H           5.2668   -0.3902   36.6495 H       1  UNL1        0.1552
     24 C           3.6521    1.8593   36.8771 C.ar    1  UNL1        0.1348
     25 C           4.6937    2.1563   37.9149 C.ar    1  UNL1        0.0238
     26 C           4.3299    2.9434   39.1389 C.ar    1  UNL1        0.0033
     27 C           2.9244    3.4334   39.3251 C.ar    1  UNL1        0.0207
     28 C           1.8829    3.1364   38.2873 C.ar    1  UNL1        0.0990
     29 N           2.2468    2.3493   37.0633 N.ar    1  UNL1       -0.2392
@<TRIPOS>BOND
     1    20    21    2
     2    21    22   am
     3    22     1    1
     4     1     2   ar
     5     2     3   ar
     6     3     4   ar
     7     4     7    1
     8     7     8    1
     9     8     9    2
    10     8    10    2
    11     8    11    1
    12    11    12   ar
    13    12    13   ar
    14    13    14   ar
    15    14    15   ar
    16    15    16   ar
    17    16    17    1
    18    17    18    2
    19    17    19    2
    20     4     5   ar
    21     5     6   ar
    22    21    24    1
    23    24    25   ar
    24    25    26   ar
    25    26    27   ar
    26    27    28   ar
    27    28    29   ar
    28     6     1   ar
    29    29    24   ar
    30    17     7    1
    31    16    11   ar
    32    22    23    1
@<TRIPOS>MOLECULE
*****
 29 32 0 0 0
SMALL
GASTEIGER

@<TRIPOS>ATOM
      1 C           5.2726   -0.9088   34.5425 C.ar    1  UNL1        0.0507
      2 C           6.6170   -0.7219   33.9043 C.ar    1  UNL1        0.0161
      3 C           6.9755   -1.4955   32.6702 C.ar    1  UNL1        0.0193
      4 C           5.9895   -2.4562   32.0744 C.ar    1  UNL1        0.0930
      5 C           4.6451   -2.6431   32.7127 C.ar    1  UNL1        0.0193
      6 C           4.2866   -1.8694   33.9467 C.ar    1  UNL1        0.0161
      7 N           6.3480   -3.2298   30.8403 N.pl3   1  UNL1       -0.0680
      8 S           6.8771   -4.6329   30.8020 S.O2    1  UNL1        0.0957
      9 O           6.7634   -4.5489   32.2953 O.2     1  UNL1       -0.1483
     10 O           7.3824   -6.0184   31.0758 O.2     1  UNL1       -0.1483
     11 C           7.0964   -5.0065   29.3659 C.ar    1  UNL1        0.1459
     12 C           7.6036   -6.2626   28.7218 C.ar    1  UNL1        0.0216
     13 C           7.7173   -6.3465   27.2285 C.ar    1  UNL1        0.0015
     14 C           7.3238   -5.1743   26.3793 C.ar    1  UNL1        0.0015
     15 C           6.8166   -3.9182   27.0234 C.ar    1  UNL1        0.0216
     16 C           6.7029   -3.8343   28.5167 C.ar    1  UNL1        0.1459
     17 S           6.2404   -2.7363   29.4280 S.O2    1  UNL1        0.0957
     18 O           6.0267   -1.9802   28.1503 O.2     1  UNL1       -0.1483
     19 O           5.7331   -1.4802   30.0721 O.2     1  UNL1       -0.1483
     20 O           3.5091    1.5095   34.3374 O.2     1  UNL1       -0.2682
     21 C           4.0324    1.0740   35.6741 C.2     1  UNL1        0.2672
     22 N           4.9141   -0.1351   35.7766 N.am    1  UNL1       -0.2791
     23 H           5.2575   -0.4209   36.6539 H       1  UNL1        0.1552
     24 C           3.6739    1.8477   36.9081 C.ar    1  UNL1        0.1348
     25 C           4.7169    2.1221   37.9507 C.ar    1  UNL1        0.0238
     26 C           4.3584    2.8958   39.1848 C.ar    1  UNL1        0.0033
     27 C           2.9569    3.3950   39.3762 C.ar    1  UNL1        0.0207
     28 C           1.9140    3.1206   38.3337 C.ar    1  UNL1        0.0990
     29 N           2.2725    2.3470   37.0996 N.ar    1  UNL1       -0.2392
@<TRIPOS>BOND
     1    20    21    2
     2    21    22   am
     3    22     1    1
     4     1     2   ar
     5     2     3   ar
     6     3     4   ar
     7     4     7    1
     8     7     8    1
     9     8     9    2
    10     8    10    2
    11     8    11    1
    12    11    12   ar
    13    12    13   ar
    14    13    14   ar
    15    14    15   ar
    16    15    16   ar
    17    16    17    1
    18    17    18    2
    19    17    19    2
    20     4     5   ar
    21     5     6   ar
    22    21    24    1
    23    24    25   ar
    24    25    26   ar
    25    26    27   ar
    26    27    28   ar
    27    28    29   ar
    28     6     1   ar
    29    29    24   ar
    30    17     7    1
    31    16    11   ar
    32    22    23    1
@<TRIPOS>MOLECULE
*****
 29 32 0 0 0
SMALL
GASTEIGER

@<TRIPOS>ATOM
      1 C           6.3589   -2.9550   32.6730 C.ar    1  UNL1        0.0507
      2 C           4.9254   -3.1077   33.0871 C.ar    1  UNL1        0.0161
      3 C           4.2032   -1.9593   33.7273 C.ar    1  UNL1        0.0193
      4 C           4.9146   -0.6583   33.9533 C.ar    1  UNL1        0.0930
      5 C           6.3481   -0.5056   33.5391 C.ar    1  UNL1        0.0193
      6 C           7.0703   -1.6539   32.8990 C.ar    1  UNL1        0.0161
      7 N           4.1924    0.4900   34.5935 N.pl3   1  UNL1       -0.0680
      8 S           4.1685    0.8099   36.0588 S.O2    1  UNL1        0.0957
      9 O           5.0416   -0.4042   36.1774 O.2     1  UNL1       -0.1483
     10 O           4.3272    0.8759   37.5489 O.2     1  UNL1       -0.1483
     11 C           3.3287    2.0377   36.2516 C.ar    1  UNL1        0.1459
     12 C           2.9509    2.8126   37.4791 C.ar    1  UNL1        0.0216
     13 C           2.0779    4.0266   37.3604 C.ar    1  UNL1        0.0015
     14 C           1.5828    4.4656   36.0143 C.ar    1  UNL1        0.0015
     15 C           1.9606    3.6907   34.7868 C.ar    1  UNL1        0.0216
     16 C           2.8336    2.4767   34.9055 C.ar    1  UNL1        0.1459
     17 S           3.3674    1.5202   33.8807 S.O2    1  UNL1        0.0957
     18 O           2.6213    2.3884   32.9114 O.2     1  UNL1       -0.1483
     19 O           3.7452    0.7452   32.6532 O.2     1  UNL1       -0.1483
     20 O           6.2408   -3.3307   29.6989 O.2     1  UNL1       -0.2682
     21 C           7.0220   -4.2912   30.5458 C.2     1  UNL1        0.2672
     22 N           7.0811   -4.1033   32.0328 N.am    1  UNL1       -0.2791
     23 H           7.5938   -4.7337   32.5886 H       1  UNL1        0.1552
     24 C           7.7442   -5.4395   29.9057 C.ar    1  UNL1        0.1348
     25 C           8.8115   -6.1710   30.6645 C.ar    1  UNL1        0.0238
     26 C           9.5337   -7.3194   30.0244 C.ar    1  UNL1        0.0033
     27 C           9.1885   -7.7362   28.6253 C.ar    1  UNL1        0.0207
     28 C           8.1212   -7.0047   27.8666 C.ar    1  UNL1        0.0990
     29 N           7.3991   -5.8564   28.5067 N.ar    1  UNL1       -0.2392
@<TRIPOS>BOND
     1    20    21    2
     2    21    22   am
     3    22     1    1
     4     1     2   ar
     5     2     3   ar
     6     3     4   ar
     7     4     7    1
     8     7     8    1
     9     8     9    2
    10     8    10    2
    11     8    11    1
    12    11    12   ar
    13    12    13   ar
    14    13    14   ar
    15    14    15   ar
    16    15    16   ar
    17    16    17    1
    18    17    18    2
    19    17    19    2
    20     4     5   ar
    21     5     6   ar
    22    21    24    1
    23    24    25   ar
    24    25    26   ar
    25    26    27   ar
    26    27    28   ar
    27    28    29   ar
    28     6     1   ar
    29    29    24   ar
    30    17     7    1
    31    16    11   ar
    32    22    23    1
@<TRIPOS>MOLECULE
*****
 29 32 0 0 0
SMALL
GASTEIGER

@<TRIPOS>ATOM
      1 C           6.4101   -2.9853   32.6421 C.ar    1  UNL1        0.0507
      2 C           4.9969   -3.1641   33.1119 C.ar    1  UNL1        0.0161
      3 C           4.2856   -2.0347   33.7965 C.ar    1  UNL1        0.0193
      4 C           4.9875   -0.7266   34.0113 C.ar    1  UNL1        0.0930
      5 C           6.4007   -0.5479   33.5415 C.ar    1  UNL1        0.0193
      6 C           7.1120   -1.6772   32.8569 C.ar    1  UNL1        0.0161
      7 N           4.2761    0.4027   34.6958 N.pl3   1  UNL1       -0.0680
      8 S           3.4300    1.4457   34.0279 S.O2    1  UNL1        0.0957
      9 O           3.7814    0.7019   32.7735 O.2     1  UNL1       -0.1483
     10 O           2.6573    2.3332   33.0977 O.2     1  UNL1       -0.1483
     11 C           2.9169    2.3749   35.0878 C.ar    1  UNL1        0.1459
     12 C           2.0364    3.5873   35.0191 C.ar    1  UNL1        0.0216
     13 C           1.6849    4.3309   36.2734 C.ar    1  UNL1        0.0015
     14 C           2.2140    3.8622   37.5965 C.ar    1  UNL1        0.0015
     15 C           3.0946    2.6499   37.6651 C.ar    1  UNL1        0.0216
     16 C           3.4461    1.9062   36.4108 C.ar    1  UNL1        0.1459
     17 S           4.2861    0.6873   36.1685 S.O2    1  UNL1        0.0957
     18 O           4.4801    0.7185   37.6556 O.2     1  UNL1       -0.1483
     19 O           5.1667   -0.5251   36.2372 O.2     1  UNL1       -0.1483
     20 O           6.1613   -3.3345   29.6729 O.2     1  UNL1       -0.2682
     21 C           6.9971   -4.2892   30.4730 C.2     1  UNL1        0.2672
     22 N           7.1215   -4.1146   31.9576 N.am    1  UNL1       -0.2791
     23 H           7.6700   -4.7412   32.4827 H       1  UNL1        0.1552
     24 C           7.7084   -5.4186   29.7884 C.ar    1  UNL1        0.1348
     25 C           8.8005   -6.1592   30.5017 C.ar    1  UNL1        0.0238
     26 C           9.5119   -7.2885   29.8172 C.ar    1  UNL1        0.0033
     27 C           9.1310   -7.6772   28.4193 C.ar    1  UNL1        0.0207
     28 C           8.0389   -6.9366   27.7061 C.ar    1  UNL1        0.0990
     29 N           7.3276   -5.8073   28.3906 N.ar    1  UNL1       -0.2392
@<TRIPOS>BOND
     1    20    21    2
     2    21    22   am
     3    22     1    1
     4     1     2   ar
     5     2     3   ar
     6     3     4   ar
     7     4     7    1
     8     7     8    1
     9     8     9    2
    10     8    10    2
    11     8    11    1
    12    11    12   ar
    13    12    13   ar
    14    13    14   ar
    15    14    15   ar
    16    15    16   ar
    17    16    17    1
    18    17    18    2
    19    17    19    2
    20     4     5   ar
    21     5     6   ar
    22    21    24    1
    23    24    25   ar
    24    25    26   ar
    25    26    27   ar
    26    27    28   ar
    27    28    29   ar
    28     6     1   ar
    29    29    24   ar
    30    17     7    1
    31    16    11   ar
    32    22    23    1
@<TRIPOS>MOLECULE
*****
 29 32 0 0 0
SMALL
GASTEIGER

@<TRIPOS>ATOM
      1 C           3.7946   -1.2894   27.7288 C.ar    1  UNL1        0.0507
      2 C           2.6834   -0.6891   28.5381 C.ar    1  UNL1        0.0161
      3 C           2.9185   -0.3110   29.9705 C.ar    1  UNL1        0.0193
      4 C           4.2647   -0.5332   30.5936 C.ar    1  UNL1        0.0930
      5 C           5.3758   -1.1335   29.7843 C.ar    1  UNL1        0.0193
      6 C           5.1408   -1.5116   28.3519 C.ar    1  UNL1        0.0161
      7 N           4.4998   -0.1552   32.0260 N.pl3   1  UNL1       -0.0680
      8 S           5.0310    1.1596   32.5152 S.O2    1  UNL1        0.0957
      9 O           5.0703    1.5074   31.0565 O.2     1  UNL1       -0.1483
     10 O           5.5704    2.5470   32.6993 O.2     1  UNL1       -0.1483
     11 C           5.1044    1.1018   34.0122 C.ar    1  UNL1        0.1459
     12 C           5.5509    2.1045   35.0346 C.ar    1  UNL1        0.0216
     13 C           5.5116    1.7566   36.4932 C.ar    1  UNL1        0.0015
     14 C           5.0258    0.4062   36.9293 C.ar    1  UNL1        0.0015
     15 C           4.5793   -0.5965   35.9070 C.ar    1  UNL1        0.0216
     16 C           4.6186   -0.2486   34.4484 C.ar    1  UNL1        0.1459
     17 S           4.2450   -1.0255   33.2209 S.O2    1  UNL1        0.0957
     18 O           3.8968   -2.1054   34.2019 O.2     1  UNL1       -0.1483
     19 O           3.7985   -2.0282   32.1984 O.2     1  UNL1       -0.1483
     20 O           4.8989    0.4210   25.5254 O.2     1  UNL1       -0.2682
     21 C           4.1116   -0.8123   25.1947 C.2     1  UNL1        0.2672
     22 N           3.5595   -1.6674   26.2964 N.am    1  UNL1       -0.2791
     23 H           3.0428   -2.4768   26.0793 H       1  UNL1        0.1552
     24 C           3.8765   -1.1903   23.7623 C.ar    1  UNL1        0.1348
     25 C           2.8946   -0.4161   22.9337 C.ar    1  UNL1        0.0238
     26 C           2.6595   -0.7942   21.5013 C.ar    1  UNL1        0.0033
     27 C           3.4064   -1.9464   20.8974 C.ar    1  UNL1        0.0207
     28 C           4.3883   -2.7206   21.7260 C.ar    1  UNL1        0.0990
     29 N           4.6234   -2.3425   23.1584 N.ar    1  UNL1       -0.2392
@<TRIPOS>BOND
     1    20    21    2
     2    21    22   am
     3    22     1    1
     4     1     2   ar
     5     2     3   ar
     6     3     4   ar
     7     4     7    1
     8     7     8    1
     9     8     9    2
    10     8    10    2
    11     8    11    1
    12    11    12   ar
    13    12    13   ar
    14    13    14   ar
    15    14    15   ar
    16    15    16   ar
    17    16    17    1
    18    17    18    2
    19    17    19    2
    20     4     5   ar
    21     5     6   ar
    22    21    24    1
    23    24    25   ar
    24    25    26   ar
    25    26    27   ar
    26    27    28   ar
    27    28    29   ar
    28     6     1   ar
    29    29    24   ar
    30    17     7    1
    31    16    11   ar
    32    22    23    1
@<TRIPOS>MOLECULE
*****
 29 32 0 0 0
SMALL
GASTEIGER

@<TRIPOS>ATOM
      1 C          -0.3729    1.9470   27.0285 C.ar    1  UNL1        0.0507
      2 C          -0.9747    1.0819   28.0959 C.ar    1  UNL1        0.0161
      3 C          -0.2649    0.9033   29.4053 C.ar    1  UNL1        0.0193
      4 C           1.0466    1.5897   29.6472 C.ar    1  UNL1        0.0930
      5 C           1.6484    2.4549   28.5798 C.ar    1  UNL1        0.0193
      6 C           0.9386    2.6335   27.2705 C.ar    1  UNL1        0.0161
      7 N           1.7564    1.4111   30.9565 N.pl3   1  UNL1       -0.0680
      8 S           1.5943    2.2746   32.1723 S.O2    1  UNL1        0.0957
      9 O           0.6216    3.0279   31.3141 O.2     1  UNL1       -0.1483
     10 O           1.2289    3.2956   33.2086 O.2     1  UNL1       -0.1483
     11 C           2.4906    1.7348   33.2471 C.ar    1  UNL1        0.1459
     12 C           2.7472    2.1787   34.6567 C.ar    1  UNL1        0.0216
     13 C           3.7199    1.4254   35.5149 C.ar    1  UNL1        0.0015
     14 C           4.4360    0.2282   34.9634 C.ar    1  UNL1        0.0015
     15 C           4.1793   -0.2156   33.5538 C.ar    1  UNL1        0.0216
     16 C           3.2066    0.5376   32.6956 C.ar    1  UNL1        0.1459
     17 S           2.7529    0.3376   31.2800 S.O2    1  UNL1        0.0957
     18 O           3.6957   -0.8287   31.3087 O.2     1  UNL1       -0.1483
     19 O           2.4962   -0.1062   29.8703 O.2     1  UNL1       -0.1483
     20 O          -2.4709    4.0715   26.7373 O.2     1  UNL1       -0.2682
     21 C          -2.1316    3.1879   25.5736 C.2     1  UNL1        0.2672
     22 N          -1.0827    2.1257   25.7192 N.am    1  UNL1       -0.2791
     23 H          -0.8600    1.5457   24.9555 H       1  UNL1        0.1552
     24 C          -2.8414    3.3665   24.2642 C.ar    1  UNL1        0.1348
     25 C          -4.3381    3.2849   24.2052 C.ar    1  UNL1        0.0238
     26 C          -5.0478    3.4635   22.8959 C.ar    1  UNL1        0.0033
     27 C          -4.2609    3.7238   21.6456 C.ar    1  UNL1        0.0207
     28 C          -2.7643    3.8054   21.7047 C.ar    1  UNL1        0.0990
     29 N          -2.0546    3.6268   23.0140 N.ar    1  UNL1       -0.2392
@<TRIPOS>BOND
     1    20    21    2
     2    21    22   am
     3    22     1    1
     4     1     2   ar
     5     2     3   ar
     6     3     4   ar
     7     4     7    1
     8     7     8    1
     9     8     9    2
    10     8    10    2
    11     8    11    1
    12    11    12   ar
    13    12    13   ar
    14    13    14   ar
    15    14    15   ar
    16    15    16   ar
    17    16    17    1
    18    17    18    2
    19    17    19    2
    20     4     5   ar
    21     5     6   ar
    22    21    24    1
    23    24    25   ar
    24    25    26   ar
    25    26    27   ar
    26    27    28   ar
    27    28    29   ar
    28     6     1   ar
    29    29    24   ar
    30    17     7    1
    31    16    11   ar
    32    22    23    1
@<TRIPOS>MOLECULE
*****
 29 32 0 0 0
SMALL
GASTEIGER

@<TRIPOS>ATOM
      1 C           1.0906    0.5826   20.8994 C.ar    1  UNL1        0.0507
      2 C           2.2355    0.9755   21.7852 C.ar    1  UNL1        0.0161
      3 C           3.5393    0.2391   21.6967 C.ar    1  UNL1        0.0193
      4 C           3.6982   -0.8902   20.7223 C.ar    1  UNL1        0.0930
      5 C           2.5532   -1.2831   19.8365 C.ar    1  UNL1        0.0193
      6 C           1.2495   -0.5467   19.9250 C.ar    1  UNL1        0.0161
      7 N           5.0019   -1.6266   20.6338 N.pl3   1  UNL1       -0.0680
      8 S           5.3748   -2.8556   21.4089 S.O2    1  UNL1        0.0957
      9 O           4.0024   -2.7098   21.9966 O.2     1  UNL1       -0.1483
     10 O           5.4607   -4.0540   22.3068 O.2     1  UNL1       -0.1483
     11 C           6.7651   -3.2519   21.0088 C.ar    1  UNL1        0.1459
     12 C           7.6510   -4.3816   21.4433 C.ar    1  UNL1        0.0216
     13 C           9.0233   -4.5274   20.8555 C.ar    1  UNL1        0.0015
     14 C           9.5097   -3.5433   19.8332 C.ar    1  UNL1        0.0015
     15 C           8.6238   -2.4136   19.3987 C.ar    1  UNL1        0.0216
     16 C           7.2515   -2.2679   19.9865 C.ar    1  UNL1        0.1459
     17 S           6.1618   -1.2634   19.7548 S.O2    1  UNL1        0.0957
     18 O           7.1365   -0.6640   18.7849 O.2     1  UNL1       -0.1483
     19 O           5.2759   -0.1336   19.3203 O.2     1  UNL1       -0.1483
     20 O           0.5284    2.8664   19.0370 O.2     1  UNL1       -0.2682
     21 C          -0.4943    2.4609   20.0567 C.2     1  UNL1        0.2672
     22 N          -0.2132    1.3190   20.9879 N.am    1  UNL1       -0.2791
     23 H          -0.8844    1.0529   21.6571 H       1  UNL1        0.1552
     24 C          -1.7981    3.1973   20.1452 C.ar    1  UNL1        0.1348
     25 C          -2.1068    4.2955   19.1711 C.ar    1  UNL1        0.0238
     26 C          -3.4106    5.0319   19.2596 C.ar    1  UNL1        0.0033
     27 C          -4.4057    4.6701   20.3222 C.ar    1  UNL1        0.0207
     28 C          -4.0970    3.5720   21.2962 C.ar    1  UNL1        0.0990
     29 N          -2.7932    2.8356   21.2077 N.ar    1  UNL1       -0.2392
@<TRIPOS>BOND
     1    20    21    2
     2    21    22   am
     3    22     1    1
     4     1     2   ar
     5     2     3   ar
     6     3     4   ar
     7     4     7    1
     8     7     8    1
     9     8     9    2
    10     8    10    2
    11     8    11    1
    12    11    12   ar
    13    12    13   ar
    14    13    14   ar
    15    14    15   ar
    16    15    16   ar
    17    16    17    1
    18    17    18    2
    19    17    19    2
    20     4     5   ar
    21     5     6   ar
    22    21    24    1
    23    24    25   ar
    24    25    26   ar
    25    26    27   ar
    26    27    28   ar
    27    28    29   ar
    28     6     1   ar
    29    29    24   ar
    30    17     7    1
    31    16    11   ar
    32    22    23    1
@<TRIPOS>MOLECULE
*****
 29 32 0 0 0
SMALL
GASTEIGER

@<TRIPOS>ATOM
      1 C          -0.3871    1.9077   27.1076 C.ar    1  UNL1        0.0507
      2 C           0.9199    2.6040   27.3454 C.ar    1  UNL1        0.0161
      3 C           1.6447    2.4153   28.6451 C.ar    1  UNL1        0.0193
      4 C           1.0624    1.5301   29.7069 C.ar    1  UNL1        0.0930
      5 C          -0.2447    0.8337   29.4690 C.ar    1  UNL1        0.0193
      6 C          -0.9694    1.0225   28.1694 C.ar    1  UNL1        0.0161
      7 N           1.7872    1.3413   31.0065 N.pl3   1  UNL1       -0.0680
      8 S           2.7714    0.2528   31.3172 S.O2    1  UNL1        0.0957
      9 O           2.4886   -0.1878   29.9114 O.2     1  UNL1       -0.1483
     10 O           3.6965   -0.9278   31.3339 O.2     1  UNL1       -0.1483
     11 C           3.2475    0.4467   32.7263 C.ar    1  UNL1        0.1459
     12 C           4.2201   -0.3210   33.5717 C.ar    1  UNL1        0.0216
     13 C           4.5028    0.1197   34.9773 C.ar    1  UNL1        0.0015
     14 C           3.8128    1.3280   35.5376 C.ar    1  UNL1        0.0015
     15 C           2.8402    2.0957   34.6923 C.ar    1  UNL1        0.0216
     16 C           2.5575    1.6550   33.2866 C.ar    1  UNL1        0.1459
     17 S           1.6550    2.2079   32.2237 S.O2    1  UNL1        0.0957
     18 O           1.3195    3.2350   33.2641 O.2     1  UNL1       -0.1483
     19 O           0.6823    2.9756   31.3783 O.2     1  UNL1       -0.1483
     20 O          -2.3471    4.1575   26.7961 O.2     1  UNL1       -0.2682
     21 C          -2.0919    3.2213   25.6522 C.2     1  UNL1        0.2672
     22 N          -1.1119    2.0964   25.8079 N.am    1  UNL1       -0.2791
     23 H          -0.9444    1.4820   25.0572 H       1  UNL1        0.1552
     24 C          -2.8166    3.4101   24.3525 C.ar    1  UNL1        0.1348
     25 C          -4.3073    3.2527   24.2954 C.ar    1  UNL1        0.0238
     26 C          -5.0321    3.4415   22.9957 C.ar    1  UNL1        0.0033
     27 C          -4.2662    3.7877   21.7533 C.ar    1  UNL1        0.0207
     28 C          -2.7756    3.9451   21.8105 C.ar    1  UNL1        0.0990
     29 N          -2.0508    3.7563   23.1101 N.ar    1  UNL1       -0.2392
@<TRIPOS>BOND
     1    20    21    2
     2    21    22   am
     3    22     1    1
     4     1     2   ar
     5     2     3   ar
     6     3     4   ar
     7     4     7    1
     8     7     8    1
     9     8     9    2
    10     8    10    2
    11     8    11    1
    12    11    12   ar
    13    12    13   ar
    14    13    14   ar
    15    14    15   ar
    16    15    16   ar
    17    16    17    1
    18    17    18    2
    19    17    19    2
    20     4     5   ar
    21     5     6   ar
    22    21    24    1
    23    24    25   ar
    24    25    26   ar
    25    26    27   ar
    26    27    28   ar
    27    28    29   ar
    28     6     1   ar
    29    29    24   ar
    30    17     7    1
    31    16    11   ar
    32    22    23    1
@<TRIPOS>MOLECULE
*****
 29 32 0 0 0
SMALL
GASTEIGER

@<TRIPOS>ATOM
      1 C           3.8974   -1.2215   27.7319 C.ar    1  UNL1        0.0507
      2 C           2.7943   -0.5939   28.5313 C.ar    1  UNL1        0.0161
      3 C           3.0205   -0.2371   29.9706 C.ar    1  UNL1        0.0193
      4 C           4.3498   -0.5078   30.6104 C.ar    1  UNL1        0.0930
      5 C           5.4530   -1.1354   29.8110 C.ar    1  UNL1        0.0193
      6 C           5.2268   -1.4922   28.3717 C.ar    1  UNL1        0.0161
      7 N           4.5761   -0.1510   32.0497 N.pl3   1  UNL1       -0.0680
      8 S           4.2688   -1.0207   33.2325 S.O2    1  UNL1        0.0957
      9 O           3.8008   -1.9969   32.1942 O.2     1  UNL1       -0.1483
     10 O           3.8637   -2.0946   34.1983 O.2     1  UNL1       -0.1483
     11 C           4.6521   -0.2690   34.4727 C.ar    1  UNL1        0.1459
     12 C           4.5759   -0.6272   35.9273 C.ar    1  UNL1        0.0216
     13 C           5.0439    0.3490   36.9655 C.ar    1  UNL1        0.0015
     14 C           5.5880    1.6834   36.5492 C.ar    1  UNL1        0.0015
     15 C           5.6642    2.0416   35.0946 C.ar    1  UNL1        0.0216
     16 C           5.1962    1.0654   34.0563 C.ar    1  UNL1        0.1459
     17 S           5.1492    1.1383   32.5588 S.O2    1  UNL1        0.0957
     18 O           5.7384    2.5024   32.7639 O.2     1  UNL1       -0.1483
     19 O           5.2254    1.4964   31.1042 O.2     1  UNL1       -0.1483
     20 O           4.1159    0.8890   25.6110 O.2     1  UNL1       -0.2682
     21 C           3.7805   -0.5232   25.2322 C.2     1  UNL1        0.2672
     22 N           3.6712   -1.5783   26.2926 N.am    1  UNL1       -0.2791
     23 H           3.4511   -2.5051   26.0440 H       1  UNL1        0.1552
     24 C           3.5543   -0.8800   23.7929 C.ar    1  UNL1        0.1348
     25 C           4.2781   -2.0455   23.1865 C.ar    1  UNL1        0.0238
     26 C           4.0519   -2.4024   21.7472 C.ar    1  UNL1        0.0033
     27 C           3.1018   -1.5937   20.9144 C.ar    1  UNL1        0.0207
     28 C           2.3781   -0.4283   21.5208 C.ar    1  UNL1        0.0990
     29 N           2.6043   -0.0714   22.9601 N.ar    1  UNL1       -0.2392
@<TRIPOS>BOND
     1    20    21    2
     2    21    22   am
     3    22     1    1
     4     1     2   ar
     5     2     3   ar
     6     3     4   ar
     7     4     7    1
     8     7     8    1
     9     8     9    2
    10     8    10    2
    11     8    11    1
    12    11    12   ar
    13    12    13   ar
    14    13    14   ar
    15    14    15   ar
    16    15    16   ar
    17    16    17    1
    18    17    18    2
    19    17    19    2
    20     4     5   ar
    21     5     6   ar
    22    21    24    1
    23    24    25   ar
    24    25    26   ar
    25    26    27   ar
    26    27    28   ar
    27    28    29   ar
    28     6     1   ar
    29    29    24   ar
    30    17     7    1
    31    16    11   ar
    32    22    23    1
