@<TRIPOS>MOLECULE
*****
 31 34 0 0 0
SMALL
GASTEIGER

@<TRIPOS>ATOM
      1 O          -9.9586  -21.1766   25.3161 O.2     1  UNL1       -0.2651
      2 C          -9.7223  -20.2645   24.1490 C.ar    1  UNL1        0.2814
      3 N          -8.3956  -20.2702   23.4492 N.ar    1  UNL1       -0.1866
      4 C          -8.1593  -19.3581   22.2821 C.ar    1  UNL1        0.1665
      5 S          -9.2498  -18.4403   21.8147 S.2     1  UNL1       -0.0466
      6 C         -10.5765  -18.4347   22.5144 C.ar    1  UNL1        0.1059
      7 C         -11.6671  -17.5169   22.0470 C.ar    1  UNL1        0.2960
      8 C         -12.9938  -17.5112   22.7467 C.ar    1  UNL1        0.0797
      9 C         -13.2301  -18.4233   23.9139 C.ar    1  UNL1        0.0777
     10 C         -12.1396  -19.3411   24.3813 C.ar    1  UNL1        0.0096
     11 C         -10.8128  -19.3468   23.6816 C.ar    1  UNL1        0.0699
     12 N          -6.8325  -19.3638   21.5823 N.pl3   1  UNL1       -0.2852
     13 C          -5.5836  -19.6928   22.3453 C.3     1  UNL1        0.1100
     14 C          -4.2569  -19.6985   21.6457 C.3     1  UNL1        0.0939
     15 N          -4.1789  -19.3752   20.1829 N.3     1  UNL1       -0.2698
     16 C          -5.4277  -19.0463   19.4199 C.3     1  UNL1        0.0939
     17 C          -6.7546  -19.0406   20.1197 C.3     1  UNL1        0.1100
     18 C          -2.8521  -19.3809   19.4833 C.3     1  UNL1        0.0721
     19 C          -1.8082  -18.3669   19.8466 C.3     1  UNL1        0.0160
     20 C          -0.3765  -18.5931   19.4608 C.3     1  UNL1        0.0014
     21 C           0.6674  -17.5791   19.8241 C.3     1  UNL1        0.0000
     22 C           0.2796  -16.3388   20.5733 C.3     1  UNL1        0.0000
     23 C          -1.1522  -16.1126   20.9591 C.3     1  UNL1        0.0000
     24 C          -2.1961  -17.1266   20.5958 C.3     1  UNL1        0.0014
     25 C         -14.5569  -18.4176   24.6136 C.3     1  UNL1        0.4188
     26 F         -15.8837  -18.4119   25.3134 F       1  UNL1       -0.1659
     27 F         -13.8600  -18.2730   25.9339 F       1  UNL1       -0.1659
     28 F         -15.2539  -18.5622   23.2933 F       1  UNL1       -0.1659
     29 N         -11.4308  -16.6048   20.8798 N.pl3   1  UNL1        0.0814
     30 O         -10.3711  -15.5460   20.9579 O.2     1  UNL1        0.0415
     31 O         -12.2543  -16.7514   19.6347 O.co2   1  UNL1       -0.5760
@<TRIPOS>UNITY_ATOM_ATTR
29 1
charge 1
31 1
charge -1
@<TRIPOS>BOND
     1     1     2    2
     2     2     3   ar
     3     3     4   ar
     4     4    12    1
     5    12    13    1
     6    13    14    1
     7    14    15    1
     8    15    18    1
     9    18    19    1
    10    19    20    1
    11    20    21    1
    12    21    22    1
    13    22    23    1
    14    23    24    1
    15    15    16    1
    16    16    17    1
    17     4     5   ar
    18     5     6   ar
    19     6     7   ar
    20     7    29    1
    21    29    30    2
    22    29    31    1
    23     7     8   ar
    24     8     9   ar
    25     9    25    1
    26    25    26    1
    27    25    27    1
    28    25    28    1
    29     9    10   ar
    30    10    11   ar
    31    11     2   ar
    32    17    12    1
    33    11     6   ar
    34    24    19    1
@<TRIPOS>MOLECULE
*****
 31 34 0 0 0
SMALL
GASTEIGER

@<TRIPOS>ATOM
      1 O           1.0368    1.5746   24.3691 O.2     1  UNL1       -0.2651
      2 C           2.1199    0.5369   24.3634 C.ar    1  UNL1        0.2814
      3 N           2.7949    0.1503   25.6459 N.ar    1  UNL1       -0.1866
      4 C           3.8780   -0.8874   25.6402 C.ar    1  UNL1        0.1665
      5 S           4.2861   -1.5386   24.3521 S.2     1  UNL1       -0.0466
      6 C           3.6110   -1.1520   23.0696 C.ar    1  UNL1        0.1059
      7 C           4.0191   -1.8032   21.7813 C.ar    1  UNL1        0.2960
      8 C           3.3440   -1.4166   20.4988 C.ar    1  UNL1        0.0797
      9 C           2.2609   -0.3789   20.5045 C.ar    1  UNL1        0.0777
     10 C           1.8529    0.2723   21.7927 C.ar    1  UNL1        0.0096
     11 C           2.5279   -0.1143   23.0752 C.ar    1  UNL1        0.0699
     12 N           4.5531   -1.2740   26.9228 N.pl3   1  UNL1       -0.2852
     13 C           5.5469   -2.3974   26.9383 C.3     1  UNL1        0.1100
     14 C           6.2219   -2.7839   28.2208 C.3     1  UNL1        0.0939
     15 N           5.9031   -2.0471   29.4879 N.3     1  UNL1       -0.2698
     16 C           4.9093   -0.9237   29.4724 C.3     1  UNL1        0.0939
     17 C           4.2343   -0.5371   28.1898 C.3     1  UNL1        0.1100
     18 C           6.5782   -2.4336   30.7704 C.3     1  UNL1        0.0721
     19 C           6.0519   -1.9224   32.0787 C.3     1  UNL1        0.0160
     20 C           6.7653   -0.8124   32.7919 C.3     1  UNL1        0.0014
     21 C           6.2390   -0.3012   34.1002 C.3     1  UNL1        0.0000
     22 C           4.9992   -0.9000   34.6953 C.3     1  UNL1        0.0000
     23 C           4.2858   -2.0101   33.9822 C.3     1  UNL1        0.0000
     24 C           4.8121   -2.5213   32.6739 C.3     1  UNL1        0.0014
     25 C           1.5859    0.0076   19.2219 C.3     1  UNL1        0.4188
     26 F           0.9109    0.3942   17.9393 F       1  UNL1       -0.1659
     27 F           2.8963   -0.0995   18.5000 F       1  UNL1       -0.1659
     28 F           0.2754    0.1148   19.9438 F       1  UNL1       -0.1659
     29 N           5.1021   -2.8409   21.7756 N.pl3   1  UNL1        0.0814
     30 O           4.7533   -4.2900   21.9449 O.2     1  UNL1        0.0415
     31 O           6.5340   -2.4296   21.6007 O.co2   1  UNL1       -0.5760
@<TRIPOS>UNITY_ATOM_ATTR
29 1
charge 1
31 1
charge -1
@<TRIPOS>BOND
     1     1     2    2
     2     2     3   ar
     3     3     4   ar
     4     4    12    1
     5    12    13    1
     6    13    14    1
     7    14    15    1
     8    15    18    1
     9    18    19    1
    10    19    20    1
    11    20    21    1
    12    21    22    1
    13    22    23    1
    14    23    24    1
    15    15    16    1
    16    16    17    1
    17     4     5   ar
    18     5     6   ar
    19     6     7   ar
    20     7    29    1
    21    29    30    2
    22    29    31    1
    23     7     8   ar
    24     8     9   ar
    25     9    25    1
    26    25    26    1
    27    25    27    1
    28    25    28    1
    29     9    10   ar
    30    10    11   ar
    31    11     2   ar
    32    17    12    1
    33    11     6   ar
    34    24    19    1
@<TRIPOS>MOLECULE
*****
 31 34 0 0 0
SMALL
GASTEIGER

@<TRIPOS>ATOM
      1 O           7.1774   -2.6410   29.4236 O.2     1  UNL1       -0.2651
      2 C           5.9180   -1.9608   28.9748 C.ar    1  UNL1        0.2814
      3 N           5.5762   -1.9023   27.5155 N.ar    1  UNL1       -0.1866
      4 C           4.3169   -1.2221   27.0668 C.ar    1  UNL1        0.1665
      5 S           3.3994   -0.6002   28.0774 S.2     1  UNL1       -0.0466
      6 C           3.7412   -0.6587   29.5368 C.ar    1  UNL1        0.1059
      7 C           2.8236   -0.0368   30.5475 C.ar    1  UNL1        0.2960
      8 C           3.1654   -0.0953   32.0068 C.ar    1  UNL1        0.0797
      9 C           4.4247   -0.7755   32.4555 C.ar    1  UNL1        0.0777
     10 C           5.3423   -1.3974   31.4449 C.ar    1  UNL1        0.0096
     11 C           5.0005   -1.3389   29.9855 C.ar    1  UNL1        0.0699
     12 N           3.9752   -1.1637   25.6074 N.pl3   1  UNL1       -0.2852
     13 C           4.6493   -2.0924   24.6415 C.3     1  UNL1        0.1100
     14 C           4.3076   -2.0340   23.1821 C.3     1  UNL1        0.0939
     15 N           3.2917   -1.0469   22.6886 N.3     1  UNL1       -0.2698
     16 C           2.6175   -0.1182   23.6545 C.3     1  UNL1        0.0939
     17 C           2.9592   -0.1766   25.1139 C.3     1  UNL1        0.1100
     18 C           2.9499   -0.9885   21.2292 C.3     1  UNL1        0.0721
     19 C           3.8329   -1.6674   20.2244 C.3     1  UNL1        0.0160
     20 C           5.0388   -0.9573   19.6847 C.3     1  UNL1        0.0014
     21 C           5.9217   -1.6362   18.6799 C.3     1  UNL1        0.0000
     22 C           5.5987   -3.0252   18.2149 C.3     1  UNL1        0.0000
     23 C           4.3927   -3.7352   18.7546 C.3     1  UNL1        0.0000
     24 C           3.5098   -3.0564   19.7594 C.3     1  UNL1        0.0014
     25 C           4.7665   -0.8339   33.9150 C.3     1  UNL1        0.4188
     26 F           5.1082   -0.8924   35.3743 F       1  UNL1       -0.1659
     27 F           4.0045   -2.1197   34.0419 F       1  UNL1       -0.1659
     28 F           5.5285    0.4518   33.7880 F       1  UNL1       -0.1659
     29 N           1.5643    0.6434   30.0988 N.pl3   1  UNL1        0.0814
     30 O           0.3327   -0.1664   29.8205 O.2     1  UNL1        0.0415
     31 O           1.5366    2.1334   29.9283 O.co2   1  UNL1       -0.5760
@<TRIPOS>UNITY_ATOM_ATTR
29 1
charge 1
31 1
charge -1
@<TRIPOS>BOND
     1     1     2    2
     2     2     3   ar
     3     3     4   ar
     4     4    12    1
     5    12    13    1
     6    13    14    1
     7    14    15    1
     8    15    18    1
     9    18    19    1
    10    19    20    1
    11    20    21    1
    12    21    22    1
    13    22    23    1
    14    23    24    1
    15    15    16    1
    16    16    17    1
    17     4     5   ar
    18     5     6   ar
    19     6     7   ar
    20     7    29    1
    21    29    30    2
    22    29    31    1
    23     7     8   ar
    24     8     9   ar
    25     9    25    1
    26    25    26    1
    27    25    27    1
    28    25    28    1
    29     9    10   ar
    30    10    11   ar
    31    11     2   ar
    32    17    12    1
    33    11     6   ar
    34    24    19    1
@<TRIPOS>MOLECULE
*****
 31 34 0 0 0
SMALL
GASTEIGER

@<TRIPOS>ATOM
      1 O           5.3780   -2.9483   24.3798 O.2     1  UNL1       -0.2651
      2 C           4.4092   -1.9144   23.8873 C.ar    1  UNL1        0.2814
      3 N           3.9451   -0.8234   24.8061 N.ar    1  UNL1       -0.1866
      4 C           2.9763    0.2104   24.3137 C.ar    1  UNL1        0.1665
      5 S           2.4715    0.1533   22.9024 S.2     1  UNL1       -0.0466
      6 C           2.9355   -0.9377   21.9835 C.ar    1  UNL1        0.1059
      7 C           2.4307   -0.9949   20.5721 C.ar    1  UNL1        0.2960
      8 C           2.8948   -2.0859   19.6533 C.ar    1  UNL1        0.0797
      9 C           3.8636   -3.1198   20.1457 C.ar    1  UNL1        0.0777
     10 C           4.3684   -3.0626   21.5570 C.ar    1  UNL1        0.0096
     11 C           3.9044   -1.9716   22.4760 C.ar    1  UNL1        0.0699
     12 N           2.5123    1.3015   25.2326 N.pl3   1  UNL1       -0.2852
     13 C           1.0468    1.5862   25.3787 C.3     1  UNL1        0.1100
     14 C           0.5827    2.6772   26.2976 C.3     1  UNL1        0.0939
     15 N           1.5842    3.4835   27.0704 N.3     1  UNL1       -0.2698
     16 C           3.0496    3.1987   26.9243 C.3     1  UNL1        0.0939
     17 C           3.5136    2.1076   26.0054 C.3     1  UNL1        0.1100
     18 C           1.1201    4.5744   27.9893 C.3     1  UNL1        0.0721
     19 C           0.8504    4.2741   29.4340 C.3     1  UNL1        0.0160
     20 C           0.9113    2.8599   29.9301 C.3     1  UNL1        0.0014
     21 C           0.6416    2.5596   31.3748 C.3     1  UNL1        0.0000
     22 C           0.3111    3.6735   32.3234 C.3     1  UNL1        0.0000
     23 C           0.2503    5.0878   31.8273 C.3     1  UNL1        0.0000
     24 C           0.5199    5.3881   30.3826 C.3     1  UNL1        0.0014
     25 C           4.3277   -4.2108   19.2268 C.3     1  UNL1        0.4188
     26 F           4.7917   -5.3018   18.3079 F       1  UNL1       -0.1659
     27 F           5.7513   -3.7966   19.4540 F       1  UNL1       -0.1659
     28 F           2.9040   -4.6250   18.9996 F       1  UNL1       -0.1659
     29 N           1.4619    0.0389   20.0796 N.pl3   1  UNL1        0.0814
     30 O           0.0140   -0.0475   20.4623 O.2     1  UNL1        0.0415
     31 O           1.9409    1.1591   19.2046 O.co2   1  UNL1       -0.5760
@<TRIPOS>UNITY_ATOM_ATTR
29 1
charge 1
31 1
charge -1
@<TRIPOS>BOND
     1     1     2    2
     2     2     3   ar
     3     3     4   ar
     4     4    12    1
     5    12    13    1
     6    13    14    1
     7    14    15    1
     8    15    18    1
     9    18    19    1
    10    19    20    1
    11    20    21    1
    12    21    22    1
    13    22    23    1
    14    23    24    1
    15    15    16    1
    16    16    17    1
    17     4     5   ar
    18     5     6   ar
    19     6     7   ar
    20     7    29    1
    21    29    30    2
    22    29    31    1
    23     7     8   ar
    24     8     9   ar
    25     9    25    1
    26    25    26    1
    27    25    27    1
    28    25    28    1
    29     9    10   ar
    30    10    11   ar
    31    11     2   ar
    32    17    12    1
    33    11     6   ar
    34    24    19    1
@<TRIPOS>MOLECULE
*****
 31 34 0 0 0
SMALL
GASTEIGER

@<TRIPOS>ATOM
      1 O           5.3388   -0.9273   27.8119 O.2     1  UNL1       -0.2651
      2 C           5.7538   -1.6899   29.0351 C.ar    1  UNL1        0.2814
      3 N           5.6150   -1.0649   30.3916 N.ar    1  UNL1       -0.1866
      4 C           6.0299   -1.8275   31.6148 C.ar    1  UNL1        0.1665
      5 S           6.5837   -3.2152   31.4815 S.2     1  UNL1       -0.0466
      6 C           6.7225   -3.8401   30.1250 C.ar    1  UNL1        0.1059
      7 C           7.2763   -5.2278   29.9917 C.ar    1  UNL1        0.2960
      8 C           7.4151   -5.8528   28.6352 C.ar    1  UNL1        0.0797
      9 C           7.0002   -5.0902   27.4120 C.ar    1  UNL1        0.0777
     10 C           6.4464   -3.7026   27.5453 C.ar    1  UNL1        0.0096
     11 C           6.3075   -3.0775   28.9018 C.ar    1  UNL1        0.0699
     12 N           5.8911   -1.2025   32.9713 N.pl3   1  UNL1       -0.2852
     13 C           4.6647   -1.4624   33.7949 C.3     1  UNL1        0.1100
     14 C           4.5258   -0.8374   35.1514 C.3     1  UNL1        0.0939
     15 N           5.6134    0.0476   35.6843 N.3     1  UNL1       -0.2698
     16 C           6.8398    0.3075   34.8607 C.3     1  UNL1        0.0939
     17 C           6.9787   -0.3175   33.5042 C.3     1  UNL1        0.1100
     18 C           5.4745    0.6726   37.0408 C.3     1  UNL1        0.0721
     19 C           4.2658    1.4994   37.3654 C.3     1  UNL1        0.0160
     20 C           3.9489    2.7173   36.5493 C.3     1  UNL1        0.0014
     21 C           2.7402    3.5441   36.8739 C.3     1  UNL1        0.0000
     22 C           1.8484    3.1529   38.0148 C.3     1  UNL1        0.0000
     23 C           2.1652    1.9350   38.8309 C.3     1  UNL1        0.0000
     24 C           3.3740    1.1082   38.5063 C.3     1  UNL1        0.0014
     25 C           7.1390   -5.7153   26.0555 C.3     1  UNL1        0.4188
     26 F           7.2778   -6.3403   24.6990 F       1  UNL1       -0.1659
     27 F           6.5135   -4.5025   25.4327 F       1  UNL1       -0.1659
     28 F           7.7645   -6.9280   26.6783 F       1  UNL1       -0.1659
     29 N           7.6913   -5.9905   31.2149 N.pl3   1  UNL1        0.0814
     30 O           9.1459   -6.2322   31.4904 O.2     1  UNL1        0.0415
     31 O           6.6518   -6.5114   32.1625 O.co2   1  UNL1       -0.5760
@<TRIPOS>UNITY_ATOM_ATTR
29 1
charge 1
31 1
charge -1
@<TRIPOS>BOND
     1     1     2    2
     2     2     3   ar
     3     3     4   ar
     4     4    12    1
     5    12    13    1
     6    13    14    1
     7    14    15    1
     8    15    18    1
     9    18    19    1
    10    19    20    1
    11    20    21    1
    12    21    22    1
    13    22    23    1
    14    23    24    1
    15    15    16    1
    16    16    17    1
    17     4     5   ar
    18     5     6   ar
    19     6     7   ar
    20     7    29    1
    21    29    30    2
    22    29    31    1
    23     7     8   ar
    24     8     9   ar
    25     9    25    1
    26    25    26    1
    27    25    27    1
    28    25    28    1
    29     9    10   ar
    30    10    11   ar
    31    11     2   ar
    32    17    12    1
    33    11     6   ar
    34    24    19    1
@<TRIPOS>MOLECULE
*****
 31 34 0 0 0
SMALL
GASTEIGER

@<TRIPOS>ATOM
      1 O           2.7912   -0.9377   23.3707 O.2     1  UNL1       -0.2651
      2 C           2.7364   -0.4820   21.9426 C.ar    1  UNL1        0.2814
      3 N           1.6859    0.4961   21.5072 N.ar    1  UNL1       -0.1866
      4 C           1.6312    0.9518   20.0792 C.ar    1  UNL1        0.1665
      5 S           2.6270    0.4293   19.0865 S.2     1  UNL1       -0.0466
      6 C           3.6775   -0.5488   19.5219 C.ar    1  UNL1        0.1059
      7 C           4.6733   -1.0713   18.5293 C.ar    1  UNL1        0.2960
      8 C           5.7238   -2.0495   18.9647 C.ar    1  UNL1        0.0797
      9 C           5.7786   -2.5051   20.3927 C.ar    1  UNL1        0.0777
     10 C           4.7828   -1.9827   21.3854 C.ar    1  UNL1        0.0096
     11 C           3.7322   -1.0045   20.9500 C.ar    1  UNL1        0.0699
     12 N           0.5806    1.9300   19.6438 N.pl3   1  UNL1       -0.2852
     13 C          -0.4972    2.3479   20.5996 C.3     1  UNL1        0.1100
     14 C          -1.5478    3.3260   20.1643 C.3     1  UNL1        0.0939
     15 N          -1.5206    3.8863   18.7731 N.3     1  UNL1       -0.2698
     16 C          -0.4428    3.4683   17.8172 C.3     1  UNL1        0.0939
     17 C           0.6078    2.4901   18.2526 C.3     1  UNL1        0.1100
     18 C          -2.5711    4.8644   18.3377 C.3     1  UNL1        0.0721
     19 C          -3.9890    4.6963   18.7975 C.3     1  UNL1        0.0160
     20 C          -4.5515    5.6116   19.8443 C.3     1  UNL1        0.0014
     21 C          -5.9694    5.4435   20.3041 C.3     1  UNL1        0.0000
     22 C          -6.8247    4.3601   19.7171 C.3     1  UNL1        0.0000
     23 C          -6.2622    3.4449   18.6703 C.3     1  UNL1        0.0000
     24 C          -4.8444    3.6130   18.2105 C.3     1  UNL1        0.0014
     25 C           6.8292   -3.4833   20.8281 C.3     1  UNL1        0.4188
     26 F           7.8797   -4.4615   21.2635 F       1  UNL1       -0.1659
     27 F           5.9132   -3.9886   21.9031 F       1  UNL1       -0.1659
     28 F           7.7452   -2.9780   19.7532 F       1  UNL1       -0.1659
     29 N           4.6186   -0.6157   17.1012 N.pl3   1  UNL1        0.0814
     30 O           5.5523    0.4549   16.6192 O.2     1  UNL1        0.0415
     31 O           3.6302   -1.2305   16.1551 O.co2   1  UNL1       -0.5760
@<TRIPOS>UNITY_ATOM_ATTR
29 1
charge 1
31 1
charge -1
@<TRIPOS>BOND
     1     1     2    2
     2     2     3   ar
     3     3     4   ar
     4     4    12    1
     5    12    13    1
     6    13    14    1
     7    14    15    1
     8    15    18    1
     9    18    19    1
    10    19    20    1
    11    20    21    1
    12    21    22    1
    13    22    23    1
    14    23    24    1
    15    15    16    1
    16    16    17    1
    17     4     5   ar
    18     5     6   ar
    19     6     7   ar
    20     7    29    1
    21    29    30    2
    22    29    31    1
    23     7     8   ar
    24     8     9   ar
    25     9    25    1
    26    25    26    1
    27    25    27    1
    28    25    28    1
    29     9    10   ar
    30    10    11   ar
    31    11     2   ar
    32    17    12    1
    33    11     6   ar
    34    24    19    1
@<TRIPOS>MOLECULE
*****
 31 34 0 0 0
SMALL
GASTEIGER

@<TRIPOS>ATOM
      1 O           5.5203   -3.1455   24.4175 O.2     1  UNL1       -0.2651
      2 C           4.5571   -2.0663   24.0205 C.ar    1  UNL1        0.2814
      3 N           4.1480   -1.0224   25.0168 N.ar    1  UNL1       -0.1866
      4 C           3.1848    0.0568   24.6198 C.ar    1  UNL1        0.1665
      5 S           2.6306    0.0919   23.2264 S.2     1  UNL1       -0.0466
      6 C           3.0396   -0.9520   22.2300 C.ar    1  UNL1        0.1059
      7 C           2.4855   -0.9168   20.8366 C.ar    1  UNL1        0.2960
      8 C           2.8945   -1.9608   19.8402 C.ar    1  UNL1        0.0797
      9 C           3.8578   -3.0399   20.2372 C.ar    1  UNL1        0.0777
     10 C           4.4119   -3.0751   21.6306 C.ar    1  UNL1        0.0096
     11 C           4.0029   -2.0311   22.6271 C.ar    1  UNL1        0.0699
     12 N           2.7757    1.1007   25.6163 N.pl3   1  UNL1       -0.2852
     13 C           1.9067    0.7268   26.7803 C.3     1  UNL1        0.1100
     14 C           1.4976    1.7707   27.7767 C.3     1  UNL1        0.0939
     15 N           1.9576    3.1886   27.6092 N.3     1  UNL1       -0.2698
     16 C           2.8267    3.5625   26.4452 C.3     1  UNL1        0.0939
     17 C           3.2357    2.5186   25.4487 C.3     1  UNL1        0.1100
     18 C           1.5486    4.2325   28.6056 C.3     1  UNL1        0.0721
     19 C           0.2481    4.9609   28.4377 C.3     1  UNL1        0.0160
     20 C          -0.1774    5.9798   29.4529 C.3     1  UNL1        0.0014
     21 C          -1.4779    6.7082   29.2850 C.3     1  UNL1        0.0000
     22 C          -2.3528    6.4178   28.1018 C.3     1  UNL1        0.0000
     23 C          -1.9273    5.3989   27.0865 C.3     1  UNL1        0.0000
     24 C          -0.6269    4.6705   27.2544 C.3     1  UNL1        0.0014
     25 C           4.2668   -4.0839   19.2408 C.3     1  UNL1        0.4188
     26 F           4.6759   -5.1278   18.2444 F       1  UNL1       -0.1659
     27 F           5.7092   -3.7561   19.4895 F       1  UNL1       -0.1659
     28 F           2.8244   -4.4117   18.9920 F       1  UNL1       -0.1659
     29 N           1.5222    0.1623   20.4395 N.pl3   1  UNL1        0.0814
     30 O           2.0326    1.4422   19.8467 O.2     1  UNL1        0.0415
     31 O           0.0487   -0.0385   20.6353 O.co2   1  UNL1       -0.5760
@<TRIPOS>UNITY_ATOM_ATTR
29 1
charge 1
31 1
charge -1
@<TRIPOS>BOND
     1     1     2    2
     2     2     3   ar
     3     3     4   ar
     4     4    12    1
     5    12    13    1
     6    13    14    1
     7    14    15    1
     8    15    18    1
     9    18    19    1
    10    19    20    1
    11    20    21    1
    12    21    22    1
    13    22    23    1
    14    23    24    1
    15    15    16    1
    16    16    17    1
    17     4     5   ar
    18     5     6   ar
    19     6     7   ar
    20     7    29    1
    21    29    30    2
    22    29    31    1
    23     7     8   ar
    24     8     9   ar
    25     9    25    1
    26    25    26    1
    27    25    27    1
    28    25    28    1
    29     9    10   ar
    30    10    11   ar
    31    11     2   ar
    32    17    12    1
    33    11     6   ar
    34    24    19    1
@<TRIPOS>MOLECULE
*****
 31 34 0 0 0
SMALL
GASTEIGER

@<TRIPOS>ATOM
      1 O           2.3916   -0.2328   23.9203 O.2     1  UNL1       -0.2651
      2 C           3.5988   -1.0708   24.2209 C.ar    1  UNL1        0.2814
      3 N           4.0556   -1.2466   25.6387 N.ar    1  UNL1       -0.1866
      4 C           5.2628   -2.0847   25.9393 C.ar    1  UNL1        0.1665
      5 S           6.0131   -2.7469   24.8220 S.2     1  UNL1       -0.0466
      6 C           5.5563   -2.5711   23.4042 C.ar    1  UNL1        0.1059
      7 C           6.3066   -3.2334   22.2868 C.ar    1  UNL1        0.2960
      8 C           5.8498   -3.0576   20.8690 C.ar    1  UNL1        0.0797
      9 C           4.6426   -2.2196   20.5684 C.ar    1  UNL1        0.0777
     10 C           3.8922   -1.5573   21.6857 C.ar    1  UNL1        0.0096
     11 C           4.3491   -1.7331   23.1036 C.ar    1  UNL1        0.0699
     12 N           5.7197   -2.2604   27.3572 N.pl3   1  UNL1       -0.2852
     13 C           6.3602   -3.5476   27.7847 C.3     1  UNL1        0.1100
     14 C           6.8171   -3.7235   29.2025 C.3     1  UNL1        0.0939
     15 N           6.6334   -2.6120   30.1930 N.3     1  UNL1       -0.2698
     16 C           5.9928   -1.3248   29.7656 C.3     1  UNL1        0.0939
     17 C           5.5359   -1.1490   28.3476 C.3     1  UNL1        0.1100
     18 C           7.0902   -2.7878   31.6109 C.3     1  UNL1        0.0721
     19 C           6.3844   -2.0672   32.7211 C.3     1  UNL1        0.0160
     20 C           7.0799   -0.9621   33.4593 C.3     1  UNL1        0.0014
     21 C           6.3741   -0.2415   34.5695 C.3     1  UNL1        0.0000
     22 C           4.9728   -0.6260   34.9415 C.3     1  UNL1        0.0000
     23 C           4.2773   -1.7311   34.2033 C.3     1  UNL1        0.0000
     24 C           4.9831   -2.4517   33.0931 C.3     1  UNL1        0.0014
     25 C           4.1857   -2.0438   19.1505 C.3     1  UNL1        0.4188
     26 F           3.7289   -1.8681   17.7326 F       1  UNL1       -0.1659
     27 F           5.6089   -1.8564   18.7152 F       1  UNL1       -0.1659
     28 F           2.7626   -2.2312   19.5857 F       1  UNL1       -0.1659
     29 N           7.5138   -4.0715   22.5874 N.pl3   1  UNL1        0.0814
     30 O           7.3479   -5.5003   23.0129 O.2     1  UNL1        0.0415
     31 O           8.8869   -3.4808   22.4625 O.co2   1  UNL1       -0.5760
@<TRIPOS>UNITY_ATOM_ATTR
29 1
charge 1
31 1
charge -1
@<TRIPOS>BOND
     1     1     2    2
     2     2     3   ar
     3     3     4   ar
     4     4    12    1
     5    12    13    1
     6    13    14    1
     7    14    15    1
     8    15    18    1
     9    18    19    1
    10    19    20    1
    11    20    21    1
    12    21    22    1
    13    22    23    1
    14    23    24    1
    15    15    16    1
    16    16    17    1
    17     4     5   ar
    18     5     6   ar
    19     6     7   ar
    20     7    29    1
    21    29    30    2
    22    29    31    1
    23     7     8   ar
    24     8     9   ar
    25     9    25    1
    26    25    26    1
    27    25    27    1
    28    25    28    1
    29     9    10   ar
    30    10    11   ar
    31    11     2   ar
    32    17    12    1
    33    11     6   ar
    34    24    19    1
@<TRIPOS>MOLECULE
*****
 31 34 0 0 0
SMALL
GASTEIGER

@<TRIPOS>ATOM
      1 O           4.7548   -4.2206   20.0354 O.2     1  UNL1       -0.2651
      2 C           4.7168   -3.4324   21.3110 C.ar    1  UNL1        0.2814
      3 N           5.4832   -3.9078   22.5095 N.ar    1  UNL1       -0.1866
      4 C           5.4451   -3.1197   23.7852 C.ar    1  UNL1        0.1665
      5 S           4.6406   -1.8561   23.8624 S.2     1  UNL1       -0.0466
      6 C           3.8742   -1.3806   22.6639 C.ar    1  UNL1        0.1059
      7 C           3.0696   -0.1170   22.7410 C.ar    1  UNL1        0.2960
      8 C           2.3031    0.3585   21.5425 C.ar    1  UNL1        0.0797
      9 C           2.3412   -0.4297   20.2668 C.ar    1  UNL1        0.0777
     10 C           3.1457   -1.6933   20.1896 C.ar    1  UNL1        0.0096
     11 C           3.9122   -2.1688   21.3882 C.ar    1  UNL1        0.0699
     12 N           6.2116   -3.5952   24.9838 N.pl3   1  UNL1       -0.2852
     13 C           6.9689   -4.8886   24.9249 C.3     1  UNL1        0.1100
     14 C           7.7354   -5.3641   26.1234 C.3     1  UNL1        0.0939
     15 N           7.7446   -4.5462   27.3808 N.3     1  UNL1       -0.2698
     16 C           6.9873   -3.2527   27.4396 C.3     1  UNL1        0.0939
     17 C           6.2208   -2.7772   26.2411 C.3     1  UNL1        0.1100
     18 C           8.5111   -5.0217   28.5793 C.3     1  UNL1        0.0721
     19 C           8.4346   -4.2598   29.8691 C.3     1  UNL1        0.0160
     20 C           7.2571   -4.4434   30.7800 C.3     1  UNL1        0.0014
     21 C           7.1807   -3.6815   32.0698 C.3     1  UNL1        0.0000
     22 C           8.2818   -2.7361   32.4488 C.3     1  UNL1        0.0000
     23 C           9.4594   -2.5526   31.5380 C.3     1  UNL1        0.0000
     24 C           9.5358   -3.3144   30.2481 C.3     1  UNL1        0.0014
     25 C           1.5747    0.0458   19.0682 C.3     1  UNL1        0.4188
     26 F           0.8083    0.5213   17.8697 F       1  UNL1       -0.1659
     27 F           2.8434    0.0751   18.2685 F       1  UNL1       -0.1659
     28 F           0.3060    0.0166   19.8679 F       1  UNL1       -0.1659
     29 N           3.0315    0.6712   24.0166 N.pl3   1  UNL1        0.0814
     30 O           4.0805    1.7083   24.2891 O.2     1  UNL1        0.0415
     31 O           1.9445    0.4223   25.0199 O.co2   1  UNL1       -0.5760
@<TRIPOS>UNITY_ATOM_ATTR
29 1
charge 1
31 1
charge -1
@<TRIPOS>BOND
     1     1     2    2
     2     2     3   ar
     3     3     4   ar
     4     4    12    1
     5    12    13    1
     6    13    14    1
     7    14    15    1
     8    15    18    1
     9    18    19    1
    10    19    20    1
    11    20    21    1
    12    21    22    1
    13    22    23    1
    14    23    24    1
    15    15    16    1
    16    16    17    1
    17     4     5   ar
    18     5     6   ar
    19     6     7   ar
    20     7    29    1
    21    29    30    2
    22    29    31    1
    23     7     8   ar
    24     8     9   ar
    25     9    25    1
    26    25    26    1
    27    25    27    1
    28    25    28    1
    29     9    10   ar
    30    10    11   ar
    31    11     2   ar
    32    17    12    1
    33    11     6   ar
    34    24    19    1
