@<TRIPOS>MOLECULE
*****
 24 25 0 0 0
SMALL
GASTEIGER

@<TRIPOS>ATOM
      1 C          -8.7411  -19.1820   20.6699 C.ar    1  UNL1       -0.0178
      2 C         -10.0573  -19.5797   20.0705 C.ar    1  UNL1       -0.0040
      3 C         -11.3298  -19.3363   20.8264 C.ar    1  UNL1        0.0028
      4 C         -11.2861  -18.6952   22.1818 C.ar    1  UNL1        0.0369
      5 C          -9.9699  -18.2975   22.7812 C.ar    1  UNL1        0.1387
      6 C          -8.6974  -18.5409   22.0252 C.ar    1  UNL1        0.0327
      7 C          -7.4685  -19.4254   19.9140 C.3     1  UNL1        0.0435
      8 C          -6.1895  -19.6712   20.6580 C.3     1  UNL1        0.0737
      9 N          -4.9433  -18.9308   20.2722 N.3     1  UNL1       -0.2895
     10 H          -5.2061  -18.2753   19.5363 H       1  UNL1        0.1237
     11 C          -3.7468  -19.6854   19.7729 C.3     1  UNL1        0.1552
     12 C          -0.2282  -17.8799   20.1044 C.3     1  UNL1        0.1149
     13 N          -1.5987  -18.2334   19.6076 N.am    1  UNL1       -0.2749
     14 C          -2.1917  -17.4882   18.4486 C.3     1  UNL1        0.1149
     15 C          -2.3763  -19.3319   20.2697 C.2     1  UNL1        0.2419
     16 O          -1.7834  -20.0771   21.4288 O.2     1  UNL1       -0.2734
     17 O          -9.9261  -17.6563   24.1366 O.3     1  UNL1       -0.4707
     18 C          -9.4785  -16.2317   24.2783 C.3     1  UNL1        0.2320
     19 C          -8.1562  -15.9208   24.9148 C.ar    1  UNL1        0.0212
     20 C          -8.0546  -15.7856   26.4052 C.ar    1  UNL1       -0.0007
     21 C          -6.7324  -15.4746   27.0415 C.ar    1  UNL1       -0.0002
     22 C          -5.5118  -15.2989   26.1875 C.ar    1  UNL1       -0.0000
     23 C          -5.6135  -15.4341   24.6971 C.ar    1  UNL1       -0.0002
     24 C          -6.9357  -15.7451   24.0607 C.ar    1  UNL1       -0.0007
@<TRIPOS>BOND
     1    12    13    1
     2    13    14    1
     3    13    15   am
     4    15    16    2
     5    15    11    1
     6    11     9    1
     7     9     8    1
     8     8     7    1
     9     7     1    1
    10     1     2   ar
    11     2     3   ar
    12     3     4   ar
    13     4     5   ar
    14     5    17    1
    15    17    18    1
    16    18    19    1
    17    19    20   ar
    18    20    21   ar
    19    21    22   ar
    20    22    23   ar
    21    23    24   ar
    22     5     6   ar
    23     6     1   ar
    24    24    19   ar
    25     9    10    1
@<TRIPOS>MOLECULE
*****
 24 25 0 0 0
SMALL
GASTEIGER

@<TRIPOS>ATOM
      1 C          -9.6711  -19.7603   22.5771 C.ar    1  UNL1       -0.0178
      2 C         -10.8487  -19.7995   21.6488 C.ar    1  UNL1       -0.0040
      3 C         -10.6432  -19.6538   20.1701 C.ar    1  UNL1        0.0028
      4 C          -9.2601  -19.4689   19.6197 C.ar    1  UNL1        0.0369
      5 C          -8.0826  -19.4296   20.5480 C.ar    1  UNL1        0.1387
      6 C          -8.2881  -19.5753   22.0267 C.ar    1  UNL1        0.0327
      7 C          -9.8766  -19.9060   24.0558 C.3     1  UNL1        0.0435
      8 C          -9.9126  -18.6887   24.9316 C.3     1  UNL1        0.0737
      9 N          -9.1597  -17.4546   24.5316 N.3     1  UNL1       -0.2895
     10 H          -8.7284  -17.0852   25.3790 H       1  UNL1        0.1237
     11 C          -9.8828  -16.3128   23.8807 C.3     1  UNL1        0.1552
     12 C         -11.2464  -16.0439   20.1634 C.3     1  UNL1        0.1149
     13 N         -11.2204  -16.1603   21.6587 N.am    1  UNL1       -0.2749
     14 C         -12.5062  -16.2405   22.4272 C.3     1  UNL1        0.1149
     15 C          -9.9088  -16.1964   22.3855 C.2     1  UNL1        0.2419
     16 O          -8.6230  -16.1162   21.6170 O.2     1  UNL1       -0.2734
     17 O          -6.6995  -19.2446   19.9977 O.3     1  UNL1       -0.4707
     18 C          -5.5613  -20.0566   20.5410 C.3     1  UNL1        0.2320
     19 C          -4.1804  -19.4729   20.5910 C.ar    1  UNL1        0.0212
     20 C          -3.4601  -19.3619   21.9020 C.ar    1  UNL1       -0.0007
     21 C          -2.0792  -18.7783   21.9520 C.ar    1  UNL1       -0.0002
     22 C          -1.4186  -18.3057   20.6909 C.ar    1  UNL1       -0.0000
     23 C          -2.1389  -18.4167   19.3799 C.ar    1  UNL1       -0.0002
     24 C          -3.5198  -19.0003   19.3299 C.ar    1  UNL1       -0.0007
@<TRIPOS>BOND
     1    12    13    1
     2    13    14    1
     3    13    15   am
     4    15    16    2
     5    15    11    1
     6    11     9    1
     7     9     8    1
     8     8     7    1
     9     7     1    1
    10     1     2   ar
    11     2     3   ar
    12     3     4   ar
    13     4     5   ar
    14     5    17    1
    15    17    18    1
    16    18    19    1
    17    19    20   ar
    18    20    21   ar
    19    21    22   ar
    20    22    23   ar
    21    23    24   ar
    22     5     6   ar
    23     6     1   ar
    24    24    19   ar
    25     9    10    1
@<TRIPOS>MOLECULE
*****
 24 25 0 0 0
SMALL
GASTEIGER

@<TRIPOS>ATOM
      1 C          -8.1006  -16.1096   24.8129 C.ar    1  UNL1       -0.0178
      2 C          -7.8169  -15.5980   26.1941 C.ar    1  UNL1       -0.0040
      3 C          -6.4066  -15.2987   26.6080 C.ar    1  UNL1        0.0028
      4 C          -5.2799  -15.5111   25.6408 C.ar    1  UNL1        0.0369
      5 C          -5.5637  -16.0227   24.2596 C.ar    1  UNL1        0.1387
      6 C          -6.9740  -16.3220   23.8457 C.ar    1  UNL1        0.0327
      7 C          -9.5110  -16.4088   24.3989 C.3     1  UNL1        0.0435
      8 C          -9.8932  -17.8003   23.9894 C.3     1  UNL1        0.0737
      9 N         -11.2934  -18.2899   24.2128 N.3     1  UNL1       -0.2895
     10 H         -11.2278  -19.2877   24.4140 H       1  UNL1        0.1237
     11 C         -12.3240  -18.1325   23.1343 C.3     1  UNL1        0.1552
     12 C         -11.5596  -16.0739   19.8285 C.3     1  UNL1        0.1149
     13 N         -11.6560  -17.2152   20.7971 N.am    1  UNL1       -0.2749
     14 C         -11.1806  -18.5806   20.3971 C.3     1  UNL1        0.1149
     15 C         -12.2276  -16.9912   22.1657 C.2     1  UNL1        0.2419
     16 O         -12.7030  -15.6258   22.5657 O.2     1  UNL1       -0.2734
     17 O          -4.4370  -16.2351   23.2923 O.3     1  UNL1       -0.4707
     18 C          -3.7179  -17.5510   23.2557 C.3     1  UNL1        0.2320
     19 C          -4.1046  -18.5892   22.2444 C.ar    1  UNL1        0.0212
     20 C          -3.0860  -19.1040   21.2710 C.ar    1  UNL1       -0.0007
     21 C          -3.4728  -20.1421   20.2597 C.ar    1  UNL1       -0.0002
     22 C          -4.8780  -20.6653   20.2218 C.ar    1  UNL1       -0.0000
     23 C          -5.8966  -20.1505   21.1951 C.ar    1  UNL1       -0.0002
     24 C          -5.5099  -19.1124   22.2064 C.ar    1  UNL1       -0.0007
@<TRIPOS>BOND
     1    12    13    1
     2    13    14    1
     3    13    15   am
     4    15    16    2
     5    15    11    1
     6    11     9    1
     7     9     8    1
     8     8     7    1
     9     7     1    1
    10     1     2   ar
    11     2     3   ar
    12     3     4   ar
    13     4     5   ar
    14     5    17    1
    15    17    18    1
    16    18    19    1
    17    19    20   ar
    18    20    21   ar
    19    21    22   ar
    20    22    23   ar
    21    23    24   ar
    22     5     6   ar
    23     6     1   ar
    24    24    19   ar
    25     9    10    1
@<TRIPOS>MOLECULE
*****
 24 25 0 0 0
SMALL
GASTEIGER

@<TRIPOS>ATOM
      1 C          -7.4602  -15.8511   24.9977 C.ar    1  UNL1       -0.0178
      2 C          -7.3576  -15.5481   26.4632 C.ar    1  UNL1       -0.0040
      3 C          -8.2305  -16.2757   27.4424 C.ar    1  UNL1        0.0028
      4 C          -9.2059  -17.3062   26.9561 C.ar    1  UNL1        0.0369
      5 C          -9.3085  -17.6091   25.4906 C.ar    1  UNL1        0.1387
      6 C          -8.4357  -16.8816   24.5115 C.ar    1  UNL1        0.0327
      7 C          -6.5874  -15.1235   24.0186 C.3     1  UNL1        0.0435
      8 C          -5.1856  -15.5952   23.7687 C.3     1  UNL1        0.0737
      9 N          -4.9467  -16.9241   23.1154 N.3     1  UNL1       -0.2895
     10 H          -5.6930  -17.5448   23.4289 H       1  UNL1        0.1237
     11 C          -3.6545  -17.6507   23.3441 C.3     1  UNL1        0.1552
     12 C          -1.3959  -18.3510   20.1569 C.3     1  UNL1        0.1149
     13 N          -2.0620  -17.6305   21.2914 N.am    1  UNL1       -0.2749
     14 C          -1.8019  -16.1690   21.5076 C.3     1  UNL1        0.1149
     15 C          -2.9883  -18.3713   22.2096 C.2     1  UNL1        0.2419
     16 O          -3.2484  -19.8327   21.9934 O.2     1  UNL1       -0.2734
     17 O         -10.2840  -18.6397   25.0043 O.3     1  UNL1       -0.4707
     18 C         -11.4121  -18.2374   24.1012 C.3     1  UNL1        0.2320
     19 C         -11.2622  -18.3596   22.6137 C.ar    1  UNL1        0.0212
     20 C         -11.4897  -17.1645   21.7363 C.ar    1  UNL1       -0.0007
     21 C         -11.3399  -17.2868   20.2488 C.ar    1  UNL1       -0.0002
     22 C         -10.9625  -18.6042   19.6388 C.ar    1  UNL1       -0.0000
     23 C         -10.7349  -19.7993   20.5163 C.ar    1  UNL1       -0.0002
     24 C         -10.8848  -19.6770   22.0037 C.ar    1  UNL1       -0.0007
@<TRIPOS>BOND
     1    12    13    1
     2    13    14    1
     3    13    15   am
     4    15    16    2
     5    15    11    1
     6    11     9    1
     7     9     8    1
     8     8     7    1
     9     7     1    1
    10     1     2   ar
    11     2     3   ar
    12     3     4   ar
    13     4     5   ar
    14     5    17    1
    15    17    18    1
    16    18    19    1
    17    19    20   ar
    18    20    21   ar
    19    21    22   ar
    20    22    23   ar
    21    23    24   ar
    22     5     6   ar
    23     6     1   ar
    24    24    19   ar
    25     9    10    1
@<TRIPOS>MOLECULE
*****
 24 25 0 0 0
SMALL
GASTEIGER

@<TRIPOS>ATOM
      1 C          -8.2162  -16.1821   24.7823 C.ar    1  UNL1       -0.0178
      2 C          -8.0393  -15.6926   26.1890 C.ar    1  UNL1       -0.0040
      3 C          -6.6817  -15.2778   26.6737 C.ar    1  UNL1        0.0028
      4 C          -5.5010  -15.3526   25.7516 C.ar    1  UNL1        0.0369
      5 C          -5.6778  -15.8421   24.3449 C.ar    1  UNL1        0.1387
      6 C          -7.0354  -16.2569   23.8602 C.ar    1  UNL1        0.0327
      7 C          -9.5737  -16.5968   24.2976 C.3     1  UNL1        0.0435
      8 C          -9.9508  -18.0485   24.2747 C.3     1  UNL1        0.0737
      9 N         -11.2408  -18.4784   23.6415 N.3     1  UNL1       -0.2895
     10 H         -11.5890  -19.2661   24.1881 H       1  UNL1        0.1237
     11 C         -11.2650  -18.9049   22.2035 C.3     1  UNL1        0.1552
     12 C         -11.1731  -15.8523   19.6692 C.3     1  UNL1        0.1149
     13 N         -11.6438  -16.7930   20.7385 N.am    1  UNL1       -0.2749
     14 C         -12.9642  -16.5626   21.4121 C.3     1  UNL1        0.1149
     15 C         -10.7942  -17.9641   21.1342 C.2     1  UNL1        0.2419
     16 O          -9.4739  -18.1946   20.4607 O.2     1  UNL1       -0.2734
     17 O          -4.4971  -15.9169   23.4227 O.3     1  UNL1       -0.4707
     18 C          -3.6120  -17.1278   23.4342 C.3     1  UNL1        0.2320
     19 C          -2.7634  -17.4480   22.2394 C.ar    1  UNL1        0.0212
     20 C          -2.7549  -18.8382   21.6763 C.ar    1  UNL1       -0.0007
     21 C          -1.9063  -19.1583   20.4816 C.ar    1  UNL1       -0.0002
     22 C          -1.0662  -18.0881   19.8500 C.ar    1  UNL1       -0.0000
     23 C          -1.0747  -16.6979   20.4131 C.ar    1  UNL1       -0.0002
     24 C          -1.9233  -16.3778   21.6078 C.ar    1  UNL1       -0.0007
@<TRIPOS>BOND
     1    12    13    1
     2    13    14    1
     3    13    15   am
     4    15    16    2
     5    15    11    1
     6    11     9    1
     7     9     8    1
     8     8     7    1
     9     7     1    1
    10     1     2   ar
    11     2     3   ar
    12     3     4   ar
    13     4     5   ar
    14     5    17    1
    15    17    18    1
    16    18    19    1
    17    19    20   ar
    18    20    21   ar
    19    21    22   ar
    20    22    23   ar
    21    23    24   ar
    22     5     6   ar
    23     6     1   ar
    24    24    19   ar
    25     9    10    1
@<TRIPOS>MOLECULE
*****
 24 25 0 0 0
SMALL
GASTEIGER

@<TRIPOS>ATOM
      1 C          -9.5253  -17.6289   22.4926 C.ar    1  UNL1       -0.0178
      2 C         -10.5909  -18.2227   23.3654 C.ar    1  UNL1       -0.0040
      3 C         -10.4304  -19.6133   23.9043 C.ar    1  UNL1        0.0028
      4 C          -9.2043  -20.4102   23.5703 C.ar    1  UNL1        0.0369
      5 C          -8.1387  -19.8164   22.6975 C.ar    1  UNL1        0.1387
      6 C          -8.2992  -18.4258   22.1586 C.ar    1  UNL1        0.0327
      7 C          -9.6858  -16.2383   21.9538 C.3     1  UNL1        0.0435
      8 C          -8.4831  -15.3601   21.7740 C.3     1  UNL1        0.0737
      9 N          -7.8041  -14.7639   22.9713 N.3     1  UNL1       -0.2895
     10 H          -7.4250  -13.8639   22.6770 H       1  UNL1        0.1237
     11 C          -6.6876  -15.5042   23.6463 C.3     1  UNL1        0.1552
     12 C          -6.9752  -15.3600   27.6019 C.3     1  UNL1        0.1149
     13 N          -7.3038  -15.6450   26.1664 N.am    1  UNL1       -0.2749
     14 C          -8.5772  -16.3558   25.8153 C.3     1  UNL1        0.1149
     15 C          -6.3590  -15.2192   25.0819 C.2     1  UNL1        0.2419
     16 O          -5.0856  -14.5085   25.4330 O.2     1  UNL1       -0.2734
     17 O          -6.9125  -20.6133   22.3634 O.3     1  UNL1       -0.4707
     18 C          -6.1732  -20.3515   21.0848 C.3     1  UNL1        0.2320
     19 C          -4.8678  -19.6131   21.1109 C.ar    1  UNL1        0.0212
     20 C          -4.1100  -19.3842   19.8368 C.ar    1  UNL1       -0.0007
     21 C          -2.8046  -18.6458   19.8630 C.ar    1  UNL1       -0.0002
     22 C          -2.2570  -18.1364   21.1632 C.ar    1  UNL1       -0.0000
     23 C          -3.0148  -18.3653   22.4372 C.ar    1  UNL1       -0.0002
     24 C          -4.3201  -19.1036   22.4111 C.ar    1  UNL1       -0.0007
@<TRIPOS>BOND
     1    12    13    1
     2    13    14    1
     3    13    15   am
     4    15    16    2
     5    15    11    1
     6    11     9    1
     7     9     8    1
     8     8     7    1
     9     7     1    1
    10     1     2   ar
    11     2     3   ar
    12     3     4   ar
    13     4     5   ar
    14     5    17    1
    15    17    18    1
    16    18    19    1
    17    19    20   ar
    18    20    21   ar
    19    21    22   ar
    20    22    23   ar
    21    23    24   ar
    22     5     6   ar
    23     6     1   ar
    24    24    19   ar
    25     9    10    1
@<TRIPOS>MOLECULE
*****
 24 25 0 0 0
SMALL
GASTEIGER

@<TRIPOS>ATOM
      1 C          -9.1984  -17.6111   23.2391 C.ar    1  UNL1       -0.0178
      2 C          -9.3563  -18.9736   23.8463 C.ar    1  UNL1       -0.0040
      3 C          -8.5396  -20.1225   23.3335 C.ar    1  UNL1        0.0028
      4 C          -7.5649  -19.9090   22.2136 C.ar    1  UNL1        0.0369
      5 C          -7.4069  -18.5466   21.6064 C.ar    1  UNL1        0.1387
      6 C          -8.2236  -17.3976   22.1191 C.ar    1  UNL1        0.0327
      7 C         -10.0151  -16.4622   23.7518 C.3     1  UNL1        0.0435
      8 C         -11.2967  -16.0888   23.0678 C.3     1  UNL1        0.0737
      9 N         -12.2980  -17.1500   22.7199 N.3     1  UNL1       -0.2895
     10 H         -11.9653  -18.0179   23.1400 H       1  UNL1        0.1237
     11 C         -12.6009  -17.4531   21.2824 C.3     1  UNL1        0.1552
     12 C          -9.7265  -19.3063   19.2691 C.3     1  UNL1        0.1149
     13 N         -10.8467  -19.0582   20.2354 N.am    1  UNL1       -0.2749
     14 C         -11.3326  -20.1670   21.1211 C.3     1  UNL1        0.1149
     15 C         -11.4808  -17.7012   20.3161 C.2     1  UNL1        0.2419
     16 O         -10.9948  -16.5923   19.4304 O.2     1  UNL1       -0.2734
     17 O          -6.4322  -18.3330   20.4864 O.3     1  UNL1       -0.4707
     18 C          -5.3565  -19.3452   20.2250 C.3     1  UNL1        0.2320
     19 C          -3.9133  -18.9463   20.3152 C.ar    1  UNL1        0.0212
     20 C          -3.2162  -18.3767   19.1154 C.ar    1  UNL1       -0.0007
     21 C          -1.7731  -17.9778   19.2056 C.ar    1  UNL1       -0.0002
     22 C          -1.0270  -18.1485   20.4957 C.ar    1  UNL1       -0.0000
     23 C          -1.7241  -18.7180   21.6955 C.ar    1  UNL1       -0.0002
     24 C          -3.1672  -19.1169   21.6053 C.ar    1  UNL1       -0.0007
@<TRIPOS>BOND
     1    12    13    1
     2    13    14    1
     3    13    15   am
     4    15    16    2
     5    15    11    1
     6    11     9    1
     7     9     8    1
     8     8     7    1
     9     7     1    1
    10     1     2   ar
    11     2     3   ar
    12     3     4   ar
    13     4     5   ar
    14     5    17    1
    15    17    18    1
    16    18    19    1
    17    19    20   ar
    18    20    21   ar
    19    21    22   ar
    20    22    23   ar
    21    23    24   ar
    22     5     6   ar
    23     6     1   ar
    24    24    19   ar
    25     9    10    1
@<TRIPOS>MOLECULE
*****
 24 25 0 0 0
SMALL
GASTEIGER

@<TRIPOS>ATOM
      1 C          -6.1559  -15.7685   24.9742 C.ar    1  UNL1       -0.0178
      2 C          -6.2304  -15.4516   26.4384 C.ar    1  UNL1       -0.0040
      3 C          -7.5380  -15.5645   27.1646 C.ar    1  UNL1        0.0028
      4 C          -8.7711  -15.9943   26.4267 C.ar    1  UNL1        0.0369
      5 C          -8.6966  -16.3112   24.9624 C.ar    1  UNL1        0.1387
      6 C          -7.3890  -16.1983   24.2362 C.ar    1  UNL1        0.0327
      7 C          -4.8483  -15.6555   24.2480 C.3     1  UNL1        0.0435
      8 C          -4.1524  -16.8914   23.7597 C.3     1  UNL1        0.0737
      9 N          -3.6502  -16.9612   22.3480 N.3     1  UNL1       -0.2895
     10 H          -4.4340  -16.7138   21.7441 H       1  UNL1        0.1237
     11 C          -3.0820  -18.2437   21.8166 C.3     1  UNL1        0.1552
     12 C          -1.6027  -17.8768   18.1524 C.3     1  UNL1        0.1149
     13 N          -1.7918  -17.6954   19.6293 N.am    1  UNL1       -0.2749
     14 C          -0.8796  -16.7840   20.3958 C.3     1  UNL1        0.1149
     15 C          -2.8930  -18.4252   20.3397 C.2     1  UNL1        0.2419
     16 O          -3.8051  -19.3366   19.5732 O.2     1  UNL1       -0.2734
     17 O          -9.9298  -16.7410   24.2244 O.3     1  UNL1       -0.4707
     18 C         -10.0969  -16.3910   22.7754 C.3     1  UNL1        0.2320
     19 C          -9.8974  -17.4406   21.7224 C.ar    1  UNL1        0.0212
     20 C          -8.6284  -18.2396   21.6908 C.ar    1  UNL1       -0.0007
     21 C          -8.4290  -19.2891   20.6378 C.ar    1  UNL1       -0.0002
     22 C          -9.4987  -19.5396   19.6166 C.ar    1  UNL1       -0.0000
     23 C         -10.7678  -18.7406   19.6482 C.ar    1  UNL1       -0.0002
     24 C         -10.9671  -17.6911   20.7012 C.ar    1  UNL1       -0.0007
@<TRIPOS>BOND
     1    12    13    1
     2    13    14    1
     3    13    15   am
     4    15    16    2
     5    15    11    1
     6    11     9    1
     7     9     8    1
     8     8     7    1
     9     7     1    1
    10     1     2   ar
    11     2     3   ar
    12     3     4   ar
    13     4     5   ar
    14     5    17    1
    15    17    18    1
    16    18    19    1
    17    19    20   ar
    18    20    21   ar
    19    21    22   ar
    20    22    23   ar
    21    23    24   ar
    22     5     6   ar
    23     6     1   ar
    24    24    19   ar
    25     9    10    1
@<TRIPOS>MOLECULE
*****
 24 25 0 0 0
SMALL
GASTEIGER

@<TRIPOS>ATOM
      1 C          -9.0111  -19.2127   20.2686 C.ar    1  UNL1       -0.0178
      2 C         -10.4179  -19.6394   19.9705 C.ar    1  UNL1       -0.0040
      3 C         -11.5644  -19.0068   20.7022 C.ar    1  UNL1        0.0028
      4 C         -11.3042  -17.9476   21.7318 C.ar    1  UNL1        0.0369
      5 C          -9.8974  -17.5209   22.0298 C.ar    1  UNL1        0.1387
      6 C          -8.7509  -18.1535   21.2982 C.ar    1  UNL1        0.0327
      7 C          -7.8646  -19.8453   19.5369 C.3     1  UNL1        0.0435
      8 C          -6.9109  -20.7420   20.2692 C.3     1  UNL1        0.0737
      9 N          -5.4369  -20.4679   20.2215 N.3     1  UNL1       -0.2895
     10 H          -4.9780  -21.2402   20.7047 H       1  UNL1        0.1237
     11 C          -4.8900  -19.2018   20.8115 C.3     1  UNL1        0.1552
     12 C          -1.7888  -18.1822   23.0683 C.3     1  UNL1        0.1149
     13 N          -3.1686  -18.2007   22.4802 N.am    1  UNL1       -0.2749
     14 C          -4.2069  -17.2366   22.9728 C.3     1  UNL1        0.1149
     15 C          -3.5102  -19.1833   21.3996 C.2     1  UNL1        0.2419
     16 O          -2.4720  -20.1475   20.9070 O.2     1  UNL1       -0.2734
     17 O          -9.6372  -16.4616   23.0595 O.3     1  UNL1       -0.4707
     18 C          -8.2462  -15.9381   23.2619 C.3     1  UNL1        0.2320
     19 C          -7.7103  -15.7497   24.6503 C.ar    1  UNL1        0.0212
     20 C          -6.3082  -15.2566   24.8526 C.ar    1  UNL1       -0.0007
     21 C          -5.7725  -15.0682   26.2409 C.ar    1  UNL1       -0.0002
     22 C          -6.6388  -15.3729   27.4269 C.ar    1  UNL1       -0.0000
     23 C          -8.0409  -15.8659   27.2246 C.ar    1  UNL1       -0.0002
     24 C          -8.5767  -16.0543   25.8363 C.ar    1  UNL1       -0.0007
@<TRIPOS>BOND
     1    12    13    1
     2    13    14    1
     3    13    15   am
     4    15    16    2
     5    15    11    1
     6    11     9    1
     7     9     8    1
     8     8     7    1
     9     7     1    1
    10     1     2   ar
    11     2     3   ar
    12     3     4   ar
    13     4     5   ar
    14     5    17    1
    15    17    18    1
    16    18    19    1
    17    19    20   ar
    18    20    21   ar
    19    21    22   ar
    20    22    23   ar
    21    23    24   ar
    22     5     6   ar
    23     6     1   ar
    24    24    19   ar
    25     9    10    1
