@<TRIPOS>MOLECULE
*****
 39 42 0 0 0
SMALL
GASTEIGER

@<TRIPOS>ATOM
      1 C           3.5114   -0.9035   27.2205 C.3     1  UNL1        0.1204
      2 N           3.6098   -1.7150   25.9628 N.am    1  UNL1       -0.2985
      3 C           4.6300   -1.3631   24.9211 C.2     1  UNL1        0.2469
      4 O           5.5520   -0.1997   25.1370 O.2     1  UNL1       -0.2701
      5 H           3.0047   -2.4785   25.8210 H       1  UNL1        0.1498
      6 C           4.7284   -2.1747   23.6634 C.2     1  UNL1        0.0665
      7 C           5.6874   -3.3255   23.5865 C.2     1  UNL1        0.0931
      8 N           5.7858   -4.1370   22.3288 N.am    1  UNL1       -0.1740
      9 C           4.9252   -3.7977   21.1480 C.2     1  UNL1        0.2687
     10 O           5.0236   -4.6092   19.8903 O.2     1  UNL1       -0.2680
     11 C           3.9662   -2.6468   21.2249 C.2     1  UNL1        0.0520
     12 C           3.1056   -2.3075   20.0441 C.2     1  UNL1        0.0053
     13 C           2.1466   -1.1567   20.1211 C.2     1  UNL1        0.0144
     14 C           2.0482   -0.3452   21.3787 C.2     1  UNL1        0.0878
     15 C           2.9088   -0.6845   22.5595 C.3     1  UNL1        0.0716
     16 C           3.8678   -1.8353   22.4826 C.2     1  UNL1       -0.0063
     17 S           1.0892    0.8057   21.4556 S.O2    1  UNL1        0.0070
     18 C           0.1302    1.9564   21.5325 C.3     1  UNL1        0.1812
     19 O           0.1590    0.0930   20.5193 O.2     1  UNL1       -0.1689
     20 O           2.0194    1.5184   22.3919 O.2     1  UNL1       -0.1689
     21 C           2.8925    0.4625   27.1851 C.3     1  UNL1        0.1459
     22 O           3.6399    1.6089   26.5712 O.3     1  UNL1       -0.3813
     23 H           4.4999    1.2980   26.2476 H       1  UNL1        0.2105
     24 C           1.5261    0.6820   27.7638 C.3     1  UNL1        0.1034
     25 C          -1.2719    3.6504   25.8638 C.3     1  UNL1        0.1687
     26 C          -0.6192    3.9687   27.1763 C.3     1  UNL1        0.0609
     27 C           0.3135    2.9792   27.8097 C.3     1  UNL1        0.0759
     28 N           0.5935    1.6714   27.1305 N.3     1  UNL1       -0.2704
     29 C          -0.0592    1.3531   25.8180 C.3     1  UNL1        0.0759
     30 C          -0.9919    2.3425   25.1847 C.3     1  UNL1        0.0609
     31 O          -2.2045    4.6398   25.2305 O.3     1  UNL1       -0.4794
     32 C          -5.0072    3.5762   25.3484 C.3     1  UNL1        0.0342
     33 C          -4.3276    3.7541   24.0230 C.ar    1  UNL1        0.0129
     34 C          -5.0493    3.4001   22.7566 C.ar    1  UNL1        0.0101
     35 C          -4.3698    3.5780   21.4313 C.ar    1  UNL1        0.0576
     36 CL         -5.0916    3.2240   20.1649 Cl      1  UNL1       -0.0823
     37 C          -2.9685    4.1098   21.3724 C.ar    1  UNL1        0.0145
     38 C          -2.2467    4.4637   22.6388 C.ar    1  UNL1        0.0374
     39 C          -2.9263    4.2859   23.9641 C.ar    1  UNL1        0.1344
@<TRIPOS>BOND
     1    32    33    1
     2    33    34   ar
     3    34    35   ar
     4    35    36    1
     5    35    37   ar
     6    37    38   ar
     7    38    39   ar
     8    39    31    1
     9    31    25    1
    10    25    26    1
    11    26    27    1
    12    27    28    1
    13    28    24    1
    14    24    21    1
    15    21    22    1
    16    21     1    1
    17     1     2    1
    18     2     3   am
    19     3     4    2
    20     3     6    1
    21     6     7    1
    22     7     8    2
    23     8     9    1
    24     9    10    2
    25     9    11    1
    26    11    12    2
    27    12    13    1
    28    13    14    2
    29    14    17    1
    30    17    18    1
    31    17    19    2
    32    17    20    2
    33    14    15    1
    34    15    16    1
    35    28    29    1
    36    29    30    1
    37    39    33   ar
    38    30    25    1
    39    16     6    2
    40    16    11    1
    41    22    23    1
    42     2     5    1
@<TRIPOS>MOLECULE
*****
 39 42 0 0 0
SMALL
GASTEIGER

@<TRIPOS>ATOM
      1 C           3.5015   -0.9531   27.7626 C.3     1  UNL1        0.1204
      2 N           3.6757   -1.7638   26.5126 N.am    1  UNL1       -0.2985
      3 C           4.3641   -1.1665   25.3212 C.2     1  UNL1        0.2469
      4 O           4.8783    0.2415   25.3798 O.2     1  UNL1       -0.2701
      5 H           3.3383   -2.6878   26.4741 H       1  UNL1        0.1498
      6 C           4.5384   -1.9772   24.0712 C.2     1  UNL1        0.0665
      7 C           5.4938   -3.1334   24.0543 C.2     1  UNL1        0.0931
      8 N           5.6680   -3.9441   22.8043 N.am    1  UNL1       -0.1740
      9 C           4.8870   -3.5985   21.5713 C.2     1  UNL1        0.2687
     10 O           5.0613   -4.4092   20.3213 O.2     1  UNL1       -0.2680
     11 C           3.9316   -2.4422   21.5882 C.2     1  UNL1        0.0520
     12 C           3.1505   -2.0966   20.3551 C.2     1  UNL1        0.0053
     13 C           2.1952   -0.9403   20.3721 C.2     1  UNL1        0.0144
     14 C           2.0209   -0.1297   21.6220 C.2     1  UNL1        0.0878
     15 C           2.8019   -0.4753   22.8551 C.3     1  UNL1        0.0716
     16 C           3.7573   -1.6315   22.8382 C.2     1  UNL1       -0.0063
     17 S           1.0655    1.0266   21.6389 S.O2    1  UNL1        0.0070
     18 C           0.1101    2.1829   21.6558 C.3     1  UNL1        0.1812
     19 O           0.0801    0.2241   20.8421 O.2     1  UNL1       -0.1689
     20 O           2.0508    1.8292   22.4357 O.2     1  UNL1       -0.1689
     21 C           2.1709   -0.3357   28.0767 C.3     1  UNL1        0.1459
     22 O           1.4273    0.4227   27.0176 O.3     1  UNL1       -0.3813
     23 H           1.9419    0.4185   26.1953 H       1  UNL1        0.2105
     24 C           1.5841   -0.4768   29.4499 C.3     1  UNL1        0.1034
     25 C           3.7407    1.2423   33.0057 C.3     1  UNL1        0.1687
     26 C           2.8190    2.1068   32.1976 C.3     1  UNL1        0.0609
     27 C           2.1001    1.5338   31.0123 C.3     1  UNL1        0.0759
     28 N           2.3030    0.0962   30.6352 N.3     1  UNL1       -0.2704
     29 C           3.2247   -0.7683   31.4433 C.3     1  UNL1        0.0759
     30 C           3.9435   -0.1953   32.6285 C.3     1  UNL1        0.0609
     31 O           4.4595    1.8153   34.1910 O.3     1  UNL1       -0.4794
     32 C           4.8029   -0.2134   36.3743 C.3     1  UNL1        0.0342
     33 C           3.9096    0.9729   36.5864 C.ar    1  UNL1        0.0129
     34 C           3.1879    1.1447   37.8901 C.ar    1  UNL1        0.0101
     35 C           2.2946    2.3309   38.1022 C.ar    1  UNL1        0.0576
     36 CL          1.5730    2.5027   39.4059 Cl      1  UNL1       -0.0823
     37 C           2.1230    3.3451   37.0106 C.ar    1  UNL1        0.0145
     38 C           2.8446    3.1733   35.7068 C.ar    1  UNL1        0.0374
     39 C           3.7379    1.9871   35.4947 C.ar    1  UNL1        0.1344
@<TRIPOS>BOND
     1    32    33    1
     2    33    34   ar
     3    34    35   ar
     4    35    36    1
     5    35    37   ar
     6    37    38   ar
     7    38    39   ar
     8    39    31    1
     9    31    25    1
    10    25    26    1
    11    26    27    1
    12    27    28    1
    13    28    24    1
    14    24    21    1
    15    21    22    1
    16    21     1    1
    17     1     2    1
    18     2     3   am
    19     3     4    2
    20     3     6    1
    21     6     7    1
    22     7     8    2
    23     8     9    1
    24     9    10    2
    25     9    11    1
    26    11    12    2
    27    12    13    1
    28    13    14    2
    29    14    17    1
    30    17    18    1
    31    17    19    2
    32    17    20    2
    33    14    15    1
    34    15    16    1
    35    28    29    1
    36    29    30    1
    37    39    33   ar
    38    30    25    1
    39    16     6    2
    40    16    11    1
    41    22    23    1
    42     2     5    1
@<TRIPOS>MOLECULE
*****
 39 42 0 0 0
SMALL
GASTEIGER

@<TRIPOS>ATOM
      1 C           2.7558   -0.0060   28.2345 C.3     1  UNL1        0.1204
      2 N           3.1441   -0.9372   27.1245 N.am    1  UNL1       -0.2985
      3 C           3.8231   -0.4014   25.8990 C.2     1  UNL1        0.2469
      4 O           4.1138    1.0656   25.7834 O.2     1  UNL1       -0.2701
      5 H           2.9533   -1.9001   27.2004 H       1  UNL1        0.1498
      6 C           4.2114   -1.3327   24.7890 C.2     1  UNL1        0.0665
      7 C           5.2198   -2.4151   25.0364 C.2     1  UNL1        0.0931
      8 N           5.6081   -3.3464   23.9265 N.am    1  UNL1       -0.1740
      9 C           4.9880   -3.1951   22.5691 C.2     1  UNL1        0.2687
     10 O           5.3763   -4.1263   21.4591 O.2     1  UNL1       -0.2680
     11 C           3.9795   -2.1126   22.3216 C.2     1  UNL1        0.0520
     12 C           3.3594   -1.9613   20.9642 C.2     1  UNL1        0.0053
     13 C           2.3510   -0.8788   20.7168 C.2     1  UNL1        0.0144
     14 C           1.9627    0.0524   21.8268 C.2     1  UNL1        0.0878
     15 C           2.5828   -0.0989   23.1842 C.3     1  UNL1        0.0716
     16 C           3.5912   -1.1814   23.4316 C.2     1  UNL1       -0.0063
     17 S           0.9542    1.1349   21.5793 S.O2    1  UNL1        0.0070
     18 C          -0.0542    2.2174   21.3319 C.3     1  UNL1        0.1812
     19 O           1.8276    2.1145   22.3056 O.2     1  UNL1       -0.1689
     20 O           0.0808    0.1553   20.8531 O.2     1  UNL1       -0.1689
     21 C           2.0402   -0.5354   29.4418 C.3     1  UNL1        0.1459
     22 O           0.5408   -0.5384   29.4836 O.3     1  UNL1       -0.3813
     23 H           0.1936   -0.1674   28.6573 H       1  UNL1        0.2105
     24 C           2.8240   -1.0618   30.6074 C.3     1  UNL1        0.1034
     25 C           3.6094    1.5772   34.1667 C.3     1  UNL1        0.1687
     26 C           4.2834    0.2414   34.0602 C.3     1  UNL1        0.0609
     27 C           4.0216   -0.6383   32.8736 C.3     1  UNL1        0.0759
     28 N           3.0857   -0.1821   31.7938 N.3     1  UNL1       -0.2704
     29 C           2.4117    1.1536   31.9004 C.3     1  UNL1        0.0759
     30 C           2.6735    2.0333   33.0868 C.3     1  UNL1        0.0609
     31 O           3.8712    2.4568   35.3531 O.3     1  UNL1       -0.4794
     32 C           1.8591    4.5625   36.0729 C.3     1  UNL1        0.0342
     33 C           2.0358    3.3614   36.9541 C.ar    1  UNL1        0.0129
     34 C           1.2065    3.2133   38.1952 C.ar    1  UNL1        0.0101
     35 C           1.3832    2.0124   39.0764 C.ar    1  UNL1        0.0576
     36 CL          0.5539    1.8642   40.3175 Cl      1  UNL1       -0.0823
     37 C           2.3892    0.9596   38.7165 C.ar    1  UNL1        0.0145
     38 C           3.2185    1.1077   37.4754 C.ar    1  UNL1        0.0374
     39 C           3.0418    2.3087   36.5942 C.ar    1  UNL1        0.1344
@<TRIPOS>BOND
     1    32    33    1
     2    33    34   ar
     3    34    35   ar
     4    35    36    1
     5    35    37   ar
     6    37    38   ar
     7    38    39   ar
     8    39    31    1
     9    31    25    1
    10    25    26    1
    11    26    27    1
    12    27    28    1
    13    28    24    1
    14    24    21    1
    15    21    22    1
    16    21     1    1
    17     1     2    1
    18     2     3   am
    19     3     4    2
    20     3     6    1
    21     6     7    1
    22     7     8    2
    23     8     9    1
    24     9    10    2
    25     9    11    1
    26    11    12    2
    27    12    13    1
    28    13    14    2
    29    14    17    1
    30    17    18    1
    31    17    19    2
    32    17    20    2
    33    14    15    1
    34    15    16    1
    35    28    29    1
    36    29    30    1
    37    39    33   ar
    38    30    25    1
    39    16     6    2
    40    16    11    1
    41    22    23    1
    42     2     5    1
@<TRIPOS>MOLECULE
*****
 39 42 0 0 0
SMALL
GASTEIGER

@<TRIPOS>ATOM
      1 C          -2.9937    4.3835   19.5714 C.3     1  UNL1        0.1204
      2 N          -3.6979    4.8989   20.7914 N.am    1  UNL1       -0.2985
      3 C          -4.5660    3.9812   21.6002 C.2     1  UNL1        0.2469
      4 O          -4.7301    2.5480   21.1888 O.2     1  UNL1       -0.2701
      5 H          -3.5902    5.8395   21.0614 H       1  UNL1        0.1498
      6 C          -5.2701    4.4966   22.8203 C.2     1  UNL1        0.0665
      7 C          -6.5982    5.1810   22.6868 C.2     1  UNL1        0.0931
      8 N          -7.3023    5.6964   23.9069 N.am    1  UNL1       -0.1740
      9 C          -6.6783    5.5274   25.2604 C.2     1  UNL1        0.2687
     10 O          -7.3824    6.0428   26.4805 O.2     1  UNL1       -0.2680
     11 C          -5.3502    4.8430   25.3939 C.2     1  UNL1        0.0520
     12 C          -4.7263    4.6740   26.7475 C.2     1  UNL1        0.0053
     13 C          -3.3982    3.9896   26.8809 C.2     1  UNL1        0.0144
     14 C          -2.6941    3.4742   25.6608 C.2     1  UNL1        0.0878
     15 C          -3.3180    3.6432   24.3073 C.3     1  UNL1        0.0716
     16 C          -4.6461    4.3276   24.1738 C.2     1  UNL1       -0.0063
     17 S          -1.3660    2.7898   25.7943 S.O2    1  UNL1        0.0070
     18 C          -0.0379    2.1054   25.9278 C.3     1  UNL1        0.1812
     19 O          -1.0706    3.0820   24.3531 O.2     1  UNL1       -0.1689
     20 O          -1.6614    2.4975   27.2356 O.2     1  UNL1       -0.1689
     21 C          -1.7784    3.5164   19.7170 C.3     1  UNL1        0.1459
     22 O          -1.7396    2.4506   20.7717 O.3     1  UNL1       -0.3813
     23 H          -2.5730    2.4561   21.2679 H       1  UNL1        0.2105
     24 C          -0.6020    3.7151   18.8078 C.3     1  UNL1        0.1034
     25 C           3.2083    1.4315   19.5267 C.3     1  UNL1        0.1687
     26 C           2.9448    2.7050   20.2741 C.3     1  UNL1        0.0609
     27 C           1.6746    3.4662   20.0344 C.3     1  UNL1        0.0759
     28 N           0.6680    2.9539   19.0474 N.3     1  UNL1       -0.2704
     29 C           0.9315    1.6803   18.3000 C.3     1  UNL1        0.0759
     30 C           2.2016    0.9191   18.5396 C.3     1  UNL1        0.0609
     31 O           4.4783    0.6703   19.7663 O.3     1  UNL1       -0.4794
     32 C           3.1855   -1.2185   21.7057 C.3     1  UNL1        0.0342
     33 C           3.8785   -1.7526   20.4873 C.ar    1  UNL1        0.0129
     34 C           3.9251   -3.2311   20.2386 C.ar    1  UNL1        0.0101
     35 C           4.6180   -3.7653   19.0202 C.ar    1  UNL1        0.0576
     36 CL          4.6646   -5.2438   18.7716 Cl      1  UNL1       -0.0823
     37 C           5.2644   -2.8209   18.0506 C.ar    1  UNL1        0.0145
     38 C           5.2179   -1.3424   18.2992 C.ar    1  UNL1        0.0374
     39 C           4.5249   -0.8082   19.5176 C.ar    1  UNL1        0.1344
@<TRIPOS>BOND
     1    32    33    1
     2    33    34   ar
     3    34    35   ar
     4    35    36    1
     5    35    37   ar
     6    37    38   ar
     7    38    39   ar
     8    39    31    1
     9    31    25    1
    10    25    26    1
    11    26    27    1
    12    27    28    1
    13    28    24    1
    14    24    21    1
    15    21    22    1
    16    21     1    1
    17     1     2    1
    18     2     3   am
    19     3     4    2
    20     3     6    1
    21     6     7    1
    22     7     8    2
    23     8     9    1
    24     9    10    2
    25     9    11    1
    26    11    12    2
    27    12    13    1
    28    13    14    2
    29    14    17    1
    30    17    18    1
    31    17    19    2
    32    17    20    2
    33    14    15    1
    34    15    16    1
    35    28    29    1
    36    29    30    1
    37    39    33   ar
    38    30    25    1
    39    16     6    2
    40    16    11    1
    41    22    23    1
    42     2     5    1
@<TRIPOS>MOLECULE
*****
 39 42 0 0 0
SMALL
GASTEIGER

@<TRIPOS>ATOM
      1 C           6.0423   -3.0514   24.0523 C.3     1  UNL1        0.1204
      2 N           5.8167   -2.4885   22.6804 N.am    1  UNL1       -0.2985
      3 C           4.9141   -3.2003   21.7168 C.2     1  UNL1        0.2469
      4 O           4.2371   -4.4751   22.1251 O.2     1  UNL1       -0.2701
      5 H           6.2610   -1.6518   22.4124 H       1  UNL1        0.1498
      6 C           4.6885   -2.6374   20.3448 C.2     1  UNL1        0.0665
      7 C           5.4205   -3.2122   19.1686 C.2     1  UNL1        0.0931
      8 N           5.1949   -2.6493   17.7966 N.am    1  UNL1       -0.1740
      9 C           4.2372   -1.5115   17.6010 C.2     1  UNL1        0.2687
     10 O           4.0116   -0.9486   16.2290 O.2     1  UNL1       -0.2680
     11 C           3.5051   -0.9367   18.7773 C.2     1  UNL1        0.0520
     12 C           2.5474    0.2011   18.5816 C.2     1  UNL1        0.0053
     13 C           1.8153    0.7759   19.7578 C.2     1  UNL1        0.0144
     14 C           2.0410    0.2130   21.1298 C.2     1  UNL1        0.0878
     15 C           2.9987   -0.9248   21.3255 C.3     1  UNL1        0.0716
     16 C           3.7307   -1.4996   20.1492 C.2     1  UNL1       -0.0063
     17 S           1.3088    0.7878   22.3061 S.O2    1  UNL1        0.0070
     18 C           0.5768    1.3627   23.4823 C.3     1  UNL1        0.1812
     19 O           2.5313    0.6055   23.1560 O.2     1  UNL1       -0.1689
     20 O           0.0864    0.9702   21.4562 O.2     1  UNL1       -0.1689
     21 C           7.0728   -4.1207   24.2641 C.3     1  UNL1        0.1459
     22 O           7.0814   -5.3380   23.3877 O.3     1  UNL1       -0.3813
     23 H           6.3609   -5.2761   22.7413 H       1  UNL1        0.2105
     24 C           8.0945   -3.9727   25.3523 C.3     1  UNL1        0.1034
     25 C           6.8023   -3.9388   29.6626 C.3     1  UNL1        0.1687
     26 C           7.1043   -5.2401   28.9804 C.3     1  UNL1        0.0609
     27 C           7.5351   -5.2514   27.5436 C.3     1  UNL1        0.0759
     28 N           7.6638   -3.9614   26.7890 N.3     1  UNL1       -0.2704
     29 C           7.3617   -2.6601   27.4713 C.3     1  UNL1        0.0759
     30 C           6.9310   -2.6488   28.9080 C.3     1  UNL1        0.0609
     31 O           6.3715   -3.9275   31.0994 O.3     1  UNL1       -0.4794
     32 C           4.5126   -1.9813   32.4248 C.3     1  UNL1        0.0342
     33 C           5.9859   -1.9177   32.7000 C.ar    1  UNL1        0.0129
     34 C           6.5296   -0.8811   33.6378 C.ar    1  UNL1        0.0101
     35 C           8.0028   -0.8175   33.9130 C.ar    1  UNL1        0.0576
     36 CL          8.5465    0.2192   34.8509 Cl      1  UNL1       -0.0823
     37 C           8.9322   -1.7906   33.2503 C.ar    1  UNL1        0.0145
     38 C           8.3884   -2.8273   32.3124 C.ar    1  UNL1        0.0374
     39 C           6.9153   -2.8909   32.0372 C.ar    1  UNL1        0.1344
@<TRIPOS>BOND
     1    32    33    1
     2    33    34   ar
     3    34    35   ar
     4    35    36    1
     5    35    37   ar
     6    37    38   ar
     7    38    39   ar
     8    39    31    1
     9    31    25    1
    10    25    26    1
    11    26    27    1
    12    27    28    1
    13    28    24    1
    14    24    21    1
    15    21    22    1
    16    21     1    1
    17     1     2    1
    18     2     3   am
    19     3     4    2
    20     3     6    1
    21     6     7    1
    22     7     8    2
    23     8     9    1
    24     9    10    2
    25     9    11    1
    26    11    12    2
    27    12    13    1
    28    13    14    2
    29    14    17    1
    30    17    18    1
    31    17    19    2
    32    17    20    2
    33    14    15    1
    34    15    16    1
    35    28    29    1
    36    29    30    1
    37    39    33   ar
    38    30    25    1
    39    16     6    2
    40    16    11    1
    41    22    23    1
    42     2     5    1
@<TRIPOS>MOLECULE
*****
 39 42 0 0 0
SMALL
GASTEIGER

@<TRIPOS>ATOM
      1 C           3.1092   -0.9037   27.9127 C.3     1  UNL1        0.1204
      2 N           3.5976   -1.6641   26.7155 N.am    1  UNL1       -0.2985
      3 C           4.9556   -1.3764   26.1470 C.2     1  UNL1        0.2469
      4 O           5.8253   -0.3284   26.7758 O.2     1  UNL1       -0.2701
      5 H           3.0269   -2.3520   26.3028 H       1  UNL1        0.1498
      6 C           5.4440   -2.1368   24.9498 C.2     1  UNL1        0.0665
      7 C           5.1420   -1.6357   23.5687 C.2     1  UNL1        0.0931
      8 N           5.6304   -2.3961   22.3715 N.am    1  UNL1       -0.1740
      9 C           6.4208   -3.6576   22.5555 C.2     1  UNL1        0.2687
     10 O           6.9092   -4.4180   21.3583 O.2     1  UNL1       -0.2680
     11 C           6.7228   -4.1588   23.9367 C.2     1  UNL1        0.0520
     12 C           7.5131   -5.4203   24.1207 C.2     1  UNL1        0.0053
     13 C           7.8151   -5.9214   25.5018 C.2     1  UNL1        0.0144
     14 C           7.3267   -5.1610   26.6990 C.2     1  UNL1        0.0878
     15 C           6.5364   -3.8995   26.5150 C.3     1  UNL1        0.0716
     16 C           6.2344   -3.3984   25.1339 C.2     1  UNL1       -0.0063
     17 S           7.6287   -5.6622   28.0802 S.O2    1  UNL1        0.0070
     18 C           7.9307   -6.1633   29.4614 C.3     1  UNL1        0.1812
     19 O           6.2043   -5.4164   28.4808 O.2     1  UNL1       -0.1689
     20 O           9.0532   -5.9080   27.6796 O.2     1  UNL1       -0.1689
     21 C           2.0004    0.0957   27.7652 C.3     1  UNL1        0.1459
     22 O           0.6627   -0.1707   28.3894 O.3     1  UNL1       -0.3813
     23 H           0.6841   -1.0254   28.8474 H       1  UNL1        0.2105
     24 C           2.2293    1.3615   26.9936 C.3     1  UNL1        0.1034
     25 C           2.4301    1.2520   22.4994 C.3     1  UNL1        0.1687
     26 C           1.1442    0.9288   23.2009 C.3     1  UNL1        0.0609
     27 C           1.0773    0.9653   24.6990 C.3     1  UNL1        0.0759
     28 N           2.2962    1.3250   25.4956 N.3     1  UNL1       -0.2704
     29 C           3.5821    1.6483   24.7942 C.3     1  UNL1        0.0759
     30 C           3.6491    1.6118   23.2962 C.3     1  UNL1        0.0609
     31 O           2.4970    1.2155   21.0014 O.3     1  UNL1       -0.4794
     32 C           5.1177    1.7038   19.6254 C.3     1  UNL1        0.0342
     33 C           4.5128    0.3312   19.6214 C.ar    1  UNL1        0.0129
     34 C           5.2183   -0.7973   18.9295 C.ar    1  UNL1        0.0101
     35 C           4.6134   -2.1699   18.9255 C.ar    1  UNL1        0.0576
     36 CL          5.3189   -3.2984   18.2335 Cl      1  UNL1       -0.0823
     37 C           3.3031   -2.4141   19.6135 C.ar    1  UNL1        0.0145
     38 C           2.5976   -1.2856   20.3055 C.ar    1  UNL1        0.0374
     39 C           3.2025    0.0870   20.3094 C.ar    1  UNL1        0.1344
@<TRIPOS>BOND
     1    32    33    1
     2    33    34   ar
     3    34    35   ar
     4    35    36    1
     5    35    37   ar
     6    37    38   ar
     7    38    39   ar
     8    39    31    1
     9    31    25    1
    10    25    26    1
    11    26    27    1
    12    27    28    1
    13    28    24    1
    14    24    21    1
    15    21    22    1
    16    21     1    1
    17     1     2    1
    18     2     3   am
    19     3     4    2
    20     3     6    1
    21     6     7    1
    22     7     8    2
    23     8     9    1
    24     9    10    2
    25     9    11    1
    26    11    12    2
    27    12    13    1
    28    13    14    2
    29    14    17    1
    30    17    18    1
    31    17    19    2
    32    17    20    2
    33    14    15    1
    34    15    16    1
    35    28    29    1
    36    29    30    1
    37    39    33   ar
    38    30    25    1
    39    16     6    2
    40    16    11    1
    41    22    23    1
    42     2     5    1
@<TRIPOS>MOLECULE
*****
 39 42 0 0 0
SMALL
GASTEIGER

@<TRIPOS>ATOM
      1 C           6.5364   -4.3538   24.7388 C.3     1  UNL1        0.1204
      2 N           5.4605   -3.4458   24.2214 N.am    1  UNL1       -0.2985
      3 C           5.3659   -2.0345   24.7206 C.2     1  UNL1        0.2469
      4 O           6.3473   -1.5312   25.7373 O.2     1  UNL1       -0.2701
      5 H           4.8163   -3.7761   23.5541 H       1  UNL1        0.1498
      6 C           4.2899   -1.1264   24.2031 C.2     1  UNL1        0.0665
      7 C           3.7849   -0.0002   25.0555 C.2     1  UNL1        0.0931
      8 N           2.7090    0.9079   24.5381 N.am    1  UNL1       -0.1740
      9 C           2.1380    0.6897   23.1683 C.2     1  UNL1        0.2687
     10 O           1.0621    1.5978   22.6508 O.2     1  UNL1       -0.2680
     11 C           2.6430   -0.4365   22.3158 C.2     1  UNL1        0.0520
     12 C           2.0721   -0.6547   20.9460 C.2     1  UNL1        0.0053
     13 C           2.5771   -1.7809   20.0937 C.2     1  UNL1        0.0144
     14 C           3.6531   -2.6889   20.6111 C.2     1  UNL1        0.0878
     15 C           4.2240   -2.4708   21.9809 C.3     1  UNL1        0.0716
     16 C           3.7190   -1.3446   22.8333 C.2     1  UNL1       -0.0063
     17 S           4.1581   -3.8152   19.7586 S.O2    1  UNL1        0.0070
     18 C           4.6630   -4.9414   18.9062 C.3     1  UNL1        0.1812
     19 O           3.9310   -2.9864   18.5292 O.2     1  UNL1       -0.1689
     20 O           4.3851   -4.6440   20.9881 O.2     1  UNL1       -0.1689
     21 C           7.9493   -4.1900   24.2624 C.3     1  UNL1        0.1459
     22 O           9.0564   -3.9875   25.2541 O.3     1  UNL1       -0.3813
     23 H           8.6901   -3.9878   26.1522 H       1  UNL1        0.2105
     24 C           8.2551   -4.2287   22.7945 C.3     1  UNL1        0.1034
     25 C           7.3293   -0.6643   20.2085 C.3     1  UNL1        0.1687
     26 C           7.6750   -0.4716   21.6554 C.3     1  UNL1        0.0609
     27 C           7.9836   -1.6599   22.5174 C.3     1  UNL1        0.0759
     28 N           7.9465   -3.0406   21.9325 N.3     1  UNL1       -0.2704
     29 C           7.6009   -3.2332   20.4856 C.3     1  UNL1        0.0759
     30 C           7.2923   -2.0451   19.6236 C.3     1  UNL1        0.0609
     31 O           7.0207    0.5239   19.3465 O.3     1  UNL1       -0.4794
     32 C           5.1216   -0.0827   17.1048 C.3     1  UNL1        0.0342
     33 C           4.6928    0.8123   18.2296 C.ar    1  UNL1        0.0129
     34 C           3.3145    1.4040   18.2336 C.ar    1  UNL1        0.0101
     35 C           2.8857    2.2990   19.3583 C.ar    1  UNL1        0.0576
     36 CL          1.5073    2.8907   19.3622 Cl      1  UNL1       -0.0823
     37 C           3.8353    2.6023   20.4791 C.ar    1  UNL1        0.0145
     38 C           5.2136    2.0106   20.4752 C.ar    1  UNL1        0.0374
     39 C           5.6424    1.1156   19.3504 C.ar    1  UNL1        0.1344
@<TRIPOS>BOND
     1    32    33    1
     2    33    34   ar
     3    34    35   ar
     4    35    36    1
     5    35    37   ar
     6    37    38   ar
     7    38    39   ar
     8    39    31    1
     9    31    25    1
    10    25    26    1
    11    26    27    1
    12    27    28    1
    13    28    24    1
    14    24    21    1
    15    21    22    1
    16    21     1    1
    17     1     2    1
    18     2     3   am
    19     3     4    2
    20     3     6    1
    21     6     7    1
    22     7     8    2
    23     8     9    1
    24     9    10    2
    25     9    11    1
    26    11    12    2
    27    12    13    1
    28    13    14    2
    29    14    17    1
    30    17    18    1
    31    17    19    2
    32    17    20    2
    33    14    15    1
    34    15    16    1
    35    28    29    1
    36    29    30    1
    37    39    33   ar
    38    30    25    1
    39    16     6    2
    40    16    11    1
    41    22    23    1
    42     2     5    1
@<TRIPOS>MOLECULE
*****
 39 42 0 0 0
SMALL
GASTEIGER

@<TRIPOS>ATOM
      1 C           6.0528   -1.7134   26.3107 C.3     1  UNL1        0.1204
      2 N           4.6701   -1.5131   26.8567 N.am    1  UNL1       -0.2985
      3 C           4.3521   -0.2887   27.6627 C.2     1  UNL1        0.2469
      4 O           5.4168    0.7355   27.9227 O.2     1  UNL1       -0.2701
      5 H           3.9713   -2.1853   26.6860 H       1  UNL1        0.1498
      6 C           2.9694   -0.0884   28.2086 C.2     1  UNL1        0.0665
      7 C           2.6490   -0.5094   29.6122 C.2     1  UNL1        0.0931
      8 N           1.2663   -0.3091   30.1582 N.am    1  UNL1       -0.1740
      9 C           0.2041    0.3122   29.3006 C.2     1  UNL1        0.2687
     10 O          -1.1786    0.5125   29.8466 O.2     1  UNL1       -0.2680
     11 C           0.5245    0.7333   27.8969 C.2     1  UNL1        0.0520
     12 C          -0.5378    1.3546   27.0394 C.2     1  UNL1        0.0053
     13 C          -0.2174    1.7757   25.6358 C.2     1  UNL1        0.0144
     14 C           1.1653    1.5754   25.0898 C.2     1  UNL1        0.0878
     15 C           2.2275    0.9540   25.9474 C.3     1  UNL1        0.0716
     16 C           1.9071    0.5330   27.3510 C.2     1  UNL1       -0.0063
     17 S           1.4857    1.9965   23.6862 S.O2    1  UNL1        0.0070
     18 C           1.8061    2.4175   22.2827 C.3     1  UNL1        0.1812
     19 O           2.9397    1.7271   23.9373 O.2     1  UNL1       -0.1689
     20 O           0.0316    2.2658   23.4351 O.2     1  UNL1       -0.1689
     21 C           6.5150   -3.0873   25.9249 C.3     1  UNL1        0.1459
     22 O           6.2120   -4.2575   26.8130 O.3     1  UNL1       -0.3813
     23 H           5.7145   -3.9545   27.5887 H       1  UNL1        0.2105
     24 C           7.2804   -3.2910   24.6510 C.3     1  UNL1        0.1034
     25 C           5.2380   -2.7159   20.6827 C.3     1  UNL1        0.1687
     26 C           4.6666   -3.6704   21.6889 C.3     1  UNL1        0.0609
     27 C           5.3475   -3.8621   23.0118 C.3     1  UNL1        0.0759
     28 N           6.5996   -3.0993   23.3283 N.3     1  UNL1       -0.2704
     29 C           7.1710   -2.1448   22.3220 C.3     1  UNL1        0.0759
     30 C           6.4902   -1.9531   20.9993 C.3     1  UNL1        0.0609
     31 O           4.5572   -2.5243   19.3599 O.3     1  UNL1       -0.4794
     32 C           4.9603   -0.3863   17.2943 C.3     1  UNL1        0.0342
     33 C           3.7356   -0.3712   18.1603 C.ar    1  UNL1        0.0129
     34 C           2.7124    0.7130   17.9935 C.ar    1  UNL1        0.0101
     35 C           1.4878    0.7281   18.8595 C.ar    1  UNL1        0.0576
     36 CL          0.4646    1.8123   18.6927 Cl      1  UNL1       -0.0823
     37 C           1.2863   -0.3408   19.8922 C.ar    1  UNL1        0.0145
     38 C           2.3094   -1.4250   20.0591 C.ar    1  UNL1        0.0374
     39 C           3.5341   -1.4401   19.1931 C.ar    1  UNL1        0.1344
@<TRIPOS>BOND
     1    32    33    1
     2    33    34   ar
     3    34    35   ar
     4    35    36    1
     5    35    37   ar
     6    37    38   ar
     7    38    39   ar
     8    39    31    1
     9    31    25    1
    10    25    26    1
    11    26    27    1
    12    27    28    1
    13    28    24    1
    14    24    21    1
    15    21    22    1
    16    21     1    1
    17     1     2    1
    18     2     3   am
    19     3     4    2
    20     3     6    1
    21     6     7    1
    22     7     8    2
    23     8     9    1
    24     9    10    2
    25     9    11    1
    26    11    12    2
    27    12    13    1
    28    13    14    2
    29    14    17    1
    30    17    18    1
    31    17    19    2
    32    17    20    2
    33    14    15    1
    34    15    16    1
    35    28    29    1
    36    29    30    1
    37    39    33   ar
    38    30    25    1
    39    16     6    2
    40    16    11    1
    41    22    23    1
    42     2     5    1
@<TRIPOS>MOLECULE
*****
 39 42 0 0 0
SMALL
GASTEIGER

@<TRIPOS>ATOM
      1 C           1.4727    1.2914   26.4304 C.3     1  UNL1        0.1204
      2 N           2.0569    0.1090   25.7158 N.am    1  UNL1       -0.2985
      3 C           3.1556    0.3059   24.7139 C.2     1  UNL1        0.2469
      4 O           3.6702    1.6854   24.4264 O.2     1  UNL1       -0.2701
      5 H           1.7193   -0.7964   25.9045 H       1  UNL1        0.1498
      6 C           3.7399   -0.8765   23.9993 C.2     1  UNL1        0.0665
      7 C           4.6188   -1.8408   24.7392 C.2     1  UNL1        0.0931
      8 N           5.2031   -3.0232   24.0246 N.am    1  UNL1       -0.1740
      9 C           4.9083   -3.2412   22.5701 C.2     1  UNL1        0.2687
     10 O           5.4926   -4.4236   21.8556 O.2     1  UNL1       -0.2680
     11 C           4.0294   -2.2769   21.8301 C.2     1  UNL1        0.0520
     12 C           3.7346   -2.4950   20.3757 C.2     1  UNL1        0.0053
     13 C           2.8557   -1.5306   19.6358 C.2     1  UNL1        0.0144
     14 C           2.2715   -0.3483   20.3504 C.2     1  UNL1        0.0878
     15 C           2.5662   -0.1302   21.8048 C.3     1  UNL1        0.0716
     16 C           3.4451   -1.0945   22.5447 C.2     1  UNL1       -0.0063
     17 S           1.3925    0.6161   19.6104 S.O2    1  UNL1        0.0070
     18 C           0.5136    1.5804   18.8704 C.3     1  UNL1        0.1812
     19 O           2.1195    0.3013   18.3367 O.2     1  UNL1       -0.1689
     20 O           0.6654    0.9308   20.8841 O.2     1  UNL1       -0.1689
     21 C           0.6057    1.0852   27.6371 C.3     1  UNL1        0.1459
     22 O          -0.5475    0.1279   27.5773 O.3     1  UNL1       -0.3813
     23 H          -0.5917   -0.2703   26.6939 H       1  UNL1        0.2105
     24 C           0.8921    1.8363   28.9035 C.3     1  UNL1        0.1034
     25 C           3.2311   -0.1308   32.2064 C.3     1  UNL1        0.1687
     26 C           2.9761   -0.8688   30.9257 C.3     1  UNL1        0.0609
     27 C           2.1964   -0.2130   29.8247 C.3     1  UNL1        0.0759
     28 N           1.6718    1.1806   30.0044 N.3     1  UNL1       -0.2704
     29 C           1.9268    1.9187   31.2852 C.3     1  UNL1        0.0759
     30 C           2.7065    1.2630   32.3861 C.3     1  UNL1        0.0609
     31 O           4.0108   -0.7865   33.3074 O.3     1  UNL1       -0.4794
     32 C           6.5439    0.7932   33.6042 C.3     1  UNL1        0.0342
     33 C           6.6003   -0.6381   33.1587 C.ar    1  UNL1        0.0129
     34 C           7.9233   -1.2795   32.8617 C.ar    1  UNL1        0.0101
     35 C           7.9798   -2.7106   32.4162 C.ar    1  UNL1        0.0576
     36 CL          9.3029   -3.3520   32.1191 Cl      1  UNL1       -0.0823
     37 C           6.7133   -3.5004   32.2678 C.ar    1  UNL1        0.0145
     38 C           5.3903   -2.8591   32.5649 C.ar    1  UNL1        0.0374
     39 C           5.3338   -1.4279   33.0103 C.ar    1  UNL1        0.1344
@<TRIPOS>BOND
     1    32    33    1
     2    33    34   ar
     3    34    35   ar
     4    35    36    1
     5    35    37   ar
     6    37    38   ar
     7    38    39   ar
     8    39    31    1
     9    31    25    1
    10    25    26    1
    11    26    27    1
    12    27    28    1
    13    28    24    1
    14    24    21    1
    15    21    22    1
    16    21     1    1
    17     1     2    1
    18     2     3   am
    19     3     4    2
    20     3     6    1
    21     6     7    1
    22     7     8    2
    23     8     9    1
    24     9    10    2
    25     9    11    1
    26    11    12    2
    27    12    13    1
    28    13    14    2
    29    14    17    1
    30    17    18    1
    31    17    19    2
    32    17    20    2
    33    14    15    1
    34    15    16    1
    35    28    29    1
    36    29    30    1
    37    39    33   ar
    38    30    25    1
    39    16     6    2
    40    16    11    1
    41    22    23    1
    42     2     5    1
