@<TRIPOS>MOLECULE
*****
 31 32 0 0 0
SMALL
GASTEIGER

@<TRIPOS>ATOM
      1 C          -6.1543  -15.6025   25.0057 C.3     1  UNL1        0.0949
      2 C          -5.9064  -15.2529   26.4432 C.3     1  UNL1        0.0233
      3 C          -7.2103  -15.3576   27.1772 C.3     1  UNL1        0.0233
      4 C          -8.2641  -15.7720   26.1934 C.3     1  UNL1        0.0935
      5 N          -7.6114  -15.9233   24.8513 N.am    1  UNL1       -0.2794
      6 C          -8.2957  -16.3248   23.5784 C.2     1  UNL1        0.2270
      7 O          -7.5086  -16.4349   22.3062 O.2     1  UNL1       -0.2748
      8 C          -5.1256  -15.6269   23.9143 C.3     1  UNL1        0.1093
      9 C          -3.4247  -16.9559   22.4682 C.2     1  UNL1        0.2838
     10 O          -2.8324  -15.6670   21.9804 O.2     1  UNL1       -0.2692
     11 N          -4.5713  -16.9358   23.4351 N.am    1  UNL1       -0.2983
     12 H          -4.9601  -17.7818   23.7553 H       1  UNL1        0.1497
     13 C          -2.3162  -19.5737   21.5102 C.3     1  UNL1        0.0821
     14 C          -2.8705  -18.2649   21.9892 C.3     1  UNL1        0.3304
     15 F          -3.8667  -18.2763   20.8678 F       1  UNL1       -0.1946
     16 F          -1.8743  -18.2534   23.1106 F       1  UNL1       -0.1946
     17 C          -9.7671  -16.6164   23.5776 C.3     1  UNL1        0.1010
     18 C         -10.2521  -18.0277   23.7290 C.3     1  UNL1        0.0644
     19 N         -10.6534  -18.5420   25.0798 N.3     1  UNL1       -0.3215
     20 H         -10.5339  -17.8041   25.7738 H       1  UNL1        0.1188
     21 H         -10.0682  -19.3398   25.3275 H       1  UNL1        0.1188
     22 C         -10.3359  -18.9247   22.5298 C.3     1  UNL1        0.0447
     23 C          -9.0871  -19.3134   21.7952 C.ar    1  UNL1        0.0090
     24 C          -7.8599  -19.7115   22.5604 C.ar    1  UNL1        0.0300
     25 C          -6.6112  -20.1001   21.8258 C.ar    1  UNL1        0.1672
     26 F          -5.3840  -20.4983   22.5910 F       1  UNL1       -0.2018
     27 C          -6.5897  -20.0906   20.3260 C.ar    1  UNL1        0.1696
     28 F          -5.3409  -20.4792   19.5914 F       1  UNL1       -0.2017
     29 C          -7.8168  -19.6925   19.5607 C.ar    1  UNL1        0.0612
     30 C          -9.0655  -19.3039   20.2953 C.ar    1  UNL1        0.1386
     31 F         -10.2927  -18.9057   19.5301 F       1  UNL1       -0.2044
@<TRIPOS>BOND
     1    13    14    1
     2    14    15    1
     3    14    16    1
     4    14     9    1
     5     9    10    2
     6     9    11   am
     7    11     8    1
     8     1     8    1
     9     1     2    1
    10     2     3    1
    11     3     4    1
    12     4     5    1
    13     5     6   am
    14     6     7    2
    15     6    17    1
    16    17    18    1
    17    18    19    1
    18    18    22    1
    19    22    23    1
    20    23    24   ar
    21    24    25   ar
    22    25    26    1
    23    25    27   ar
    24    27    28    1
    25    27    29   ar
    26    29    30   ar
    27    30    31    1
    28     5     1    1
    29    30    23   ar
    30    11    12    1
    31    19    20    1
    32    19    21    1
@<TRIPOS>MOLECULE
*****
 31 32 0 0 0
SMALL
GASTEIGER

@<TRIPOS>ATOM
      1 C          -9.7356  -18.1684   24.1100 C.3     1  UNL1        0.0949
      2 C         -10.6404  -18.9148   25.0450 C.3     1  UNL1        0.0233
      3 C         -10.2961  -20.3722   24.9584 C.3     1  UNL1        0.0233
      4 C          -9.1786  -20.5265   23.9698 C.3     1  UNL1        0.0935
      5 N          -8.8322  -19.1645   23.4455 N.am    1  UNL1       -0.2794
      6 C          -7.7690  -18.8532   22.4342 C.2     1  UNL1        0.2270
      7 O          -7.5356  -17.4354   22.0036 O.2     1  UNL1       -0.2748
      8 C          -9.7345  -16.6862   23.8800 C.3     1  UNL1        0.1093
      9 C         -11.2152  -16.5171   21.7518 C.2     1  UNL1        0.2838
     10 O         -12.2194  -17.4394   22.3773 O.2     1  UNL1       -0.2692
     11 N          -9.9728  -16.1406   22.5031 N.am    1  UNL1       -0.2983
     12 H          -9.3137  -15.5353   22.0926 H       1  UNL1        0.1497
     13 C         -11.6916  -15.4259   18.9983 C.3     1  UNL1        0.0821
     14 C         -11.4535  -15.9715   20.3750 C.3     1  UNL1        0.3304
     15 F         -12.6863  -16.8173   20.2531 F       1  UNL1       -0.1946
     16 F         -10.2206  -15.1258   20.4969 F       1  UNL1       -0.1946
     17 C          -6.9393  -19.9597   21.8535 C.3     1  UNL1        0.1010
     18 C          -6.2784  -19.7804   20.5189 C.3     1  UNL1        0.0644
     19 N          -6.9929  -19.0510   19.4201 N.3     1  UNL1       -0.3215
     20 H          -7.9086  -18.7484   19.7522 H       1  UNL1        0.1188
     21 H          -7.1099  -19.6723   18.6196 H       1  UNL1        0.1188
     22 C          -4.9030  -20.3305   20.2832 C.3     1  UNL1        0.0447
     23 C          -3.7183  -19.4103   20.2752 C.ar    1  UNL1        0.0090
     24 C          -3.1068  -18.9864   18.9728 C.ar    1  UNL1        0.0300
     25 C          -1.9222  -18.0662   18.9649 C.ar    1  UNL1        0.1672
     26 F          -1.3106  -17.6422   17.6625 F       1  UNL1       -0.2018
     27 C          -1.3492  -17.5701   20.2593 C.ar    1  UNL1        0.1696
     28 F          -0.1646  -16.6499   20.2513 F       1  UNL1       -0.2017
     29 C          -1.9608  -17.9941   21.5617 C.ar    1  UNL1        0.0612
     30 C          -3.1453  -18.9142   21.5696 C.ar    1  UNL1        0.1386
     31 F          -3.7570  -19.3382   22.8720 F       1  UNL1       -0.2044
@<TRIPOS>BOND
     1    13    14    1
     2    14    15    1
     3    14    16    1
     4    14     9    1
     5     9    10    2
     6     9    11   am
     7    11     8    1
     8     1     8    1
     9     1     2    1
    10     2     3    1
    11     3     4    1
    12     4     5    1
    13     5     6   am
    14     6     7    2
    15     6    17    1
    16    17    18    1
    17    18    19    1
    18    18    22    1
    19    22    23    1
    20    23    24   ar
    21    24    25   ar
    22    25    26    1
    23    25    27   ar
    24    27    28    1
    25    27    29   ar
    26    29    30   ar
    27    30    31    1
    28     5     1    1
    29    30    23   ar
    30    11    12    1
    31    19    20    1
    32    19    21    1
@<TRIPOS>MOLECULE
*****
 31 32 0 0 0
SMALL
GASTEIGER

@<TRIPOS>ATOM
      1 C          -4.8555  -16.6826   23.4436 C.3     1  UNL1        0.0949
      2 C          -5.1461  -15.4593   24.2616 C.3     1  UNL1        0.0233
      3 C          -6.6332  -15.3558   24.4286 C.3     1  UNL1        0.0233
      4 C          -7.2617  -16.5152   23.7138 C.3     1  UNL1        0.0935
      5 N          -6.1630  -17.3352   23.1051 N.am    1  UNL1       -0.2794
      6 C          -6.3406  -18.5879   22.2994 C.2     1  UNL1        0.2270
      7 O          -5.1415  -19.3038   21.7519 O.2     1  UNL1       -0.2748
      8 C          -3.4961  -17.1680   23.0359 C.3     1  UNL1        0.1093
      9 C          -2.1393  -18.0783   21.0157 C.2     1  UNL1        0.2838
     10 O          -1.6675  -19.2308   21.8520 O.2     1  UNL1       -0.2692
     11 N          -3.0536  -17.0470   21.6077 N.am    1  UNL1       -0.2983
     12 H          -3.3632  -16.2905   21.0589 H       1  UNL1        0.1497
     13 C          -1.2544  -17.8360   18.1596 C.3     1  UNL1        0.0821
     14 C          -1.6968  -17.9571   19.5876 C.3     1  UNL1        0.3304
     15 F          -0.7587  -16.8516   19.9721 F       1  UNL1       -0.1946
     16 F          -2.6350  -19.0626   19.2032 F       1  UNL1       -0.1946
     17 C          -7.7172  -19.1246   22.0411 C.3     1  UNL1        0.1010
     18 C          -8.2346  -19.2176   20.6362 C.3     1  UNL1        0.0644
     19 N          -7.3129  -18.9678   19.4794 N.3     1  UNL1       -0.3215
     20 H          -6.3798  -18.7499   19.8291 H       1  UNL1        0.1188
     21 H          -7.6620  -18.1826   18.9299 H       1  UNL1        0.1188
     22 C          -9.6737  -19.5603   20.3881 C.3     1  UNL1        0.0447
     23 C         -10.7427  -18.9977   21.2773 C.ar    1  UNL1        0.0090
     24 C         -10.8487  -19.4524   22.7028 C.ar    1  UNL1        0.0300
     25 C         -11.9177  -18.8899   23.5919 C.ar    1  UNL1        0.1672
     26 F         -12.0237  -19.3445   25.0175 F       1  UNL1       -0.2018
     27 C         -12.8808  -17.8726   23.0556 C.ar    1  UNL1        0.1696
     28 F         -13.9499  -17.3101   23.9448 F       1  UNL1       -0.2017
     29 C         -12.7749  -17.4180   21.6301 C.ar    1  UNL1        0.0612
     30 C         -11.7059  -17.9805   20.7410 C.ar    1  UNL1        0.1386
     31 F         -11.5999  -17.5259   19.3154 F       1  UNL1       -0.2044
@<TRIPOS>BOND
     1    13    14    1
     2    14    15    1
     3    14    16    1
     4    14     9    1
     5     9    10    2
     6     9    11   am
     7    11     8    1
     8     1     8    1
     9     1     2    1
    10     2     3    1
    11     3     4    1
    12     4     5    1
    13     5     6   am
    14     6     7    2
    15     6    17    1
    16    17    18    1
    17    18    19    1
    18    18    22    1
    19    22    23    1
    20    23    24   ar
    21    24    25   ar
    22    25    26    1
    23    25    27   ar
    24    27    28    1
    25    27    29   ar
    26    29    30   ar
    27    30    31    1
    28     5     1    1
    29    30    23   ar
    30    11    12    1
    31    19    20    1
    32    19    21    1
@<TRIPOS>MOLECULE
*****
 31 32 0 0 0
SMALL
GASTEIGER

@<TRIPOS>ATOM
      1 C          -9.8943  -17.7767   23.6709 C.3     1  UNL1        0.0949
      2 C         -10.7938  -18.6236   24.5215 C.3     1  UNL1        0.0233
      3 C         -10.6732  -20.0434   24.0528 C.3     1  UNL1        0.0233
      4 C          -9.6991  -20.0739   22.9126 C.3     1  UNL1        0.0935
      5 N          -9.2177  -18.6730   22.6765 N.am    1  UNL1       -0.2794
      6 C          -8.2327  -18.2438   21.6299 C.2     1  UNL1        0.2270
      7 O          -7.8447  -16.7996   21.5125 O.2     1  UNL1       -0.2748
      8 C          -9.7046  -16.2938   23.7932 C.3     1  UNL1        0.1093
      9 C          -7.7703  -15.9064   25.4840 C.2     1  UNL1        0.2838
     10 O          -8.5462  -16.6376   26.5392 O.2     1  UNL1       -0.2692
     11 N          -8.3495  -15.7345   24.1111 N.am    1  UNL1       -0.2983
     12 H          -7.8403  -15.2547   23.4185 H       1  UNL1        0.1497
     13 C          -5.0601  -14.7880   26.1194 C.3     1  UNL1        0.0821
     14 C          -6.4152  -15.3472   25.8017 C.3     1  UNL1        0.3304
     15 F          -6.2008  -15.0413   24.3490 F       1  UNL1       -0.1946
     16 F          -6.6296  -15.6531   27.2545 F       1  UNL1       -0.1946
     17 C          -7.6358  -19.2588   20.7007 C.3     1  UNL1        0.1010
     18 C          -6.4045  -20.0138   21.1057 C.3     1  UNL1        0.0644
     19 N          -6.0985  -21.3414   20.4781 N.3     1  UNL1       -0.3215
     20 H          -6.8274  -21.5748   19.8038 H       1  UNL1        0.1188
     21 H          -6.0624  -22.0593   21.2018 H       1  UNL1        0.1188
     22 C          -5.4793  -19.4413   22.1382 C.3     1  UNL1        0.0447
     23 C          -4.2602  -18.6780   21.7122 C.ar    1  UNL1        0.0090
     24 C          -3.6599  -18.9183   20.3588 C.ar    1  UNL1        0.0300
     25 C          -2.4409  -18.1551   19.9328 C.ar    1  UNL1        0.1672
     26 F          -1.8404  -18.3954   18.5794 F       1  UNL1       -0.2018
     27 C          -1.8222  -17.1516   20.8603 C.ar    1  UNL1        0.1696
     28 F          -0.6031  -16.3883   20.4343 F       1  UNL1       -0.2017
     29 C          -2.4226  -16.9113   22.2137 C.ar    1  UNL1        0.0612
     30 C          -3.6416  -17.6745   22.6397 C.ar    1  UNL1        0.1386
     31 F          -4.2420  -17.4342   23.9931 F       1  UNL1       -0.2044
@<TRIPOS>BOND
     1    13    14    1
     2    14    15    1
     3    14    16    1
     4    14     9    1
     5     9    10    2
     6     9    11   am
     7    11     8    1
     8     1     8    1
     9     1     2    1
    10     2     3    1
    11     3     4    1
    12     4     5    1
    13     5     6   am
    14     6     7    2
    15     6    17    1
    16    17    18    1
    17    18    19    1
    18    18    22    1
    19    22    23    1
    20    23    24   ar
    21    24    25   ar
    22    25    26    1
    23    25    27   ar
    24    27    28    1
    25    27    29   ar
    26    29    30   ar
    27    30    31    1
    28     5     1    1
    29    30    23   ar
    30    11    12    1
    31    19    20    1
    32    19    21    1
@<TRIPOS>MOLECULE
*****
 31 32 0 0 0
SMALL
GASTEIGER

@<TRIPOS>ATOM
      1 C          -8.1216  -15.5621   25.3599 C.3     1  UNL1        0.0949
      2 C          -8.5312  -15.2903   26.7770 C.3     1  UNL1        0.0233
      3 C          -7.3046  -15.3673   27.6370 C.3     1  UNL1        0.0233
      4 C          -6.1369  -15.6867   26.7512 C.3     1  UNL1        0.0935
      5 N          -6.6419  -15.8071   25.3439 N.am    1  UNL1       -0.2794
      6 C          -5.8127  -16.1180   24.1332 C.2     1  UNL1        0.2270
      7 O          -6.4604  -16.2067   22.7832 O.2     1  UNL1       -0.2748
      8 C          -9.0320  -15.5850   24.1679 C.3     1  UNL1        0.1093
      9 C          -9.8365  -17.0628   22.1882 C.2     1  UNL1        0.2838
     10 O          -9.5843  -15.9287   21.2393 O.2     1  UNL1       -0.2692
     11 N          -9.5603  -16.8909   23.6525 N.am    1  UNL1       -0.2983
     12 H          -9.7258  -17.6352   24.2753 H       1  UNL1        0.1497
     13 C         -10.8930  -19.6745   21.1576 C.3     1  UNL1        0.0821
     14 C         -10.3648  -18.3687   21.6729 C.3     1  UNL1        0.3304
     15 F         -10.3851  -17.8110   20.2805 F       1  UNL1       -0.1946
     16 F         -10.3444  -18.9263   23.0653 F       1  UNL1       -0.1946
     17 C          -4.3358  -16.3401   24.2726 C.3     1  UNL1        0.1010
     18 C          -3.5142  -16.6970   23.0694 C.3     1  UNL1        0.0644
     19 N          -3.1269  -15.6347   22.0838 N.3     1  UNL1       -0.3215
     20 H          -3.5040  -14.7365   22.3862 H       1  UNL1        0.1188
     21 H          -3.5033  -15.8695   21.1653 H       1  UNL1        0.1188
     22 C          -3.0799  -18.1161   22.8519 C.3     1  UNL1        0.0447
     23 C          -3.9191  -19.0378   22.0174 C.ar    1  UNL1        0.0090
     24 C          -5.3741  -19.2197   22.3334 C.ar    1  UNL1        0.0300
     25 C          -6.2133  -20.1413   21.4989 C.ar    1  UNL1        0.1672
     26 F          -7.6683  -20.3232   21.8149 F       1  UNL1       -0.2018
     27 C          -5.5974  -20.8810   20.3485 C.ar    1  UNL1        0.1696
     28 F          -6.4367  -21.8027   19.5140 F       1  UNL1       -0.2017
     29 C          -4.1424  -20.6992   20.0325 C.ar    1  UNL1        0.0612
     30 C          -3.3033  -19.7776   20.8670 C.ar    1  UNL1        0.1386
     31 F          -1.8482  -19.5956   20.5510 F       1  UNL1       -0.2044
@<TRIPOS>BOND
     1    13    14    1
     2    14    15    1
     3    14    16    1
     4    14     9    1
     5     9    10    2
     6     9    11   am
     7    11     8    1
     8     1     8    1
     9     1     2    1
    10     2     3    1
    11     3     4    1
    12     4     5    1
    13     5     6   am
    14     6     7    2
    15     6    17    1
    16    17    18    1
    17    18    19    1
    18    18    22    1
    19    22    23    1
    20    23    24   ar
    21    24    25   ar
    22    25    26    1
    23    25    27   ar
    24    27    28    1
    25    27    29   ar
    26    29    30   ar
    27    30    31    1
    28     5     1    1
    29    30    23   ar
    30    11    12    1
    31    19    20    1
    32    19    21    1
@<TRIPOS>MOLECULE
*****
 31 32 0 0 0
SMALL
GASTEIGER

@<TRIPOS>ATOM
      1 C          -4.1451  -17.4169   23.0065 C.3     1  UNL1        0.0949
      2 C          -2.6924  -17.7688   22.8812 C.3     1  UNL1        0.0233
      3 C          -2.5935  -19.0786   22.1568 C.3     1  UNL1        0.0233
      4 C          -3.9851  -19.5362   21.8345 C.3     1  UNL1        0.0935
      5 N          -4.9441  -18.5092   22.3596 N.am    1  UNL1       -0.2794
      6 C          -6.4394  -18.5647   22.2560 C.2     1  UNL1        0.2270
      7 O          -7.2727  -17.4582   22.8315 O.2     1  UNL1       -0.2748
      8 C          -4.7012  -16.1884   23.6634 C.3     1  UNL1        0.1093
      9 C          -6.6960  -15.4307   25.1455 C.2     1  UNL1        0.2838
     10 O          -7.0920  -14.4298   24.1007 O.2     1  UNL1       -0.2692
     11 N          -5.5006  -16.3099   24.9268 N.am    1  UNL1       -0.2983
     12 H          -5.2407  -16.9668   25.6125 H       1  UNL1        0.1497
     13 C          -8.2947  -15.6739   27.6723 C.3     1  UNL1        0.0821
     14 C          -7.4954  -15.5523   26.4089 C.3     1  UNL1        0.3304
     15 F          -8.7580  -15.3235   25.6321 F       1  UNL1       -0.1946
     16 F          -6.2327  -15.7810   27.1857 F       1  UNL1       -0.1946
     17 C          -7.1015  -19.7268   21.5769 C.3     1  UNL1        0.1010
     18 C          -7.9660  -19.4985   20.3724 C.3     1  UNL1        0.0644
     19 N          -7.3491  -19.0511   19.0804 N.3     1  UNL1       -0.3215
     20 H          -6.3410  -18.9531   19.2010 H       1  UNL1        0.1188
     21 H          -7.7477  -18.1531   18.8064 H       1  UNL1        0.1188
     22 C          -9.4473  -19.7176   20.4600 C.3     1  UNL1        0.0447
     23 C         -10.3319  -18.6459   21.0247 C.ar    1  UNL1        0.0090
     24 C         -11.0028  -17.6667   20.1075 C.ar    1  UNL1        0.0300
     25 C         -11.8874  -16.5950   20.6722 C.ar    1  UNL1        0.1672
     26 F         -12.5583  -15.6158   19.7550 F       1  UNL1       -0.2018
     27 C         -12.1012  -16.5024   22.1540 C.ar    1  UNL1        0.1696
     28 F         -12.9858  -15.4307   22.7186 F       1  UNL1       -0.2017
     29 C         -11.4303  -17.4816   23.0711 C.ar    1  UNL1        0.0612
     30 C         -10.5457  -18.5533   22.5065 C.ar    1  UNL1        0.1386
     31 F          -9.8748  -19.5325   23.4236 F       1  UNL1       -0.2044
@<TRIPOS>BOND
     1    13    14    1
     2    14    15    1
     3    14    16    1
     4    14     9    1
     5     9    10    2
     6     9    11   am
     7    11     8    1
     8     1     8    1
     9     1     2    1
    10     2     3    1
    11     3     4    1
    12     4     5    1
    13     5     6   am
    14     6     7    2
    15     6    17    1
    16    17    18    1
    17    18    19    1
    18    18    22    1
    19    22    23    1
    20    23    24   ar
    21    24    25   ar
    22    25    26    1
    23    25    27   ar
    24    27    28    1
    25    27    29   ar
    26    29    30   ar
    27    30    31    1
    28     5     1    1
    29    30    23   ar
    30    11    12    1
    31    19    20    1
    32    19    21    1
@<TRIPOS>MOLECULE
*****
 31 32 0 0 0
SMALL
GASTEIGER

@<TRIPOS>ATOM
      1 C          -5.5071  -18.9196   22.1222 C.3     1  UNL1        0.0949
      2 C          -6.1331  -19.8482   21.1243 C.3     1  UNL1        0.0233
      3 C          -7.4842  -19.3028   20.7675 C.3     1  UNL1        0.0233
      4 C          -7.6931  -18.0372   21.5450 C.3     1  UNL1        0.0935
      5 N          -6.4712  -17.8003   22.3822 N.am    1  UNL1       -0.2794
      6 C          -6.2520  -16.6468   23.3156 C.2     1  UNL1        0.2270
      7 O          -4.9724  -16.5423   24.0912 O.2     1  UNL1       -0.2748
      8 C          -4.1545  -19.0818   22.7499 C.3     1  UNL1        0.1093
      9 C          -2.3356  -17.7732   21.4346 C.2     1  UNL1        0.2838
     10 O          -2.9781  -16.4781   21.8348 O.2     1  UNL1       -0.2692
     11 N          -2.9238  -19.0750   21.8922 N.am    1  UNL1       -0.2983
     12 H          -2.5022  -19.9250   21.6295 H       1  UNL1        0.1497
     13 C           0.1255  -17.7598   19.7193 C.3     1  UNL1        0.0821
     14 C          -1.1050  -17.7665   20.5770 C.3     1  UNL1        0.3304
     15 F          -0.9177  -16.3049   20.8572 F       1  UNL1       -0.1946
     16 F          -1.2924  -19.2282   20.2968 F       1  UNL1       -0.1946
     17 C          -7.3124  -15.5977   23.4733 C.3     1  UNL1        0.1010
     18 C          -8.0853  -15.4992   24.7552 C.3     1  UNL1        0.0644
     19 N          -7.4083  -15.0173   26.0039 N.3     1  UNL1       -0.3215
     20 H          -6.4322  -14.8026   25.8003 H       1  UNL1        0.1188
     21 H          -7.4547  -15.7442   26.7180 H       1  UNL1        0.1188
     22 C          -9.5350  -15.8827   24.7882 C.3     1  UNL1        0.0447
     23 C          -9.9938  -17.1405   24.1117 C.ar    1  UNL1        0.0090
     24 C          -9.4594  -18.4694   24.5571 C.ar    1  UNL1        0.0300
     25 C          -9.9181  -19.7271   23.8806 C.ar    1  UNL1        0.1672
     26 F          -9.3837  -21.0561   24.3259 F       1  UNL1       -0.2018
     27 C         -10.9112  -19.6559   22.7587 C.ar    1  UNL1        0.1696
     28 F         -11.3699  -20.9137   22.0822 F       1  UNL1       -0.2017
     29 C         -11.4456  -18.3270   22.3133 C.ar    1  UNL1        0.0612
     30 C         -10.9869  -17.0693   22.9898 C.ar    1  UNL1        0.1386
     31 F         -11.5213  -15.7403   22.5444 F       1  UNL1       -0.2044
@<TRIPOS>BOND
     1    13    14    1
     2    14    15    1
     3    14    16    1
     4    14     9    1
     5     9    10    2
     6     9    11   am
     7    11     8    1
     8     1     8    1
     9     1     2    1
    10     2     3    1
    11     3     4    1
    12     4     5    1
    13     5     6   am
    14     6     7    2
    15     6    17    1
    16    17    18    1
    17    18    19    1
    18    18    22    1
    19    22    23    1
    20    23    24   ar
    21    24    25   ar
    22    25    26    1
    23    25    27   ar
    24    27    28    1
    25    27    29   ar
    26    29    30   ar
    27    30    31    1
    28     5     1    1
    29    30    23   ar
    30    11    12    1
    31    19    20    1
    32    19    21    1
@<TRIPOS>MOLECULE
*****
 31 32 0 0 0
SMALL
GASTEIGER

@<TRIPOS>ATOM
      1 C          -8.3259  -19.5457   20.0895 C.3     1  UNL1        0.0949
      2 C          -9.2557  -19.2644   18.9466 C.3     1  UNL1        0.0233
      3 C         -10.6478  -19.1624   19.4959 C.3     1  UNL1        0.0233
      4 C         -10.5783  -19.3807   20.9783 C.3     1  UNL1        0.0935
      5 N          -9.1432  -19.6176   21.3451 N.am    1  UNL1       -0.2794
      6 C          -8.6178  -19.8802   22.7253 C.2     1  UNL1        0.2270
      7 O          -7.1495  -20.0998   22.9397 O.2     1  UNL1       -0.2748
      8 C          -6.8396  -19.7238   19.9935 C.3     1  UNL1        0.1093
      9 C          -4.4878  -19.2037   20.9677 C.2     1  UNL1        0.2838
     10 O          -3.9662  -20.4878   20.3939 O.2     1  UNL1       -0.2692
     11 N          -5.9245  -18.8218   20.7675 N.am    1  UNL1       -0.2983
     12 H          -6.2668  -17.9790   21.1441 H       1  UNL1        0.1497
     13 C          -2.6578  -17.3997   22.5155 C.3     1  UNL1        0.0821
     14 C          -3.5728  -18.3017   21.7417 C.3     1  UNL1        0.3304
     15 F          -4.2238  -18.7385   23.0205 F       1  UNL1       -0.1946
     16 F          -2.9218  -17.8649   20.4628 F       1  UNL1       -0.1946
     17 C          -9.5606  -19.9232   23.8911 C.3     1  UNL1        0.1010
     18 C         -10.3731  -18.7125   24.2437 C.3     1  UNL1        0.0644
     19 N         -11.6024  -18.8551   25.0913 N.3     1  UNL1       -0.3215
     20 H         -11.7347  -19.8364   25.3361 H       1  UNL1        0.1188
     21 H         -12.4143  -18.5220   24.5715 H       1  UNL1        0.1188
     22 C          -9.9561  -17.3593   23.7488 C.3     1  UNL1        0.0447
     23 C          -8.7118  -16.7154   24.2846 C.ar    1  UNL1        0.0090
     24 C          -8.6075  -16.3838   25.7437 C.ar    1  UNL1        0.0300
     25 C          -7.3632  -15.7399   26.2795 C.ar    1  UNL1        0.1672
     26 F          -7.2589  -15.4083   27.7387 F       1  UNL1       -0.2018
     27 C          -6.2232  -15.4275   25.3560 C.ar    1  UNL1        0.1696
     28 F          -4.9788  -14.7836   25.8918 F       1  UNL1       -0.2017
     29 C          -6.3274  -15.7591   23.8969 C.ar    1  UNL1        0.0612
     30 C          -7.5717  -16.4031   23.3612 C.ar    1  UNL1        0.1386
     31 F          -7.6760  -16.7347   21.9020 F       1  UNL1       -0.2044
@<TRIPOS>BOND
     1    13    14    1
     2    14    15    1
     3    14    16    1
     4    14     9    1
     5     9    10    2
     6     9    11   am
     7    11     8    1
     8     1     8    1
     9     1     2    1
    10     2     3    1
    11     3     4    1
    12     4     5    1
    13     5     6   am
    14     6     7    2
    15     6    17    1
    16    17    18    1
    17    18    19    1
    18    18    22    1
    19    22    23    1
    20    23    24   ar
    21    24    25   ar
    22    25    26    1
    23    25    27   ar
    24    27    28    1
    25    27    29   ar
    26    29    30   ar
    27    30    31    1
    28     5     1    1
    29    30    23   ar
    30    11    12    1
    31    19    20    1
    32    19    21    1
@<TRIPOS>MOLECULE
*****
 31 32 0 0 0
SMALL
GASTEIGER

@<TRIPOS>ATOM
      1 C          -7.8573  -19.8236   19.9398 C.3     1  UNL1        0.0949
      2 C          -8.4296  -19.9445   18.5586 C.3     1  UNL1        0.0233
      3 C          -9.8945  -19.6310   18.6347 C.3     1  UNL1        0.0233
      4 C         -10.2275  -19.3162   20.0630 C.3     1  UNL1        0.0935
      5 N          -8.9684  -19.4353   20.8696 N.am    1  UNL1       -0.2794
      6 C          -8.8425  -19.2062   22.3466 C.2     1  UNL1        0.2270
      7 O          -7.5110  -19.3633   23.0192 O.2     1  UNL1       -0.2748
      8 C          -6.4252  -20.0510   20.3237 C.3     1  UNL1        0.1093
      9 C          -4.1331  -19.0768   21.0638 C.2     1  UNL1        0.2838
     10 O          -3.4564  -20.3463   20.6388 O.2     1  UNL1       -0.2692
     11 N          -5.6175  -18.9292   20.9062 N.am    1  UNL1       -0.2983
     12 H          -6.0617  -18.0960   21.1851 H       1  UNL1        0.1497
     13 C          -2.5180  -16.8331   22.2286 C.3     1  UNL1        0.0821
     14 C          -3.3255  -17.9549   21.6462 C.3     1  UNL1        0.3304
     15 F          -2.3459  -18.0736   20.5165 F       1  UNL1       -0.1946
     16 F          -4.3052  -17.8363   22.7759 F       1  UNL1       -0.1946
     17 C         -10.0482  -18.8202   23.1511 C.3     1  UNL1        0.1010
     18 C          -9.8787  -18.2111   24.5114 C.3     1  UNL1        0.0644
     19 N          -9.9296  -19.0793   25.7335 N.3     1  UNL1       -0.3215
     20 H         -10.0855  -20.0483   25.4559 H       1  UNL1        0.1188
     21 H         -10.6919  -18.7718   26.3375 H       1  UNL1        0.1188
     22 C          -9.6582  -16.7339   24.6495 C.3     1  UNL1        0.0447
     23 C          -8.3120  -16.2112   25.0556 C.ar    1  UNL1        0.0090
     24 C          -7.3247  -15.7881   24.0087 C.ar    1  UNL1        0.0300
     25 C          -5.9787  -15.2654   24.4148 C.ar    1  UNL1        0.1672
     26 F          -4.9913  -14.8423   23.3678 F       1  UNL1       -0.2018
     27 C          -5.6199  -15.1659   25.8678 C.ar    1  UNL1        0.1696
     28 F          -4.2738  -14.6432   26.2739 F       1  UNL1       -0.2017
     29 C          -6.6073  -15.5890   26.9148 C.ar    1  UNL1        0.0612
     30 C          -7.9533  -16.1116   26.5087 C.ar    1  UNL1        0.1386
     31 F          -8.9407  -16.5348   27.5557 F       1  UNL1       -0.2044
@<TRIPOS>BOND
     1    13    14    1
     2    14    15    1
     3    14    16    1
     4    14     9    1
     5     9    10    2
     6     9    11   am
     7    11     8    1
     8     1     8    1
     9     1     2    1
    10     2     3    1
    11     3     4    1
    12     4     5    1
    13     5     6   am
    14     6     7    2
    15     6    17    1
    16    17    18    1
    17    18    19    1
    18    18    22    1
    19    22    23    1
    20    23    24   ar
    21    24    25   ar
    22    25    26    1
    23    25    27   ar
    24    27    28    1
    25    27    29   ar
    26    29    30   ar
    27    30    31    1
    28     5     1    1
    29    30    23   ar
    30    11    12    1
    31    19    20    1
    32    19    21    1
