@<TRIPOS>MOLECULE
*****
 41 44 0 0 0
SMALL
GASTEIGER

@<TRIPOS>ATOM
      1 C          -0.6406    1.9761   27.3978 C.ar    1  UNL1        0.0001
      2 C           0.6936    2.6525   27.5083 C.ar    1  UNL1       -0.0003
      3 C           1.8117    1.9881   28.2558 C.ar    1  UNL1       -0.0042
      4 C           1.5954    0.6474   28.8928 C.ar    1  UNL1       -0.0206
      5 C           0.2611   -0.0290   28.7823 C.ar    1  UNL1       -0.0042
      6 C          -0.8569    0.6353   28.0348 C.ar    1  UNL1       -0.0003
      7 C           2.7134   -0.0168   29.6402 C.3     1  UNL1        0.0483
      8 C           2.7777   -0.2304   31.1236 C.3     1  UNL1        0.0770
      9 N           4.0675   -0.9298   31.4358 N.3     1  UNL1       -0.2698
     10 C           4.8003   -1.1485   30.1454 C.3     1  UNL1        0.0816
     11 C           3.9634   -0.5842   29.0357 C.3     1  UNL1        0.0981
     12 C           4.3149   -0.5869   27.5774 C.2     1  UNL1        0.2274
     13 O           5.4010    0.3125   27.0661 O.2     1  UNL1       -0.2747
     14 N           3.5803   -1.4890   26.6306 N.am    1  UNL1       -0.2839
     15 H           2.8675   -2.0793   26.9662 H       1  UNL1        0.1549
     16 C           3.9318   -1.4917   25.1723 C.ar    1  UNL1        0.0504
     17 C           3.1511   -0.6452   24.2111 C.ar    1  UNL1        0.0155
     18 C           3.5026   -0.6479   22.7529 C.ar    1  UNL1        0.0127
     19 C           4.6347   -1.4970   22.2558 C.ar    1  UNL1        0.0578
     20 CL          4.9862   -1.4997   20.7976 Cl      1  UNL1       -0.0822
     21 C           5.4154   -2.3435   23.2171 C.ar    1  UNL1        0.0127
     22 C           5.0640   -2.3408   24.6753 C.ar    1  UNL1        0.0155
     23 C           4.5412   -1.3386   32.7990 C.3     1  UNL1        0.1043
     24 C           4.6858   -2.7927   33.1379 C.3     1  UNL1        0.1544
     25 O           3.5286   -3.5445   33.7258 O.3     1  UNL1       -0.3805
     26 H           3.3279   -3.1918   34.6068 H       1  UNL1        0.2105
     27 C          -1.5209    3.1836   25.2725 C.2     1  UNL1        0.0580
     28 C          -1.7586    2.6403   26.6503 C.2     1  UNL1        0.0047
     29 N          -3.9623    3.1560   24.3844 N.am    1  UNL1       -0.2794
     30 C          -2.6389    3.8479   24.5250 C.2     1  UNL1        0.2497
     31 O          -2.4335    5.2042   23.9181 O.2     1  UNL1       -0.2698
     32 H          -4.0972    2.2658   24.7827 H       1  UNL1        0.1552
     33 N          -4.3015    2.6642   21.4445 N.pl3   1  UNL1       -0.3560
     34 C          -5.2499    3.5744   22.1669 C.ar    1  UNL1        0.0552
     35 C          -6.3679    4.2387   21.4195 C.ar    1  UNL1        0.0153
     36 C          -7.3163    5.1489   22.1419 C.ar    1  UNL1        0.0013
     37 C          -7.1468    5.3948   23.6118 C.ar    1  UNL1        0.0014
     38 C          -6.0288    4.7305   24.3593 C.ar    1  UNL1        0.0159
     39 C          -5.0804    3.8203   23.6368 C.ar    1  UNL1        0.0636
     40 H          -4.4127    2.5028   20.4797 H       1  UNL1        0.1424
     41 H          -3.5677    2.2281   21.9351 H       1  UNL1        0.1424
@<TRIPOS>BOND
     1    33    34    1
     2    34    35   ar
     3    35    36   ar
     4    36    37   ar
     5    37    38   ar
     6    38    39   ar
     7    39    29    1
     8    29    30   am
     9    30    31    2
    10    30    27    1
    11    27    28    2
    12    28     1    1
    13     1     2   ar
    14     2     3   ar
    15     3     4   ar
    16     7     4    1
    17     7     8    1
    18     8     9    1
    19     9    23    1
    20    23    24    1
    21    24    25    1
    22     9    10    1
    23    10    11    1
    24    11    12    1
    25    12    13    2
    26    12    14   am
    27    14    16    1
    28    16    17   ar
    29    17    18   ar
    30    18    19   ar
    31    19    20    1
    32    19    21   ar
    33    21    22   ar
    34     4     5   ar
    35     5     6   ar
    36    39    34   ar
    37     6     1   ar
    38    11     7    1
    39    22    16   ar
    40    33    40    1
    41    33    41    1
    42    29    32    1
    43    25    26    1
    44    14    15    1
@<TRIPOS>MOLECULE
*****
 41 44 0 0 0
SMALL
GASTEIGER

@<TRIPOS>ATOM
      1 C          -0.5278    1.7437   27.8010 C.ar    1  UNL1        0.0001
      2 C          -0.6737    0.4049   28.4616 C.ar    1  UNL1       -0.0003
      3 C           0.5290   -0.2825   29.0370 C.ar    1  UNL1       -0.0042
      4 C           1.8775    0.3688   28.9519 C.ar    1  UNL1       -0.0206
      5 C           2.0234    1.7076   28.2913 C.ar    1  UNL1       -0.0042
      6 C           0.8208    2.3951   27.7159 C.ar    1  UNL1       -0.0003
      7 C           3.0801   -0.3186   29.5273 C.3     1  UNL1        0.0483
      8 C           3.3133   -0.6201   30.9781 C.3     1  UNL1        0.0770
      9 N           4.6380   -1.3131   31.1005 N.3     1  UNL1       -0.2698
     10 C           5.2235   -1.4400   29.7253 C.3     1  UNL1        0.0816
     11 C           4.2606   -0.8253   28.7530 C.3     1  UNL1        0.0981
     12 C           4.4459   -0.7336   27.2673 C.2     1  UNL1        0.2274
     13 O           5.4248    0.2470   26.6927 O.2     1  UNL1       -0.2747
     14 N           3.6522   -1.6224   26.3563 N.am    1  UNL1       -0.2839
     15 H           3.0096   -2.2659   26.7334 H       1  UNL1        0.1549
     16 C           3.8374   -1.5306   24.8706 C.ar    1  UNL1        0.0504
     17 C           4.8313   -2.4186   24.1824 C.ar    1  UNL1        0.0155
     18 C           5.0165   -2.3269   22.6968 C.ar    1  UNL1        0.0127
     19 C           4.2079   -1.3471   21.8992 C.ar    1  UNL1        0.0578
     20 CL          4.3931   -1.2554   20.4135 Cl      1  UNL1       -0.0822
     21 C           3.2140   -0.4591   22.5873 C.ar    1  UNL1        0.0127
     22 C           3.0287   -0.5509   24.0730 C.ar    1  UNL1        0.0155
     23 C           5.2667   -1.7946   32.3743 C.3     1  UNL1        0.1043
     24 C           4.4060   -2.1235   33.5579 C.3     1  UNL1        0.1544
     25 O           3.6802   -3.4349   33.6163 O.3     1  UNL1       -0.3805
     26 H           3.0104   -3.4653   32.9153 H       1  UNL1        0.2105
     27 C          -1.5658    3.4258   26.1150 C.2     1  UNL1        0.0580
     28 C          -1.7304    2.4311   27.2256 C.2     1  UNL1        0.0047
     29 N          -4.1448    3.7082   25.9769 N.am    1  UNL1       -0.2794
     30 C          -2.7684    4.1133   25.5395 C.2     1  UNL1        0.2497
     31 O          -2.5945    5.2059   24.5266 O.2     1  UNL1       -0.2698
     32 H          -4.2589    2.9911   26.6417 H       1  UNL1        0.1552
     33 N          -5.2015    2.8856   23.2923 N.pl3   1  UNL1       -0.3560
     34 C          -5.8757    3.9844   24.0592 C.ar    1  UNL1        0.0552
     35 C          -7.0783    4.6719   23.4838 C.ar    1  UNL1        0.0153
     36 C          -7.7525    5.7707   24.2506 C.ar    1  UNL1        0.0013
     37 C          -7.2242    6.1820   25.5929 C.ar    1  UNL1        0.0014
     38 C          -6.0217    5.4945   26.1683 C.ar    1  UNL1        0.0159
     39 C          -5.3474    4.3957   25.4014 C.ar    1  UNL1        0.0636
     40 H          -5.5482    2.6157   22.4114 H       1  UNL1        0.1424
     41 H          -4.4122    2.4344   23.6700 H       1  UNL1        0.1424
@<TRIPOS>BOND
     1    33    34    1
     2    34    35   ar
     3    35    36   ar
     4    36    37   ar
     5    37    38   ar
     6    38    39   ar
     7    39    29    1
     8    29    30   am
     9    30    31    2
    10    30    27    1
    11    27    28    2
    12    28     1    1
    13     1     2   ar
    14     2     3   ar
    15     3     4   ar
    16     7     4    1
    17     7     8    1
    18     8     9    1
    19     9    23    1
    20    23    24    1
    21    24    25    1
    22     9    10    1
    23    10    11    1
    24    11    12    1
    25    12    13    2
    26    12    14   am
    27    14    16    1
    28    16    17   ar
    29    17    18   ar
    30    18    19   ar
    31    19    20    1
    32    19    21   ar
    33    21    22   ar
    34     4     5   ar
    35     5     6   ar
    36    39    34   ar
    37     6     1   ar
    38    11     7    1
    39    22    16   ar
    40    33    40    1
    41    33    41    1
    42    29    32    1
    43    25    26    1
    44    14    15    1
@<TRIPOS>MOLECULE
*****
 41 44 0 0 0
SMALL
GASTEIGER

@<TRIPOS>ATOM
      1 C           6.4325   -2.3949   32.4458 C.ar    1  UNL1        0.0001
      2 C           7.1399   -1.2146   33.0427 C.ar    1  UNL1       -0.0003
      3 C           6.4264   -0.3280   34.0199 C.ar    1  UNL1       -0.0042
      4 C           5.0055   -0.6217   34.4001 C.ar    1  UNL1       -0.0206
      5 C           4.2980   -1.8021   33.8033 C.ar    1  UNL1       -0.0042
      6 C           5.0115   -2.6887   32.8261 C.ar    1  UNL1       -0.0003
      7 C           4.2920    0.2648   35.3773 C.3     1  UNL1        0.0483
      8 C           4.3488    0.1546   36.8722 C.3     1  UNL1        0.0770
      9 N           3.4884    1.2390   37.4500 N.3     1  UNL1       -0.2698
     10 C           2.8997    2.0194   36.3122 C.3     1  UNL1        0.0816
     11 C           3.3964    1.4173   35.0312 C.3     1  UNL1        0.0981
     12 C           3.0571    1.8855   33.6471 C.2     1  UNL1        0.2274
     13 O           4.1490    2.3088   32.7098 O.2     1  UNL1       -0.2747
     14 N           1.6259    1.9305   33.2004 N.am    1  UNL1       -0.2839
     15 H           0.9092    1.6527   33.8157 H       1  UNL1        0.1549
     16 C           1.2866    2.3987   31.8164 C.ar    1  UNL1        0.0504
     17 C           1.3035    1.4297   30.6716 C.ar    1  UNL1        0.0155
     18 C           0.9642    1.8979   29.2875 C.ar    1  UNL1        0.0127
     19 C           0.6079    3.3351   29.0482 C.ar    1  UNL1        0.0578
     20 CL          0.2686    3.8034   27.6642 Cl      1  UNL1       -0.0822
     21 C           0.5909    4.3042   30.1930 C.ar    1  UNL1        0.0127
     22 C           0.9303    3.8360   31.5771 C.ar    1  UNL1        0.0155
     23 C           3.2571    1.4975   38.9093 C.3     1  UNL1        0.1043
     24 C           1.9823    1.0462   39.5582 C.3     1  UNL1        0.1544
     25 O           1.4816   -0.3504   39.3370 O.3     1  UNL1       -0.3805
     26 H           1.2377   -0.4626   38.4049 H       1  UNL1        0.2105
     27 C           6.6391   -3.4085   30.0626 C.2     1  UNL1        0.0580
     28 C           7.1459   -3.2815   31.4686 C.2     1  UNL1        0.0047
     29 N           6.5730   -5.2526   28.2337 N.am    1  UNL1       -0.2794
     30 C           7.3526   -4.2951   29.0854 C.2     1  UNL1        0.2497
     31 O           8.8457   -4.2242   28.9599 O.2     1  UNL1       -0.2698
     32 H           5.5931   -5.2992   28.3160 H       1  UNL1        0.1552
     33 N           6.4774   -4.6337   25.2997 N.pl3   1  UNL1       -0.3560
     34 C           7.2387   -5.8298   25.7895 C.ar    1  UNL1        0.0552
     35 C           7.9521   -6.7164   24.8123 C.ar    1  UNL1        0.0153
     36 C           8.7134   -7.9124   25.3021 C.ar    1  UNL1        0.0013
     37 C           8.7612   -8.2219   26.7690 C.ar    1  UNL1        0.0014
     38 C           8.0477   -7.3353   27.7462 C.ar    1  UNL1        0.0159
     39 C           7.2865   -6.1392   27.2564 C.ar    1  UNL1        0.0636
     40 H           6.4461   -4.4305   24.3369 H       1  UNL1        0.1424
     41 H           6.0092   -4.0517   25.9411 H       1  UNL1        0.1424
@<TRIPOS>BOND
     1    33    34    1
     2    34    35   ar
     3    35    36   ar
     4    36    37   ar
     5    37    38   ar
     6    38    39   ar
     7    39    29    1
     8    29    30   am
     9    30    31    2
    10    30    27    1
    11    27    28    2
    12    28     1    1
    13     1     2   ar
    14     2     3   ar
    15     3     4   ar
    16     7     4    1
    17     7     8    1
    18     8     9    1
    19     9    23    1
    20    23    24    1
    21    24    25    1
    22     9    10    1
    23    10    11    1
    24    11    12    1
    25    12    13    2
    26    12    14   am
    27    14    16    1
    28    16    17   ar
    29    17    18   ar
    30    18    19   ar
    31    19    20    1
    32    19    21   ar
    33    21    22   ar
    34     4     5   ar
    35     5     6   ar
    36    39    34   ar
    37     6     1   ar
    38    11     7    1
    39    22    16   ar
    40    33    40    1
    41    33    41    1
    42    29    32    1
    43    25    26    1
    44    14    15    1
@<TRIPOS>MOLECULE
*****
 41 44 0 0 0
SMALL
GASTEIGER

@<TRIPOS>ATOM
      1 C           1.0362    2.6883   26.9261 C.ar    1  UNL1        0.0001
      2 C           0.2781    1.5680   26.2778 C.ar    1  UNL1       -0.0003
      3 C          -0.6740    1.8575   25.1554 C.ar    1  UNL1       -0.0042
      4 C          -0.8679    3.2673   24.6812 C.ar    1  UNL1       -0.0206
      5 C          -0.1098    4.3876   25.3295 C.ar    1  UNL1       -0.0042
      6 C           0.8422    4.0981   26.4518 C.ar    1  UNL1       -0.0003
      7 C          -1.8199    3.5568   23.5589 C.3     1  UNL1        0.0483
      8 C          -3.1589    4.2208   23.6875 C.3     1  UNL1        0.0770
      9 N          -3.7667    4.3075   22.3189 N.3     1  UNL1       -0.2698
     10 C          -2.8035    3.6971   21.3444 C.3     1  UNL1        0.0816
     11 C          -1.6003    3.2331   22.1107 C.3     1  UNL1        0.0981
     12 C          -0.3900    2.5631   21.5308 C.2     1  UNL1        0.2274
     13 O           0.9820    3.0518   21.8896 O.2     1  UNL1       -0.2747
     14 N          -0.5518    1.4045   20.5920 N.am    1  UNL1       -0.2839
     15 H          -1.4523    1.0838   20.3565 H       1  UNL1        0.1549
     16 C           0.6585    0.7345   20.0120 C.ar    1  UNL1        0.0504
     17 C           1.2259   -0.4886   20.6693 C.ar    1  UNL1        0.0155
     18 C           2.4362   -1.1586   20.0894 C.ar    1  UNL1        0.0127
     19 C           3.0790   -0.6056   18.8521 C.ar    1  UNL1        0.0578
     20 CL          4.2893   -1.2756   18.2722 Cl      1  UNL1       -0.0822
     21 C           2.5116    0.6175   18.1948 C.ar    1  UNL1        0.0127
     22 C           1.3013    1.2875   18.7748 C.ar    1  UNL1        0.0155
     23 C          -5.1030    4.9005   21.9837 C.3     1  UNL1        0.1043
     24 C          -6.3006    4.5751   22.8262 C.3     1  UNL1        0.1544
     25 O          -7.6362    4.3572   22.1791 O.3     1  UNL1       -0.3805
     26 H          -7.9404    5.1865   21.7783 H       1  UNL1        0.2105
     27 C           2.0239    1.0334   28.6683 C.2     1  UNL1        0.0580
     28 C           1.9882    2.3988   28.0484 C.2     1  UNL1        0.0047
     29 N           2.5963   -0.2342   30.8627 N.am    1  UNL1       -0.2794
     30 C           2.9760    0.7438   29.7907 C.2     1  UNL1        0.2497
     31 O           4.3077    1.4323   29.8410 O.2     1  UNL1       -0.2698
     32 H           1.7223   -0.6861   30.8297 H       1  UNL1        0.1552
     33 N           2.4989    1.4055   33.3731 N.pl3   1  UNL1       -0.3560
     34 C           3.4996    0.2961   33.2403 C.ar    1  UNL1        0.0552
     35 C           4.4517    0.0065   34.3627 C.ar    1  UNL1        0.0153
     36 C           5.4525   -1.1029   34.2299 C.ar    1  UNL1        0.0013
     37 C           5.5012   -1.9227   32.9748 C.ar    1  UNL1        0.0014
     38 C           4.5492   -1.6332   31.8524 C.ar    1  UNL1        0.0159
     39 C           3.5484   -0.5238   31.9852 C.ar    1  UNL1        0.0636
     40 H           2.4669    1.9436   34.1969 H       1  UNL1        0.1424
     41 H           1.8740    1.5955   32.6364 H       1  UNL1        0.1424
@<TRIPOS>BOND
     1    33    34    1
     2    34    35   ar
     3    35    36   ar
     4    36    37   ar
     5    37    38   ar
     6    38    39   ar
     7    39    29    1
     8    29    30   am
     9    30    31    2
    10    30    27    1
    11    27    28    2
    12    28     1    1
    13     1     2   ar
    14     2     3   ar
    15     3     4   ar
    16     7     4    1
    17     7     8    1
    18     8     9    1
    19     9    23    1
    20    23    24    1
    21    24    25    1
    22     9    10    1
    23    10    11    1
    24    11    12    1
    25    12    13    2
    26    12    14   am
    27    14    16    1
    28    16    17   ar
    29    17    18   ar
    30    18    19   ar
    31    19    20    1
    32    19    21   ar
    33    21    22   ar
    34     4     5   ar
    35     5     6   ar
    36    39    34   ar
    37     6     1   ar
    38    11     7    1
    39    22    16   ar
    40    33    40    1
    41    33    41    1
    42    29    32    1
    43    25    26    1
    44    14    15    1
@<TRIPOS>MOLECULE
*****
 41 44 0 0 0
SMALL
GASTEIGER

@<TRIPOS>ATOM
      1 C           4.9729   -0.3965   35.5813 C.ar    1  UNL1        0.0001
      2 C           6.3198   -0.1560   34.9664 C.ar    1  UNL1       -0.0003
      3 C           6.6733   -0.8006   33.6589 C.ar    1  UNL1       -0.0042
      4 C           5.6799   -1.6856   32.9662 C.ar    1  UNL1       -0.0206
      5 C           4.3330   -1.9262   33.5811 C.ar    1  UNL1       -0.0042
      6 C           3.9795   -1.2816   34.8885 C.ar    1  UNL1       -0.0003
      7 C           6.0334   -2.3302   31.6588 C.3     1  UNL1        0.0483
      8 C           6.8041   -3.6052   31.4841 C.3     1  UNL1        0.0770
      9 N           6.9254   -3.8760   30.0138 N.3     1  UNL1       -0.2698
     10 C           6.2297   -2.7682   29.2795 C.3     1  UNL1        0.0816
     11 C           5.6784   -1.8129   30.2962 C.3     1  UNL1        0.0981
     12 C           4.9075   -0.5602   30.0020 C.2     1  UNL1        0.2274
     13 O           5.6307    0.7428   29.8312 O.2     1  UNL1       -0.2747
     14 N           3.4135   -0.6106   29.8786 N.am    1  UNL1       -0.2839
     15 H           2.9388   -1.4658   29.9907 H       1  UNL1        0.1549
     16 C           2.6426    0.6420   29.5844 C.ar    1  UNL1        0.0504
     17 C           1.9940    1.4035   30.7022 C.ar    1  UNL1        0.0155
     18 C           1.2231    2.6562   30.4079 C.ar    1  UNL1        0.0127
     19 C           1.1007    3.1474   28.9960 C.ar    1  UNL1        0.0578
     20 CL          0.3298    4.4000   28.7017 Cl      1  UNL1       -0.0822
     21 C           1.7493    2.3859   27.8782 C.ar    1  UNL1        0.0127
     22 C           2.5202    1.1332   28.1724 C.ar    1  UNL1        0.0155
     23 C           7.6203   -5.0484   29.3876 C.3     1  UNL1        0.1043
     24 C           7.0483   -5.6905   28.1585 C.3     1  UNL1        0.1544
     25 O           5.5619   -5.8144   27.9994 O.3     1  UNL1       -0.3805
     26 H           5.2137   -6.4175   28.6746 H       1  UNL1        0.2105
     27 C           5.4203    1.4122   37.3918 C.2     1  UNL1        0.0580
     28 C           4.6193    0.2480   36.8887 C.2     1  UNL1        0.0047
     29 N           5.8407    3.2476   39.1819 N.am    1  UNL1       -0.2794
     30 C           5.0668    2.0568   38.6993 C.2     1  UNL1        0.2497
     31 O           3.9394    1.5105   39.5242 O.2     1  UNL1       -0.2698
     32 H           6.5807    3.6061   38.6405 H       1  UNL1        0.1552
     33 N           7.5371    2.7515   41.6061 N.pl3   1  UNL1       -0.3560
     34 C           6.3354    3.6442   41.7015 C.ar    1  UNL1        0.0552
     35 C           5.9819    4.2888   43.0089 C.ar    1  UNL1        0.0153
     36 C           4.7802    5.1814   43.1044 C.ar    1  UNL1        0.0013
     37 C           3.9320    5.4294   41.8924 C.ar    1  UNL1        0.0014
     38 C           4.2855    4.7848   40.5849 C.ar    1  UNL1        0.0159
     39 C           5.4872    3.8922   40.4895 C.ar    1  UNL1        0.0636
     40 H           8.0938    2.5888   42.4016 H       1  UNL1        0.1424
     41 H           7.7692    2.3285   40.7479 H       1  UNL1        0.1424
@<TRIPOS>BOND
     1    33    34    1
     2    34    35   ar
     3    35    36   ar
     4    36    37   ar
     5    37    38   ar
     6    38    39   ar
     7    39    29    1
     8    29    30   am
     9    30    31    2
    10    30    27    1
    11    27    28    2
    12    28     1    1
    13     1     2   ar
    14     2     3   ar
    15     3     4   ar
    16     7     4    1
    17     7     8    1
    18     8     9    1
    19     9    23    1
    20    23    24    1
    21    24    25    1
    22     9    10    1
    23    10    11    1
    24    11    12    1
    25    12    13    2
    26    12    14   am
    27    14    16    1
    28    16    17   ar
    29    17    18   ar
    30    18    19   ar
    31    19    20    1
    32    19    21   ar
    33    21    22   ar
    34     4     5   ar
    35     5     6   ar
    36    39    34   ar
    37     6     1   ar
    38    11     7    1
    39    22    16   ar
    40    33    40    1
    41    33    41    1
    42    29    32    1
    43    25    26    1
    44    14    15    1
@<TRIPOS>MOLECULE
*****
 41 44 0 0 0
SMALL
GASTEIGER

@<TRIPOS>ATOM
      1 C          -0.4305    2.6558   23.6656 C.ar    1  UNL1        0.0001
      2 C           0.1756    2.6549   22.2935 C.ar    1  UNL1       -0.0003
      3 C           1.2545    1.6707   21.9508 C.ar    1  UNL1       -0.0042
      4 C           1.7273    0.6875   22.9802 C.ar    1  UNL1       -0.0206
      5 C           1.1212    0.6884   24.3523 C.ar    1  UNL1       -0.0042
      6 C           0.0424    1.6725   24.6950 C.ar    1  UNL1       -0.0003
      7 C           2.8061   -0.2966   22.6374 C.3     1  UNL1        0.0483
      8 C           3.0610   -0.8895   21.2832 C.3     1  UNL1        0.0770
      9 N           4.2320   -1.8200   21.3975 N.3     1  UNL1       -0.2698
     10 C           4.7008   -1.8023   22.8223 C.3     1  UNL1        0.0816
     11 C           3.8196   -0.8608   23.5886 C.3     1  UNL1        0.0981
     12 C           3.9321   -0.5398   25.0495 C.2     1  UNL1        0.2274
     13 O           4.4047    0.8154   25.4855 O.2     1  UNL1       -0.2747
     14 N           3.5719   -1.5741   26.0745 N.am    1  UNL1       -0.2839
     15 H           3.2617   -2.4635   25.7884 H       1  UNL1        0.1549
     16 C           3.6844   -1.2531   27.5354 C.ar    1  UNL1        0.0504
     17 C           4.9841   -1.4684   28.2527 C.ar    1  UNL1        0.0155
     18 C           5.0966   -1.1474   29.7136 C.ar    1  UNL1        0.0127
     19 C           3.9095   -0.6112   30.4573 C.ar    1  UNL1        0.0578
     20 CL          4.0220   -0.2902   31.9183 Cl      1  UNL1       -0.0822
     21 C           2.6098   -0.3959   29.7401 C.ar    1  UNL1        0.0127
     22 C           2.4973   -0.7169   28.2791 C.ar    1  UNL1        0.0155
     23 C           4.8292   -2.6266   20.2828 C.3     1  UNL1        0.1043
     24 C           4.1863   -2.6244   18.9276 C.3     1  UNL1        0.1544
     25 O           5.0133   -2.8898   17.7046 O.3     1  UNL1       -0.3805
     26 H           5.6510   -2.1691   17.5828 H       1  UNL1        0.2105
     27 C          -2.9353    3.3449   23.6488 C.2     1  UNL1        0.0580
     28 C          -1.5093    3.6400   24.0083 C.2     1  UNL1        0.0047
     29 N          -5.2261    3.8788   24.7521 N.am    1  UNL1       -0.2794
     30 C          -4.0143    4.3291   23.9915 C.2     1  UNL1        0.2497
     31 O          -3.8813    5.7636   23.5736 O.2     1  UNL1       -0.2698
     32 H          -5.3134    2.9373   25.0264 H       1  UNL1        0.1552
     33 N          -7.6952    4.0489   23.0565 N.pl3   1  UNL1       -0.3560
     34 C          -7.5396    4.9480   24.2471 C.ar    1  UNL1        0.0552
     35 C          -8.6184    5.9321   24.5898 C.ar    1  UNL1        0.0153
     36 C          -8.4628    6.8312   25.7804 C.ar    1  UNL1        0.0013
     37 C          -7.2283    6.7462   26.6282 C.ar    1  UNL1        0.0014
     38 C          -6.1495    5.7620   26.2854 C.ar    1  UNL1        0.0159
     39 C          -6.3051    4.8629   25.0949 C.ar    1  UNL1        0.0636
     40 H          -8.5054    4.1047   22.5001 H       1  UNL1        0.1424
     41 H          -6.9871    3.4029   22.8316 H       1  UNL1        0.1424
@<TRIPOS>BOND
     1    33    34    1
     2    34    35   ar
     3    35    36   ar
     4    36    37   ar
     5    37    38   ar
     6    38    39   ar
     7    39    29    1
     8    29    30   am
     9    30    31    2
    10    30    27    1
    11    27    28    2
    12    28     1    1
    13     1     2   ar
    14     2     3   ar
    15     3     4   ar
    16     7     4    1
    17     7     8    1
    18     8     9    1
    19     9    23    1
    20    23    24    1
    21    24    25    1
    22     9    10    1
    23    10    11    1
    24    11    12    1
    25    12    13    2
    26    12    14   am
    27    14    16    1
    28    16    17   ar
    29    17    18   ar
    30    18    19   ar
    31    19    20    1
    32    19    21   ar
    33    21    22   ar
    34     4     5   ar
    35     5     6   ar
    36    39    34   ar
    37     6     1   ar
    38    11     7    1
    39    22    16   ar
    40    33    40    1
    41    33    41    1
    42    29    32    1
    43    25    26    1
    44    14    15    1
@<TRIPOS>MOLECULE
*****
 41 44 0 0 0
SMALL
GASTEIGER

@<TRIPOS>ATOM
      1 C           2.1219    1.7848   29.9596 C.ar    1  UNL1        0.0001
      2 C           2.3183    0.3431   30.3243 C.ar    1  UNL1       -0.0003
      3 C           2.8661   -0.0216   31.6723 C.ar    1  UNL1       -0.0042
      4 C           3.2175    1.0553   32.6555 C.ar    1  UNL1       -0.0206
      5 C           3.0210    2.4970   32.2908 C.ar    1  UNL1       -0.0042
      6 C           2.4733    2.8618   30.9429 C.ar    1  UNL1       -0.0003
      7 C           3.7653    0.6906   34.0034 C.3     1  UNL1        0.0483
      8 C           3.6800    1.5271   35.2456 C.3     1  UNL1        0.0770
      9 N           4.3565    0.7788   36.3557 N.3     1  UNL1       -0.2698
     10 C           4.8600   -0.5202   35.7996 C.3     1  UNL1        0.0816
     11 C           4.4946   -0.5747   34.3458 C.3     1  UNL1        0.0981
     12 C           4.8042   -1.6973   33.4004 C.2     1  UNL1        0.2274
     13 O           3.8692   -2.8652   33.2910 O.2     1  UNL1       -0.2747
     14 N           6.0488   -1.6521   32.5643 N.am    1  UNL1       -0.2839
     15 H           6.6624   -0.8856   32.6361 H       1  UNL1        0.1549
     16 C           6.3583   -2.7748   31.6189 C.ar    1  UNL1        0.0504
     17 C           6.7431   -4.1220   32.1547 C.ar    1  UNL1        0.0155
     18 C           7.0527   -5.2446   31.2093 C.ar    1  UNL1        0.0127
     19 C           6.9775   -5.0202   29.7281 C.ar    1  UNL1        0.0578
     20 CL          7.2871   -6.1429   28.7827 Cl      1  UNL1       -0.0822
     21 C           6.5927   -3.6730   29.1924 C.ar    1  UNL1        0.0127
     22 C           6.2832   -2.5504   30.1378 C.ar    1  UNL1        0.0155
     23 C           4.5037    1.2472   37.7730 C.3     1  UNL1        0.1043
     24 C           3.2900    1.4085   38.6395 C.3     1  UNL1        0.1544
     25 O           3.0249    0.4334   39.7481 O.3     1  UNL1       -0.3805
     26 H           2.8406   -0.4415   39.3719 H       1  UNL1        0.2105
     27 C           0.5636    3.2509   28.4859 C.2     1  UNL1        0.0580
     28 C           1.5741    2.1495   28.6117 C.2     1  UNL1        0.0047
     29 N          -0.7173    2.5910   26.3240 N.am    1  UNL1       -0.2794
     30 C           0.0157    3.6157   27.1379 C.2     1  UNL1        0.2497
     31 O           0.2010    5.0052   26.6041 O.2     1  UNL1       -0.2698
     32 H          -0.8389    1.6791   26.6744 H       1  UNL1        0.1552
     33 N           1.0261    2.3878   23.8910 N.pl3   1  UNL1       -0.3560
     34 C          -0.3935    2.8542   23.7596 C.ar    1  UNL1        0.0552
     35 C          -0.9414    3.2190   22.4117 C.ar    1  UNL1        0.0153
     36 C          -2.3609    3.6854   22.2803 C.ar    1  UNL1        0.0013
     37 C          -3.2326    3.7871   23.4968 C.ar    1  UNL1        0.0014
     38 C          -2.6848    3.4223   24.8446 C.ar    1  UNL1        0.0159
     39 C          -1.2652    2.9558   24.9760 C.ar    1  UNL1        0.0636
     40 H           1.5982    2.3210   23.0926 H       1  UNL1        0.1424
     41 H           1.3857    2.1483   24.7757 H       1  UNL1        0.1424
@<TRIPOS>BOND
     1    33    34    1
     2    34    35   ar
     3    35    36   ar
     4    36    37   ar
     5    37    38   ar
     6    38    39   ar
     7    39    29    1
     8    29    30   am
     9    30    31    2
    10    30    27    1
    11    27    28    2
    12    28     1    1
    13     1     2   ar
    14     2     3   ar
    15     3     4   ar
    16     7     4    1
    17     7     8    1
    18     8     9    1
    19     9    23    1
    20    23    24    1
    21    24    25    1
    22     9    10    1
    23    10    11    1
    24    11    12    1
    25    12    13    2
    26    12    14   am
    27    14    16    1
    28    16    17   ar
    29    17    18   ar
    30    18    19   ar
    31    19    20    1
    32    19    21   ar
    33    21    22   ar
    34     4     5   ar
    35     5     6   ar
    36    39    34   ar
    37     6     1   ar
    38    11     7    1
    39    22    16   ar
    40    33    40    1
    41    33    41    1
    42    29    32    1
    43    25    26    1
    44    14    15    1
@<TRIPOS>MOLECULE
*****
 41 44 0 0 0
SMALL
GASTEIGER

@<TRIPOS>ATOM
      1 C           0.7728    1.9693   25.0122 C.ar    1  UNL1        0.0001
      2 C           0.9243    1.0061   23.8724 C.ar    1  UNL1       -0.0003
      3 C           0.4001    1.3641   22.5132 C.ar    1  UNL1       -0.0042
      4 C          -0.2755    2.6852   22.2940 C.ar    1  UNL1       -0.0206
      5 C          -0.4270    3.6484   23.4339 C.ar    1  UNL1       -0.0042
      6 C           0.0971    3.2905   24.7930 C.ar    1  UNL1       -0.0003
      7 C          -0.7996    3.0432   20.9349 C.3     1  UNL1        0.0483
      8 C          -2.0526    3.8166   20.6487 C.3     1  UNL1        0.0770
      9 N          -2.1901    3.9420   19.1603 N.3     1  UNL1       -0.2698
     10 C          -1.0222    3.2461   18.5265 C.3     1  UNL1        0.0816
     11 C          -0.1627    2.6905   19.6234 C.3     1  UNL1        0.0981
     12 C           1.1100    1.9181   19.4407 C.2     1  UNL1        0.2274
     13 O           2.4331    2.5894   19.6615 O.2     1  UNL1       -0.2747
     14 N           1.0596    0.4742   19.0372 N.am    1  UNL1       -0.2839
     15 H           0.1913    0.0336   18.8922 H       1  UNL1        0.1549
     16 C           2.3324   -0.2983   18.8544 C.ar    1  UNL1        0.0504
     17 C           2.7888   -1.2539   19.9167 C.ar    1  UNL1        0.0155
     18 C           4.0615   -2.0264   19.7340 C.ar    1  UNL1        0.0127
     19 C           4.8779   -1.8433   18.4891 C.ar    1  UNL1        0.0578
     20 CL          6.1506   -2.6158   18.3064 Cl      1  UNL1       -0.0822
     21 C           4.4215   -0.8876   17.4268 C.ar    1  UNL1        0.0127
     22 C           3.1488   -0.1151   17.6095 C.ar    1  UNL1        0.0155
     23 C          -3.3006    4.6406   18.4333 C.3     1  UNL1        0.1043
     24 C          -4.3644    3.8405   17.7419 C.3     1  UNL1        0.1544
     25 O          -4.0550    3.1350   16.4548 O.3     1  UNL1       -0.3805
     26 H          -3.8696    3.7899   15.7637 H       1  UNL1        0.2105
     27 C           0.3626    1.5500   27.5432 C.2     1  UNL1        0.0580
     28 C           1.2969    1.6113   26.3713 C.2     1  UNL1        0.0047
     29 N           1.7313    2.1713   29.6623 N.am    1  UNL1       -0.2794
     30 C           0.8866    1.1921   28.9023 C.2     1  UNL1        0.2497
     31 O           0.5660   -0.1452   29.5015 O.2     1  UNL1       -0.2698
     32 H           1.9417    3.0490   29.2690 H       1  UNL1        0.1552
     33 N           0.2802    3.0944   32.1204 N.pl3   1  UNL1       -0.3560
     34 C           1.5298    2.2749   32.2505 C.ar    1  UNL1        0.0552
     35 C           2.0539    1.9169   33.6096 C.ar    1  UNL1        0.0153
     36 C           3.3035    1.0975   33.7396 C.ar    1  UNL1        0.0013
     37 C           4.0291    0.6359   32.5106 C.ar    1  UNL1        0.0014
     38 C           3.5050    0.9939   31.1515 C.ar    1  UNL1        0.0159
     39 C           2.2554    1.8134   31.0215 C.ar    1  UNL1        0.0636
     40 H          -0.1960    3.3973   32.9271 H       1  UNL1        0.1424
     41 H          -0.0638    3.3293   31.2284 H       1  UNL1        0.1424
@<TRIPOS>BOND
     1    33    34    1
     2    34    35   ar
     3    35    36   ar
     4    36    37   ar
     5    37    38   ar
     6    38    39   ar
     7    39    29    1
     8    29    30   am
     9    30    31    2
    10    30    27    1
    11    27    28    2
    12    28     1    1
    13     1     2   ar
    14     2     3   ar
    15     3     4   ar
    16     7     4    1
    17     7     8    1
    18     8     9    1
    19     9    23    1
    20    23    24    1
    21    24    25    1
    22     9    10    1
    23    10    11    1
    24    11    12    1
    25    12    13    2
    26    12    14   am
    27    14    16    1
    28    16    17   ar
    29    17    18   ar
    30    18    19   ar
    31    19    20    1
    32    19    21   ar
    33    21    22   ar
    34     4     5   ar
    35     5     6   ar
    36    39    34   ar
    37     6     1   ar
    38    11     7    1
    39    22    16   ar
    40    33    40    1
    41    33    41    1
    42    29    32    1
    43    25    26    1
    44    14    15    1
@<TRIPOS>MOLECULE
*****
 41 44 0 0 0
SMALL
GASTEIGER

@<TRIPOS>ATOM
      1 C           6.8061   -1.9285   32.3422 C.ar    1  UNL1        0.0001
      2 C           7.3414   -1.2886   31.0957 C.ar    1  UNL1       -0.0003
      3 C           7.5123   -2.1037   29.8481 C.ar    1  UNL1       -0.0042
      4 C           7.1479   -3.5588   29.8471 C.ar    1  UNL1       -0.0206
      5 C           6.6125   -4.1987   31.0936 C.ar    1  UNL1       -0.0042
      6 C           6.4416   -3.3836   32.3412 C.ar    1  UNL1       -0.0003
      7 C           7.3188   -4.3738   28.5995 C.3     1  UNL1        0.0483
      8 C           7.9704   -5.7220   28.5095 C.3     1  UNL1        0.0770
      9 N           7.9225   -6.1653   27.0773 N.3     1  UNL1       -0.2698
     10 C           7.2412   -5.0911   26.2821 C.3     1  UNL1        0.0816
     11 C           6.8681   -3.9839   27.2230 C.3     1  UNL1        0.0981
     12 C           6.1674   -2.7105   26.8523 C.2     1  UNL1        0.2274
     13 O           6.9147   -1.6240   26.1374 O.2     1  UNL1       -0.2747
     14 N           4.7195   -2.5237   27.1965 N.am    1  UNL1       -0.2839
     15 H           4.2290   -3.2368   27.6657 H       1  UNL1        0.1549
     16 C           4.0188   -1.2503   26.8258 C.ar    1  UNL1        0.0504
     17 C           3.6346   -0.9936   25.3987 C.ar    1  UNL1        0.0155
     18 C           2.9339    0.2798   25.0280 C.ar    1  UNL1        0.0127
     19 C           2.6173    1.2966   26.0843 C.ar    1  UNL1        0.0578
     20 CL          1.9166    2.5700   25.7136 Cl      1  UNL1       -0.0822
     21 C           3.0015    1.0399   27.5114 C.ar    1  UNL1        0.0127
     22 C           3.7022   -0.2335   27.8821 C.ar    1  UNL1        0.0155
     23 C           8.4612   -7.4560   26.5354 C.3     1  UNL1        0.1043
     24 C           8.4314   -8.6948   27.3806 C.3     1  UNL1        0.1544
     25 O           7.1913   -9.5370   27.4338 O.3     1  UNL1       -0.3805
     26 H           6.4773   -9.0349   27.8568 H       1  UNL1        0.2105
     27 C           5.2861   -1.0064   34.2367 C.2     1  UNL1        0.0580
     28 C           6.6351   -1.1135   33.5897 C.2     1  UNL1        0.0047
     29 N           4.1487    0.9556   35.5043 N.am    1  UNL1       -0.2794
     30 C           5.1151   -0.1913   35.4843 C.2     1  UNL1        0.2497
     31 O           5.9106   -0.5232   36.7119 O.2     1  UNL1       -0.2698
     32 H           3.6265    1.1735   34.6985 H       1  UNL1        0.1552
     33 N           6.3350    2.8046   36.3995 N.pl3   1  UNL1       -0.3560
     34 C           5.0708    2.6952   37.1994 C.ar    1  UNL1        0.0552
     35 C           4.8998    3.5102   38.4470 C.ar    1  UNL1        0.0153
     36 C           3.6357    3.4008   39.2470 C.ar    1  UNL1        0.0013
     37 C           2.5425    2.4763   38.7994 C.ar    1  UNL1        0.0014
     38 C           2.7135    1.6613   37.5518 C.ar    1  UNL1        0.0159
     39 C           3.9777    1.7707   36.7519 C.ar    1  UNL1        0.0636
     40 H           7.0524    3.4114   36.6932 H       1  UNL1        0.1424
     41 H           6.4472    2.2697   35.5806 H       1  UNL1        0.1424
@<TRIPOS>BOND
     1    33    34    1
     2    34    35   ar
     3    35    36   ar
     4    36    37   ar
     5    37    38   ar
     6    38    39   ar
     7    39    29    1
     8    29    30   am
     9    30    31    2
    10    30    27    1
    11    27    28    2
    12    28     1    1
    13     1     2   ar
    14     2     3   ar
    15     3     4   ar
    16     7     4    1
    17     7     8    1
    18     8     9    1
    19     9    23    1
    20    23    24    1
    21    24    25    1
    22     9    10    1
    23    10    11    1
    24    11    12    1
    25    12    13    2
    26    12    14   am
    27    14    16    1
    28    16    17   ar
    29    17    18   ar
    30    18    19   ar
    31    19    20    1
    32    19    21   ar
    33    21    22   ar
    34     4     5   ar
    35     5     6   ar
    36    39    34   ar
    37     6     1   ar
    38    11     7    1
    39    22    16   ar
    40    33    40    1
    41    33    41    1
    42    29    32    1
    43    25    26    1
    44    14    15    1
