@<TRIPOS>MOLECULE
*****
 27 29 0 0 0
SMALL
GASTEIGER

@<TRIPOS>ATOM
      1 N         -13.4467   -7.1896   17.3185 N.pl3   1  UNL1       -0.3021
      2 C         -12.2068   -6.3621   17.4855 C.ar    1  UNL1        0.0481
      3 C         -11.6113   -6.1699   18.8487 C.ar    1  UNL1        0.0145
      4 C         -10.3715   -5.3423   19.0156 C.ar    1  UNL1        0.0013
      5 C          -9.7271   -4.7070   17.8194 C.ar    1  UNL1        0.0001
      6 C         -10.3225   -4.8992   16.4561 C.ar    1  UNL1        0.0013
      7 C         -11.5624   -5.7267   16.2891 C.ar    1  UNL1        0.0145
      8 C         -14.4052   -6.8883   16.2046 C.3     1  UNL1        0.1095
      9 C         -15.4443   -5.8205   16.3777 C.3     1  UNL1        0.1073
     10 N         -16.8849   -6.1981   16.5572 N.3     1  UNL1       -0.2704
     11 C         -17.9065   -5.4297   17.3420 C.3     1  UNL1        0.0722
     12 C         -19.2098   -6.1670   17.2533 C.3     1  UNL1        0.0188
     13 C         -18.9936   -7.3911   16.4137 C.3     1  UNL1        0.0188
     14 C         -17.5567   -7.4103   15.9835 C.3     1  UNL1        0.0722
     15 C         -15.0430   -4.3753   16.3712 C.3     1  UNL1        0.1597
     16 O         -14.6102   -3.7113   17.6447 O.3     1  UNL1       -0.3523
     17 C         -13.4244   -2.7926   17.6462 C.3     1  UNL1        0.1421
     18 C         -11.5043   -1.6003   18.9275 C.3     1  UNL1        0.0026
     19 C         -12.7163   -2.4841   18.9321 C.3     1  UNL1        0.0297
     20 C         -13.2202   -3.0593   20.2225 C.3     1  UNL1        0.0026
     21 C         -13.7281   -8.3185   18.2653 C.3     1  UNL1        0.1177
     22 C         -15.1428   -8.6499   18.6378 C.ar    1  UNL1       -0.0024
     23 C         -15.9116   -7.7392   19.5486 C.ar    1  UNL1       -0.0026
     24 C         -17.3263   -8.0707   19.9211 C.ar    1  UNL1       -0.0003
     25 C         -17.9722   -9.3129   19.3828 C.ar    1  UNL1       -0.0000
     26 C         -17.2034  -10.2237   18.4721 C.ar    1  UNL1       -0.0003
     27 C         -15.7887   -9.8922   18.0996 C.ar    1  UNL1       -0.0026
@<TRIPOS>BOND
     1    18    19    1
     2    19    20    1
     3    19    17    1
     4    17    16    1
     5    16    15    1
     6    15     9    1
     7     9     8    1
     8     8     1    1
     9     1    21    1
    10    21    22    1
    11    22    23   ar
    12    23    24   ar
    13    24    25   ar
    14    25    26   ar
    15    26    27   ar
    16     1     2    1
    17     2     3   ar
    18     3     4   ar
    19     4     5   ar
    20     5     6   ar
    21     6     7   ar
    22     9    10    1
    23    10    11    1
    24    11    12    1
    25    12    13    1
    26    13    14    1
    27    27    22   ar
    28     7     2   ar
    29    14    10    1
@<TRIPOS>MOLECULE
*****
 27 29 0 0 0
SMALL
GASTEIGER

@<TRIPOS>ATOM
      1 N         -12.6049   -5.2912   16.7485 N.pl3   1  UNL1       -0.3021
      2 C         -11.5199   -6.0734   17.4272 C.ar    1  UNL1        0.0481
      3 C         -10.6620   -5.4180   18.4685 C.ar    1  UNL1        0.0145
      4 C          -9.5769   -6.2003   19.1473 C.ar    1  UNL1        0.0013
      5 C          -9.3497   -7.6379   18.7848 C.ar    1  UNL1        0.0001
      6 C         -10.2077   -8.2934   17.7434 C.ar    1  UNL1        0.0013
      7 C         -11.2927   -7.5112   17.0646 C.ar    1  UNL1        0.0145
      8 C         -14.0117   -5.8119   16.7398 C.3     1  UNL1        0.1095
      9 C         -14.8145   -5.8247   18.0068 C.3     1  UNL1        0.1073
     10 N         -14.6536   -4.7191   19.0077 N.3     1  UNL1       -0.2704
     11 C         -15.3949   -3.4151   19.0078 C.3     1  UNL1        0.0722
     12 C         -14.9227   -2.6135   20.1844 C.3     1  UNL1        0.0188
     13 C         -13.8896   -3.4222   20.9116 C.3     1  UNL1        0.0188
     14 C         -13.7233   -4.7235   20.1844 C.3     1  UNL1        0.0722
     15 C         -15.7781   -6.9430   18.2729 C.3     1  UNL1        0.1597
     16 O         -15.3605   -8.1066   19.1224 O.3     1  UNL1       -0.3523
     17 C         -16.3647   -8.7930   20.0002 C.3     1  UNL1        0.1421
     18 C         -17.1820  -10.7650   18.5192 C.3     1  UNL1        0.0026
     19 C         -17.4851   -9.5787   19.3856 C.3     1  UNL1        0.0297
     20 C         -18.9084   -9.1780   19.6376 C.3     1  UNL1        0.0026
     21 C         -12.2833   -3.9884   16.0783 C.3     1  UNL1        0.1177
     22 C         -12.5389   -2.6943   16.7927 C.ar    1  UNL1       -0.0024
     23 C         -11.6914   -2.3063   17.9679 C.ar    1  UNL1       -0.0026
     24 C         -11.9470   -1.0123   18.6822 C.ar    1  UNL1       -0.0003
     25 C         -13.0501   -0.1064   18.2212 C.ar    1  UNL1       -0.0000
     26 C         -13.8975   -0.4944   17.0460 C.ar    1  UNL1       -0.0003
     27 C         -13.6419   -1.7883   16.3317 C.ar    1  UNL1       -0.0026
@<TRIPOS>BOND
     1    18    19    1
     2    19    20    1
     3    19    17    1
     4    17    16    1
     5    16    15    1
     6    15     9    1
     7     9     8    1
     8     8     1    1
     9     1    21    1
    10    21    22    1
    11    22    23   ar
    12    23    24   ar
    13    24    25   ar
    14    25    26   ar
    15    26    27   ar
    16     1     2    1
    17     2     3   ar
    18     3     4   ar
    19     4     5   ar
    20     5     6   ar
    21     6     7   ar
    22     9    10    1
    23    10    11    1
    24    11    12    1
    25    12    13    1
    26    13    14    1
    27    27    22   ar
    28     7     2   ar
    29    14    10    1
@<TRIPOS>MOLECULE
*****
 27 29 0 0 0
SMALL
GASTEIGER

@<TRIPOS>ATOM
      1 N           2.1510    0.5033   18.7400 N.pl3   1  UNL1       -0.3021
      2 C           1.9446    1.9628   18.4624 C.ar    1  UNL1        0.0481
      3 C           3.1272    2.8772   18.3384 C.ar    1  UNL1        0.0145
      4 C           2.9208    4.3368   18.0608 C.ar    1  UNL1        0.0013
      5 C           1.5319    4.8820   17.9072 C.ar    1  UNL1        0.0001
      6 C           0.3492    3.9675   18.0311 C.ar    1  UNL1        0.0013
      7 C           0.5556    2.5080   18.3087 C.ar    1  UNL1        0.0145
      8 C           3.2144   -0.2571   18.0044 C.3     1  UNL1        0.1095
      9 C           4.2841   -0.9797   18.7682 C.3     1  UNL1        0.1073
     10 N           4.2504   -2.4756   18.8730 N.3     1  UNL1       -0.2704
     11 C           3.1796   -3.2889   19.5379 C.3     1  UNL1        0.0722
     12 C           3.5489   -4.7369   19.4072 C.3     1  UNL1        0.0188
     13 C           4.8479   -4.8184   18.6615 C.3     1  UNL1        0.0188
     14 C           5.2814   -3.4209   18.3314 C.3     1  UNL1        0.0722
     15 C           5.3876   -0.2064   19.4273 C.3     1  UNL1        0.1597
     16 O           5.7860   -0.5227   20.8383 O.3     1  UNL1       -0.3523
     17 C           6.8703   -1.5243   21.1049 C.3     1  UNL1        0.1421
     18 C           7.4050   -4.0517   21.3816 C.3     1  UNL1        0.0026
     19 C           6.5252   -2.8711   21.6682 C.3     1  UNL1        0.0297
     20 C           5.3004   -3.0372   22.5179 C.3     1  UNL1        0.0026
     21 C           1.2940   -0.1960   19.7532 C.3     1  UNL1        0.1177
     22 C           1.4607    0.1061   21.2130 C.ar    1  UNL1       -0.0024
     23 C           0.5358    1.0744   21.8889 C.ar    1  UNL1       -0.0026
     24 C           0.7025    1.3765   23.3487 C.ar    1  UNL1       -0.0003
     25 C           1.7941    0.7102   24.1325 C.ar    1  UNL1       -0.0000
     26 C           2.7190   -0.2581   23.4567 C.ar    1  UNL1       -0.0003
     27 C           2.5523   -0.5601   21.9969 C.ar    1  UNL1       -0.0026
@<TRIPOS>BOND
     1    18    19    1
     2    19    20    1
     3    19    17    1
     4    17    16    1
     5    16    15    1
     6    15     9    1
     7     9     8    1
     8     8     1    1
     9     1    21    1
    10    21    22    1
    11    22    23   ar
    12    23    24   ar
    13    24    25   ar
    14    25    26   ar
    15    26    27   ar
    16     1     2    1
    17     2     3   ar
    18     3     4   ar
    19     4     5   ar
    20     5     6   ar
    21     6     7   ar
    22     9    10    1
    23    10    11    1
    24    11    12    1
    25    12    13    1
    26    13    14    1
    27    27    22   ar
    28     7     2   ar
    29    14    10    1
@<TRIPOS>MOLECULE
*****
 27 29 0 0 0
SMALL
GASTEIGER

@<TRIPOS>ATOM
      1 N           5.1659   -0.6024   19.1234 N.pl3   1  UNL1       -0.3021
      2 C           4.9082   -2.0797   19.1594 C.ar    1  UNL1        0.0481
      3 C           3.5039   -2.5985   19.0661 C.ar    1  UNL1        0.0145
      4 C           3.2462   -4.0757   19.1021 C.ar    1  UNL1        0.0013
      5 C           4.3928   -5.0342   19.2314 C.ar    1  UNL1        0.0001
      6 C           5.7972   -4.5154   19.3247 C.ar    1  UNL1        0.0013
      7 C           6.0549   -3.0381   19.2887 C.ar    1  UNL1        0.0145
      8 C           5.9672    0.0459   20.2133 C.3     1  UNL1        0.1095
      9 C           5.4044    0.1452   21.6002 C.3     1  UNL1        0.1073
     10 N           3.9918    0.6061   21.8051 N.3     1  UNL1       -0.2704
     11 C           2.7738   -0.2690   21.8314 C.3     1  UNL1        0.0722
     12 C           1.5784    0.6072   22.0623 C.3     1  UNL1        0.0188
     13 C           2.0576    2.0238   22.1787 C.3     1  UNL1        0.0188
     14 C           3.5492    2.0232   22.0198 C.3     1  UNL1        0.0722
     15 C           6.2543   -0.2165   22.7821 C.3     1  UNL1        0.1597
     16 O           5.6134   -0.7261   24.0389 O.3     1  UNL1       -0.3523
     17 C           5.7658   -2.1668   24.4276 C.3     1  UNL1        0.1421
     18 C           6.9556   -4.0451   23.0835 C.3     1  UNL1        0.0026
     19 C           5.7271   -3.2356   23.3758 C.3     1  UNL1        0.0297
     20 C           4.4598   -3.4948   22.6163 C.3     1  UNL1        0.0026
     21 C           4.6225    0.2265   17.9976 C.3     1  UNL1        0.1177
     22 C           3.4381    1.1182   18.2265 C.ar    1  UNL1       -0.0024
     23 C           3.6357    2.5921   18.4222 C.ar    1  UNL1       -0.0026
     24 C           2.4514    3.4837   18.6511 C.ar    1  UNL1       -0.0003
     25 C           1.0694    2.9013   18.6843 C.ar    1  UNL1       -0.0000
     26 C           0.8719    1.4273   18.4886 C.ar    1  UNL1       -0.0003
     27 C           2.0562    0.5358   18.2597 C.ar    1  UNL1       -0.0026
@<TRIPOS>BOND
     1    18    19    1
     2    19    20    1
     3    19    17    1
     4    17    16    1
     5    16    15    1
     6    15     9    1
     7     9     8    1
     8     8     1    1
     9     1    21    1
    10    21    22    1
    11    22    23   ar
    12    23    24   ar
    13    24    25   ar
    14    25    26   ar
    15    26    27   ar
    16     1     2    1
    17     2     3   ar
    18     3     4   ar
    19     4     5   ar
    20     5     6   ar
    21     6     7   ar
    22     9    10    1
    23    10    11    1
    24    11    12    1
    25    12    13    1
    26    13    14    1
    27    27    22   ar
    28     7     2   ar
    29    14    10    1
@<TRIPOS>MOLECULE
*****
 27 29 0 0 0
SMALL
GASTEIGER

@<TRIPOS>ATOM
      1 N           2.6890   -0.7330   19.0259 N.pl3   1  UNL1       -0.3021
      2 C           3.3015   -1.7110   19.9842 C.ar    1  UNL1        0.0481
      3 C           3.5360   -1.3155   21.4119 C.ar    1  UNL1        0.0145
      4 C           4.1486   -2.2936   22.3702 C.ar    1  UNL1        0.0013
      5 C           4.5267   -3.6671   21.9006 C.ar    1  UNL1        0.0001
      6 C           4.2922   -4.0626   20.4728 C.ar    1  UNL1        0.0013
      7 C           3.6796   -3.0846   19.5146 C.ar    1  UNL1        0.0145
      8 C           3.4007   -0.3848   17.7522 C.3     1  UNL1        0.1095
      9 C           4.6802    0.3966   17.7975 C.3     1  UNL1        0.1073
     10 N           4.7647    1.6504   18.6164 N.3     1  UNL1       -0.2704
     11 C           4.4641    3.0392   18.1359 C.3     1  UNL1        0.0722
     12 C           4.6781    3.9828   19.2822 C.3     1  UNL1        0.0188
     13 C           5.1110    3.1771   20.4711 C.3     1  UNL1        0.0188
     14 C           5.1645    1.7356   20.0596 C.3     1  UNL1        0.0722
     15 C           5.8754   -0.0759   17.0239 C.3     1  UNL1        0.1597
     16 O           7.0682   -0.6257   17.7483 O.3     1  UNL1       -0.3523
     17 C           6.9952   -1.9764   18.3965 C.3     1  UNL1        0.1421
     18 C           7.2509   -0.9986   20.7900 C.3     1  UNL1        0.0026
     19 C           7.4001   -2.1426   19.8313 C.3     1  UNL1        0.0297
     20 C           7.9541   -3.4527   20.3073 C.3     1  UNL1        0.0026
     21 C           1.3647   -0.1031   19.3414 C.3     1  UNL1        0.1177
     22 C           1.2733    1.3767   19.5693 C.ar    1  UNL1       -0.0024
     23 C           0.8790    2.2861   18.4435 C.ar    1  UNL1       -0.0026
     24 C           0.7876    3.7658   18.6715 C.ar    1  UNL1       -0.0003
     25 C           1.0907    4.3362   20.0253 C.ar    1  UNL1       -0.0000
     26 C           1.4850    3.4268   21.1512 C.ar    1  UNL1       -0.0003
     27 C           1.5764    1.9471   20.9232 C.ar    1  UNL1       -0.0026
@<TRIPOS>BOND
     1    18    19    1
     2    19    20    1
     3    19    17    1
     4    17    16    1
     5    16    15    1
     6    15     9    1
     7     9     8    1
     8     8     1    1
     9     1    21    1
    10    21    22    1
    11    22    23   ar
    12    23    24   ar
    13    24    25   ar
    14    25    26   ar
    15    26    27   ar
    16     1     2    1
    17     2     3   ar
    18     3     4   ar
    19     4     5   ar
    20     5     6   ar
    21     6     7   ar
    22     9    10    1
    23    10    11    1
    24    11    12    1
    25    12    13    1
    26    13    14    1
    27    27    22   ar
    28     7     2   ar
    29    14    10    1
@<TRIPOS>MOLECULE
*****
 27 29 0 0 0
SMALL
GASTEIGER

@<TRIPOS>ATOM
      1 N           2.2347   -0.5729   19.6048 N.pl3   1  UNL1       -0.3021
      2 C           3.0333   -1.6520   20.2740 C.ar    1  UNL1        0.0481
      3 C           3.4957   -1.4743   21.6898 C.ar    1  UNL1        0.0145
      4 C           4.2943   -2.5534   22.3590 C.ar    1  UNL1        0.0013
      5 C           4.6304   -3.8102   21.6123 C.ar    1  UNL1        0.0001
      6 C           4.1680   -3.9879   20.1964 C.ar    1  UNL1        0.0013
      7 C           3.3694   -2.9088   19.5273 C.ar    1  UNL1        0.0145
      8 C           2.8532    0.2514   18.5148 C.3     1  UNL1        0.1095
      9 C           3.9451    1.2270   18.8400 C.3     1  UNL1        0.1073
     10 N           3.7456    2.2409   19.9273 N.3     1  UNL1       -0.2704
     11 C           4.1208    2.0721   21.3698 C.3     1  UNL1        0.0722
     12 C           3.7429    3.3284   22.0971 C.3     1  UNL1        0.0188
     13 C           3.1342    4.2736   21.1040 C.3     1  UNL1        0.0188
     14 C           3.1359    3.6015   19.7631 C.3     1  UNL1        0.0722
     15 C           5.2365    1.1888   18.0780 C.3     1  UNL1        0.1597
     16 O           6.5030    0.7775   18.7685 O.3     1  UNL1       -0.3523
     17 C           6.4823   -0.3380   19.7711 C.3     1  UNL1        0.1421
     18 C           6.6876   -2.2710   18.0473 C.3     1  UNL1        0.0026
     19 C           7.0026   -1.6938   19.3955 C.3     1  UNL1        0.0297
     20 C           7.8380   -2.4724   20.3681 C.3     1  UNL1        0.0026
     21 C           0.8177   -0.3181   20.0256 C.3     1  UNL1        0.1177
     22 C           0.4873    0.8855   20.8577 C.ar    1  UNL1       -0.0024
     23 C           0.7905    0.8879   22.3267 C.ar    1  UNL1       -0.0026
     24 C           0.4601    2.0914   23.1588 C.ar    1  UNL1       -0.0003
     25 C          -0.1735    3.2925   22.5218 C.ar    1  UNL1       -0.0000
     26 C          -0.4768    3.2902   21.0528 C.ar    1  UNL1       -0.0003
     27 C          -0.1464    2.0867   20.2208 C.ar    1  UNL1       -0.0026
@<TRIPOS>BOND
     1    18    19    1
     2    19    20    1
     3    19    17    1
     4    17    16    1
     5    16    15    1
     6    15     9    1
     7     9     8    1
     8     8     1    1
     9     1    21    1
    10    21    22    1
    11    22    23   ar
    12    23    24   ar
    13    24    25   ar
    14    25    26   ar
    15    26    27   ar
    16     1     2    1
    17     2     3   ar
    18     3     4   ar
    19     4     5   ar
    20     5     6   ar
    21     6     7   ar
    22     9    10    1
    23    10    11    1
    24    11    12    1
    25    12    13    1
    26    13    14    1
    27    27    22   ar
    28     7     2   ar
    29    14    10    1
@<TRIPOS>MOLECULE
*****
 27 29 0 0 0
SMALL
GASTEIGER

@<TRIPOS>ATOM
      1 N         -12.8292   -4.6502   18.3692 N.pl3   1  UNL1       -0.3021
      2 C         -11.7147   -5.6541   18.3657 C.ar    1  UNL1        0.0481
      3 C         -11.8626   -6.9362   17.6014 C.ar    1  UNL1        0.0145
      4 C         -10.7480   -7.9401   17.5980 C.ar    1  UNL1        0.0013
      5 C          -9.4856   -7.6619   18.3588 C.ar    1  UNL1        0.0001
      6 C          -9.3377   -6.3797   19.1231 C.ar    1  UNL1        0.0013
      7 C         -10.4522   -5.3758   19.1266 C.ar    1  UNL1        0.0145
      8 C         -13.6739   -4.4716   19.5959 C.3     1  UNL1        0.1095
      9 C         -15.1521   -4.2537   19.4634 C.3     1  UNL1        0.1073
     10 N         -15.6952   -2.8628   19.3211 N.3     1  UNL1       -0.2704
     11 C         -16.9436   -2.4747   18.5855 C.3     1  UNL1        0.0722
     12 C         -17.1054   -0.9878   18.6991 C.3     1  UNL1        0.0188
     13 C         -15.9569   -0.4569   19.5050 C.3     1  UNL1        0.0188
     14 C         -15.0855   -1.6157   19.8893 C.3     1  UNL1        0.0722
     15 C         -16.0870   -5.4266   19.4733 C.3     1  UNL1        0.1597
     16 O         -16.4990   -6.0682   18.1816 O.3     1  UNL1       -0.3523
     17 C         -17.1756   -7.4069   18.1914 C.3     1  UNL1        0.1421
     18 C         -18.8156   -7.8193   20.1638 C.3     1  UNL1        0.0026
     19 C         -17.4974   -8.0751   19.4953 C.3     1  UNL1        0.0297
     20 C         -16.5010   -8.9989   20.1305 C.3     1  UNL1        0.0026
     21 C         -13.0991   -3.8249   17.1461 C.3     1  UNL1        0.1177
     22 C         -12.6341   -2.4000   17.0851 C.ar    1  UNL1       -0.0024
     23 C         -13.5881   -1.3167   16.6774 C.ar    1  UNL1       -0.0026
     24 C         -13.1232    0.1081   16.6165 C.ar    1  UNL1       -0.0003
     25 C         -11.7043    0.4496   16.9633 C.ar    1  UNL1       -0.0000
     26 C         -10.7504   -0.6338   17.3710 C.ar    1  UNL1       -0.0003
     27 C         -11.2153   -2.0586   17.4319 C.ar    1  UNL1       -0.0026
@<TRIPOS>BOND
     1    18    19    1
     2    19    20    1
     3    19    17    1
     4    17    16    1
     5    16    15    1
     6    15     9    1
     7     9     8    1
     8     8     1    1
     9     1    21    1
    10    21    22    1
    11    22    23   ar
    12    23    24   ar
    13    24    25   ar
    14    25    26   ar
    15    26    27   ar
    16     1     2    1
    17     2     3   ar
    18     3     4   ar
    19     4     5   ar
    20     5     6   ar
    21     6     7   ar
    22     9    10    1
    23    10    11    1
    24    11    12    1
    25    12    13    1
    26    13    14    1
    27    27    22   ar
    28     7     2   ar
    29    14    10    1
@<TRIPOS>MOLECULE
*****
 27 29 0 0 0
SMALL
GASTEIGER

@<TRIPOS>ATOM
      1 N           3.4973   -1.1720   18.9934 N.pl3   1  UNL1       -0.3021
      2 C           2.3623   -0.2111   19.1896 C.ar    1  UNL1        0.0481
      3 C           1.3473   -0.4591   20.2658 C.ar    1  UNL1        0.0145
      4 C           0.2123    0.5018   20.4621 C.ar    1  UNL1        0.0013
      5 C           0.0923    1.7107   19.5822 C.ar    1  UNL1        0.0001
      6 C           1.1074    1.9587   18.5060 C.ar    1  UNL1        0.0013
      7 C           2.2424    0.9978   18.3097 C.ar    1  UNL1        0.0145
      8 C           4.6715   -0.7825   18.1450 C.3     1  UNL1        0.1095
      9 C           5.8732   -0.1436   18.7755 C.3     1  UNL1        0.1073
     10 N           6.9368   -0.9982   19.3986 N.3     1  UNL1       -0.2704
     11 C           7.4956   -0.8417   20.7818 C.3     1  UNL1        0.0722
     12 C           8.5325   -1.9062   20.9861 C.3     1  UNL1        0.0188
     13 C           8.6144   -2.7207   19.7291 C.3     1  UNL1        0.0188
     14 C           7.6282   -2.1595   18.7480 C.3     1  UNL1        0.0722
     15 C           6.0114    1.3500   18.7829 C.3     1  UNL1        0.1597
     16 O           5.1852    2.1750   19.7245 O.3     1  UNL1       -0.3523
     17 C           4.7674    1.6085   21.0490 C.3     1  UNL1        0.1421
     18 C           3.0505    1.5071   22.9964 C.3     1  UNL1        0.0026
     19 C           3.5946    2.1935   21.7787 C.3     1  UNL1        0.0297
     20 C           2.9660    3.4650   21.2907 C.3     1  UNL1        0.0026
     21 C           3.4581   -2.5223   19.6453 C.3     1  UNL1        0.1177
     22 C           4.1654   -2.7465   20.9490 C.ar    1  UNL1       -0.0024
     23 C           5.2249   -3.8030   21.0554 C.ar    1  UNL1       -0.0026
     24 C           5.9322   -4.0272   22.3590 C.ar    1  UNL1       -0.0003
     25 C           5.5800   -3.1949   23.5562 C.ar    1  UNL1       -0.0000
     26 C           4.5206   -2.1384   23.4498 C.ar    1  UNL1       -0.0003
     27 C           3.8133   -1.9142   22.1462 C.ar    1  UNL1       -0.0026
@<TRIPOS>BOND
     1    18    19    1
     2    19    20    1
     3    19    17    1
     4    17    16    1
     5    16    15    1
     6    15     9    1
     7     9     8    1
     8     8     1    1
     9     1    21    1
    10    21    22    1
    11    22    23   ar
    12    23    24   ar
    13    24    25   ar
    14    25    26   ar
    15    26    27   ar
    16     1     2    1
    17     2     3   ar
    18     3     4   ar
    19     4     5   ar
    20     5     6   ar
    21     6     7   ar
    22     9    10    1
    23    10    11    1
    24    11    12    1
    25    12    13    1
    26    13    14    1
    27    27    22   ar
    28     7     2   ar
    29    14    10    1
@<TRIPOS>MOLECULE
*****
 27 29 0 0 0
SMALL
GASTEIGER

@<TRIPOS>ATOM
      1 N           5.2077   -1.3723   21.8465 N.pl3   1  UNL1       -0.3021
      2 C           5.0176   -2.3840   20.7555 C.ar    1  UNL1        0.0481
      3 C           4.1065   -3.5561   20.9699 C.ar    1  UNL1        0.0145
      4 C           3.9165   -4.5678   19.8789 C.ar    1  UNL1        0.0013
      5 C           4.6375   -4.4074   18.5734 C.ar    1  UNL1        0.0001
      6 C           5.5486   -3.2352   18.3589 C.ar    1  UNL1        0.0013
      7 C           5.7387   -2.2235   19.4499 C.ar    1  UNL1        0.0145
      8 C           6.2299   -1.6086   22.9187 C.3     1  UNL1        0.1095
      9 C           5.9353   -2.5617   24.0388 C.3     1  UNL1        0.1073
     10 N           5.2838   -2.0643   25.2950 N.3     1  UNL1       -0.2704
     11 C           5.8274   -2.2060   26.6859 C.3     1  UNL1        0.0722
     12 C           4.8539   -1.5670   27.6314 C.3     1  UNL1        0.0188
     13 C           3.7086   -1.0304   26.8248 C.3     1  UNL1        0.0188
     14 C           3.9743   -1.3377   25.3809 C.3     1  UNL1        0.0722
     15 C           6.2922   -4.0123   23.9028 C.3     1  UNL1        0.1597
     16 O           7.5093   -4.5531   24.5927 O.3     1  UNL1       -0.3523
     17 C           7.3650   -5.5999   25.6573 C.3     1  UNL1        0.1421
     18 C           7.5468   -8.0800   26.4098 C.3     1  UNL1        0.0026
     19 C           7.7709   -7.0164   25.3762 C.3     1  UNL1        0.0297
     20 C           8.4009   -7.3692   24.0614 C.3     1  UNL1        0.0026
     21 C           4.3756   -0.1245   21.8655 C.3     1  UNL1        0.1177
     22 C           3.3266    0.0936   20.8156 C.ar    1  UNL1       -0.0024
     23 C           1.9447   -0.4562   21.0106 C.ar    1  UNL1       -0.0026
     24 C           0.8958   -0.2381   19.9607 C.ar    1  UNL1       -0.0003
     25 C           1.2288    0.5298   18.7160 C.ar    1  UNL1       -0.0000
     26 C           2.6107    1.0796   18.5210 C.ar    1  UNL1       -0.0003
     27 C           3.6596    0.8615   19.5709 C.ar    1  UNL1       -0.0026
@<TRIPOS>BOND
     1    18    19    1
     2    19    20    1
     3    19    17    1
     4    17    16    1
     5    16    15    1
     6    15     9    1
     7     9     8    1
     8     8     1    1
     9     1    21    1
    10    21    22    1
    11    22    23   ar
    12    23    24   ar
    13    24    25   ar
    14    25    26   ar
    15    26    27   ar
    16     1     2    1
    17     2     3   ar
    18     3     4   ar
    19     4     5   ar
    20     5     6   ar
    21     6     7   ar
    22     9    10    1
    23    10    11    1
    24    11    12    1
    25    12    13    1
    26    13    14    1
    27    27    22   ar
    28     7     2   ar
    29    14    10    1
