@<TRIPOS>MOLECULE
*****
 30 33 0 0 0
SMALL
GASTEIGER

@<TRIPOS>ATOM
      1 C         -11.6921  -18.3678   19.8661 C.3     1  UNL1        0.2068
      2 O         -12.3189  -18.2731   21.2256 O.3     1  UNL1       -0.4753
      3 C         -10.2843  -19.4776   24.4131 C.ar    1  UNL1        0.0062
      4 C         -11.1502  -19.5103   23.1887 C.ar    1  UNL1        0.0371
      5 C         -11.4529  -18.2403   22.4501 C.ar    1  UNL1        0.1416
      6 C         -10.8897  -16.9377   22.9358 C.ar    1  UNL1        0.0737
      7 C         -10.0239  -16.9050   24.1601 C.ar    1  UNL1        0.1414
      8 C          -9.7212  -18.1749   24.8988 C.ar    1  UNL1        0.0371
      9 O          -9.4606  -15.6023   24.6459 O.3     1  UNL1       -0.4791
     10 C          -8.0355  -15.5271   25.1076 C.3     1  UNL1        0.1659
     11 C          -7.7212  -15.5292   26.5743 C.3     1  UNL1        0.0435
     12 C          -6.2960  -15.4539   27.0361 C.3     1  UNL1        0.0037
     13 C          -5.1851  -15.3765   26.0311 C.3     1  UNL1        0.0002
     14 C          -5.4994  -15.3744   24.5644 C.3     1  UNL1        0.0037
     15 C          -6.9246  -15.4497   24.1027 C.3     1  UNL1        0.0435
     16 C         -10.2005  -18.3041   19.7218 C.3     1  UNL1        0.0646
     17 C          -9.3787  -19.5502   19.8700 C.3     1  UNL1        0.0759
     18 N          -8.0121  -19.4787   20.4844 N.3     1  UNL1       -0.2726
     19 C          -7.7829  -18.6424   21.7083 C.3     1  UNL1        0.0721
     20 C          -6.4164  -18.5710   22.3227 C.3     1  UNL1        0.0178
     21 C          -5.2791  -19.3358   21.7132 C.3     1  UNL1        0.0087
     22 C          -5.5083  -20.1721   20.4892 C.3     1  UNL1        0.0178
     23 C          -6.8748  -20.2436   19.8748 C.3     1  UNL1        0.0721
     24 C          -3.9125  -19.2643   22.3276 C.3     1  UNL1        0.0453
     25 C          -2.9154  -18.2630   21.8244 C.ar    1  UNL1        0.0541
     26 C          -1.7986  -18.5382   20.8616 C.ar    1  UNL1        0.1131
     27 N          -1.0530  -17.2560   20.6378 N.ar    1  UNL1       -0.2229
     28 C          -1.7091  -16.1883   21.4623 C.ar    1  UNL1        0.1748
     29 N          -2.8602  -16.8107   22.1957 N.ar    1  UNL1       -0.3382
     30 H          -3.4719  -16.3473   22.8124 H       1  UNL1        0.1672
@<TRIPOS>BOND
     1     3     4   ar
     2     4     5   ar
     3     5     2    1
     4     2     1    1
     5     1    16    1
     6    16    17    1
     7    17    18    1
     8    18    19    1
     9    19    20    1
    10    20    21    1
    11    21    24    1
    12    24    25    1
    13    25    26   ar
    14    26    27   ar
    15    27    28   ar
    16    28    29   ar
    17    21    22    1
    18    22    23    1
    19     5     6   ar
    20     6     7   ar
    21     7     9    1
    22     9    10    1
    23    10    11    1
    24    11    12    1
    25    12    13    1
    26    13    14    1
    27    14    15    1
    28     7     8   ar
    29     8     3   ar
    30    23    18    1
    31    15    10    1
    32    29    25   ar
    33    29    30    1
@<TRIPOS>MOLECULE
*****
 30 33 0 0 0
SMALL
GASTEIGER

@<TRIPOS>ATOM
      1 C          -5.5960  -20.5047   21.9689 C.3     1  UNL1        0.2068
      2 O          -4.4252  -20.0457   22.7866 O.3     1  UNL1       -0.4753
      3 C          -2.0841  -16.9864   21.8323 C.ar    1  UNL1        0.0062
      4 C          -2.5951  -18.3894   21.9757 C.ar    1  UNL1        0.0371
      5 C          -3.9142  -18.6426   22.6433 C.ar    1  UNL1        0.1416
      6 C          -4.7224  -17.4929   23.1676 C.ar    1  UNL1        0.0737
      7 C          -4.2115  -16.0900   23.0243 C.ar    1  UNL1        0.1414
      8 C          -2.8923  -15.8367   22.3567 C.ar    1  UNL1        0.0371
      9 O          -5.0197  -14.9402   23.5486 O.3     1  UNL1       -0.4791
     10 C          -6.0548  -15.1728   24.6089 C.3     1  UNL1        0.1659
     11 C          -5.6379  -15.3406   26.0401 C.3     1  UNL1        0.0435
     12 C          -6.6731  -15.5733   27.1004 C.3     1  UNL1        0.0037
     13 C          -8.1251  -15.6382   26.7297 C.3     1  UNL1        0.0002
     14 C          -8.5420  -15.4704   25.2985 C.3     1  UNL1        0.0037
     15 C          -7.5069  -15.2377   24.2382 C.3     1  UNL1        0.0435
     16 C          -5.5823  -20.3355   20.4786 C.3     1  UNL1        0.0646
     17 C          -6.2868  -19.1701   19.8495 C.3     1  UNL1        0.0759
     18 N          -7.7117  -18.8711   20.2107 N.3     1  UNL1       -0.2726
     19 C          -8.0180  -17.9266   21.3350 C.3     1  UNL1        0.0721
     20 C          -9.4428  -17.6276   21.6962 C.3     1  UNL1        0.0178
     21 C         -10.5612  -18.2731   20.9331 C.3     1  UNL1        0.0087
     22 C         -10.2549  -19.2176   19.8088 C.3     1  UNL1        0.0178
     23 C          -8.8301  -19.5167   19.4476 C.3     1  UNL1        0.0721
     24 C         -11.9861  -17.9741   21.2943 C.3     1  UNL1        0.0453
     25 C         -12.4654  -18.1921   22.6989 C.ar    1  UNL1        0.0541
     26 C         -11.6750  -18.8092   23.8144 C.ar    1  UNL1        0.1131
     27 N         -12.5402  -18.8297   25.0395 N.ar    1  UNL1       -0.2229
     28 C         -13.8655  -18.2253   24.6811 C.ar    1  UNL1        0.1748
     29 N         -13.8193  -17.8312   23.2345 N.ar    1  UNL1       -0.3382
     30 H         -14.5493  -17.4097   22.7260 H       1  UNL1        0.1672
@<TRIPOS>BOND
     1     3     4   ar
     2     4     5   ar
     3     5     2    1
     4     2     1    1
     5     1    16    1
     6    16    17    1
     7    17    18    1
     8    18    19    1
     9    19    20    1
    10    20    21    1
    11    21    24    1
    12    24    25    1
    13    25    26   ar
    14    26    27   ar
    15    27    28   ar
    16    28    29   ar
    17    21    22    1
    18    22    23    1
    19     5     6   ar
    20     6     7   ar
    21     7     9    1
    22     9    10    1
    23    10    11    1
    24    11    12    1
    25    12    13    1
    26    13    14    1
    27    14    15    1
    28     7     8   ar
    29     8     3   ar
    30    23    18    1
    31    15    10    1
    32    29    25   ar
    33    29    30    1
@<TRIPOS>MOLECULE
*****
 30 33 0 0 0
SMALL
GASTEIGER

@<TRIPOS>ATOM
      1 C          -2.8476  -16.9515   23.0621 C.3     1  UNL1        0.2068
      2 O          -2.6204  -17.6815   21.7716 O.3     1  UNL1       -0.4753
      3 C          -4.2018  -20.6893   19.7215 C.ar    1  UNL1        0.0062
      4 C          -3.2496  -19.6133   20.1521 C.ar    1  UNL1        0.0371
      5 C          -3.5727  -18.7575   21.3409 C.ar    1  UNL1        0.1416
      6 C          -4.8481  -18.9778   22.0991 C.ar    1  UNL1        0.0737
      7 C          -5.8003  -20.0537   21.6684 C.ar    1  UNL1        0.1414
      8 C          -5.4772  -20.9095   20.4796 C.ar    1  UNL1        0.0371
      9 O          -7.0758  -20.2740   22.4266 O.3     1  UNL1       -0.4791
     10 C          -8.3953  -19.9839   21.7750 C.3     1  UNL1        0.1659
     11 C          -8.4425  -19.5311   20.3457 C.3     1  UNL1        0.0435
     12 C          -9.7621  -19.2410   19.6941 C.3     1  UNL1        0.0037
     13 C         -11.0344  -19.4036   20.4717 C.3     1  UNL1        0.0002
     14 C         -10.9872  -19.8563   21.9010 C.3     1  UNL1        0.0037
     15 C          -9.6677  -20.1465   22.5526 C.3     1  UNL1        0.0435
     16 C          -3.9103  -15.8966   23.1500 C.3     1  UNL1        0.0646
     17 C          -4.8691  -15.8923   24.3036 C.3     1  UNL1        0.0759
     18 N          -6.3440  -16.0036   24.0533 N.3     1  UNL1       -0.2726
     19 C          -7.3183  -15.5928   25.1172 C.3     1  UNL1        0.0721
     20 C          -8.7931  -15.7041   24.8670 C.3     1  UNL1        0.0178
     21 C          -9.2935  -16.2262   23.5529 C.3     1  UNL1        0.0087
     22 C          -8.3192  -16.6369   22.4890 C.3     1  UNL1        0.0178
     23 C          -6.8444  -16.5256   22.7392 C.3     1  UNL1        0.0721
     24 C         -10.7683  -16.3375   23.3027 C.3     1  UNL1        0.0453
     25 C         -11.3079  -16.1713   21.9130 C.ar    1  UNL1        0.0541
     26 C         -12.7197  -16.4316   21.4783 C.ar    1  UNL1        0.1131
     27 N         -12.8147  -16.1369   20.0106 N.ar    1  UNL1       -0.2229
     28 C         -11.4615  -15.6943   19.5382 C.ar    1  UNL1        0.1748
     29 N         -10.5302  -15.7156   20.7139 N.ar    1  UNL1       -0.3382
     30 H          -9.5761  -15.4731   20.7008 H       1  UNL1        0.1672
@<TRIPOS>BOND
     1     3     4   ar
     2     4     5   ar
     3     5     2    1
     4     2     1    1
     5     1    16    1
     6    16    17    1
     7    17    18    1
     8    18    19    1
     9    19    20    1
    10    20    21    1
    11    21    24    1
    12    24    25    1
    13    25    26   ar
    14    26    27   ar
    15    27    28   ar
    16    28    29   ar
    17    21    22    1
    18    22    23    1
    19     5     6   ar
    20     6     7   ar
    21     7     9    1
    22     9    10    1
    23    10    11    1
    24    11    12    1
    25    12    13    1
    26    13    14    1
    27    14    15    1
    28     7     8   ar
    29     8     3   ar
    30    23    18    1
    31    15    10    1
    32    29    25   ar
    33    29    30    1
@<TRIPOS>MOLECULE
*****
 30 33 0 0 0
SMALL
GASTEIGER

@<TRIPOS>ATOM
      1 C          -3.7649  -17.6990   24.5325 C.3     1  UNL1        0.2068
      2 O          -2.8697  -17.2761   23.4056 O.3     1  UNL1       -0.4753
      3 C          -2.2629  -18.1297   19.5776 C.ar    1  UNL1        0.0062
      4 C          -2.0900  -17.5261   20.9399 C.ar    1  UNL1        0.0371
      5 C          -3.0427  -17.8797   22.0433 C.ar    1  UNL1        0.1416
      6 C          -4.1682  -18.8367   21.7844 C.ar    1  UNL1        0.0737
      7 C          -4.3412  -19.4403   20.4222 C.ar    1  UNL1        0.1414
      8 C          -3.3885  -19.0867   19.3188 C.ar    1  UNL1        0.0371
      9 O          -5.4668  -20.3974   20.1633 O.3     1  UNL1       -0.4791
     10 C          -6.8402  -20.0994   20.6873 C.3     1  UNL1        0.1659
     11 C          -7.1469  -20.2963   22.1424 C.3     1  UNL1        0.0435
     12 C          -8.5204  -19.9982   22.6665 C.3     1  UNL1        0.0037
     13 C          -9.5873  -19.5032   21.7355 C.3     1  UNL1        0.0002
     14 C          -9.2807  -19.3063   20.2804 C.3     1  UNL1        0.0037
     15 C          -7.9072  -19.6043   19.7563 C.3     1  UNL1        0.0435
     16 C          -4.2854  -16.6782   25.5005 C.3     1  UNL1        0.0646
     17 C          -5.1045  -15.5236   25.0046 C.3     1  UNL1        0.0759
     18 N          -6.5192  -15.7450   24.5576 N.3     1  UNL1       -0.2726
     19 C          -6.7964  -16.2880   23.1870 C.3     1  UNL1        0.0721
     20 C          -8.2109  -16.5094   22.7399 C.3     1  UNL1        0.0178
     21 C          -9.3483  -16.1876   23.6633 C.3     1  UNL1        0.0087
     22 C          -9.0712  -15.6446   25.0338 C.3     1  UNL1        0.0178
     23 C          -7.6566  -15.4232   25.4809 C.3     1  UNL1        0.0721
     24 C         -10.7630  -16.4089   23.2162 C.3     1  UNL1        0.0453
     25 C         -11.1281  -16.2395   21.7712 C.ar    1  UNL1        0.0541
     26 C         -12.2757  -16.9019   21.0682 C.ar    1  UNL1        0.1131
     27 N         -12.2665  -16.4496   19.6380 N.ar    1  UNL1       -0.2229
     28 C         -11.1132  -15.5077   19.4571 C.ar    1  UNL1        0.1748
     29 N         -10.4096  -15.3778   20.7755 N.ar    1  UNL1       -0.3382
     30 H          -9.6157  -14.8242   20.9556 H       1  UNL1        0.1672
@<TRIPOS>BOND
     1     3     4   ar
     2     4     5   ar
     3     5     2    1
     4     2     1    1
     5     1    16    1
     6    16    17    1
     7    17    18    1
     8    18    19    1
     9    19    20    1
    10    20    21    1
    11    21    24    1
    12    24    25    1
    13    25    26   ar
    14    26    27   ar
    15    27    28   ar
    16    28    29   ar
    17    21    22    1
    18    22    23    1
    19     5     6   ar
    20     6     7   ar
    21     7     9    1
    22     9    10    1
    23    10    11    1
    24    11    12    1
    25    12    13    1
    26    13    14    1
    27    14    15    1
    28     7     8   ar
    29     8     3   ar
    30    23    18    1
    31    15    10    1
    32    29    25   ar
    33    29    30    1
@<TRIPOS>MOLECULE
*****
 30 33 0 0 0
SMALL
GASTEIGER

@<TRIPOS>ATOM
      1 C          -5.3613  -15.3519   25.8326 C.3     1  UNL1        0.2068
      2 O          -5.7664  -15.3377   24.3884 O.3     1  UNL1       -0.4753
      3 C          -7.0369  -18.4927   22.3434 C.ar    1  UNL1        0.0062
      4 C          -7.0477  -17.2205   23.1378 C.ar    1  UNL1        0.0371
      5 C          -5.7556  -16.6101   23.5939 C.ar    1  UNL1        0.1416
      6 C          -4.4528  -17.2719   23.2556 C.ar    1  UNL1        0.0737
      7 C          -4.4420  -18.5442   22.4611 C.ar    1  UNL1        0.1414
      8 C          -5.7340  -19.1546   22.0050 C.ar    1  UNL1        0.0371
      9 O          -3.1391  -19.2061   22.1227 O.3     1  UNL1       -0.4791
     10 C          -2.3240  -18.7098   20.9655 C.3     1  UNL1        0.1659
     11 C          -2.9070  -18.7081   19.5835 C.3     1  UNL1        0.0435
     12 C          -2.0918  -18.2117   18.4262 C.3     1  UNL1        0.0037
     13 C          -0.6937  -17.7171   18.6511 C.3     1  UNL1        0.0002
     14 C          -0.1107  -17.7187   20.0332 C.3     1  UNL1        0.0037
     15 C          -0.9258  -18.2151   21.1904 C.3     1  UNL1        0.0435
     16 C          -6.3433  -15.7792   26.8828 C.3     1  UNL1        0.0646
     17 C          -7.7886  -15.3978   26.7579 C.3     1  UNL1        0.0759
     18 N          -8.7050  -16.2057   25.8875 N.3     1  UNL1       -0.2726
     19 C          -8.9973  -17.6364   26.2308 C.3     1  UNL1        0.0721
     20 C          -9.9136  -18.4443   25.3606 C.3     1  UNL1        0.0178
     21 C         -10.5376  -17.8217   24.1470 C.3     1  UNL1        0.0087
     22 C         -10.2453  -16.3911   23.8037 C.3     1  UNL1        0.0178
     23 C          -9.3290  -15.5831   24.6740 C.3     1  UNL1        0.0721
     24 C         -11.4540  -18.6297   23.2766 C.3     1  UNL1        0.0453
     25 C         -11.2765  -18.6190   21.7872 C.ar    1  UNL1        0.0541
     26 C         -11.9423  -17.6787   20.8266 C.ar    1  UNL1        0.1131
     27 N         -11.4793  -18.0253   19.4426 N.ar    1  UNL1       -0.2229
     28 C         -10.5274  -19.1797   19.5478 C.ar    1  UNL1        0.1748
     29 N         -10.4020  -19.5467   20.9968 N.ar    1  UNL1       -0.3382
     30 H          -9.8438  -20.2695   21.3645 H       1  UNL1        0.1672
@<TRIPOS>BOND
     1     3     4   ar
     2     4     5   ar
     3     5     2    1
     4     2     1    1
     5     1    16    1
     6    16    17    1
     7    17    18    1
     8    18    19    1
     9    19    20    1
    10    20    21    1
    11    21    24    1
    12    24    25    1
    13    25    26   ar
    14    26    27   ar
    15    27    28   ar
    16    28    29   ar
    17    21    22    1
    18    22    23    1
    19     5     6   ar
    20     6     7   ar
    21     7     9    1
    22     9    10    1
    23    10    11    1
    24    11    12    1
    25    12    13    1
    26    13    14    1
    27    14    15    1
    28     7     8   ar
    29     8     3   ar
    30    23    18    1
    31    15    10    1
    32    29    25   ar
    33    29    30    1
@<TRIPOS>MOLECULE
*****
 30 33 0 0 0
SMALL
GASTEIGER

@<TRIPOS>ATOM
      1 C          -5.3366  -15.8945   25.0248 C.3     1  UNL1        0.2068
      2 O          -4.1973  -16.7167   24.4994 O.3     1  UNL1       -0.4753
      3 C          -3.5919  -19.5985   21.8388 C.ar    1  UNL1        0.0062
      4 C          -3.3756  -18.6712   22.9977 C.ar    1  UNL1        0.0371
      5 C          -4.4137  -17.6441   23.3403 C.ar    1  UNL1        0.1416
      6 C          -5.6681  -17.5443   22.5240 C.ar    1  UNL1        0.0737
      7 C          -5.8844  -18.4716   21.3650 C.ar    1  UNL1        0.1414
      8 C          -4.8463  -19.4987   21.0224 C.ar    1  UNL1        0.0371
      9 O          -7.1389  -18.3719   20.5486 O.3     1  UNL1       -0.4791
     10 C          -8.3963  -19.0393   21.0212 C.3     1  UNL1        0.1659
     11 C          -9.5661  -19.1784   20.0927 C.3     1  UNL1        0.0435
     12 C         -10.8236  -19.8458   20.5653 C.3     1  UNL1        0.0037
     13 C         -10.9112  -20.3742   21.9664 C.3     1  UNL1        0.0002
     14 C          -9.7414  -20.2351   22.8949 C.3     1  UNL1        0.0037
     15 C          -8.4839  -19.5677   22.4224 C.3     1  UNL1        0.0435
     16 C          -5.6402  -15.8857   26.4937 C.3     1  UNL1        0.0646
     17 C          -7.0641  -15.8832   26.9653 C.3     1  UNL1        0.0759
     18 N          -8.1741  -16.1796   26.0008 N.3     1  UNL1       -0.2726
     19 C          -8.5627  -15.1627   24.9689 C.3     1  UNL1        0.0721
     20 C          -9.6726  -15.4591   24.0045 C.3     1  UNL1        0.0178
     21 C         -10.3939  -16.7725   24.0720 C.3     1  UNL1        0.0087
     22 C         -10.0054  -17.7894   25.1039 C.3     1  UNL1        0.0178
     23 C          -8.8955  -17.4930   26.0683 C.3     1  UNL1        0.0721
     24 C         -11.5039  -17.0690   23.1075 C.3     1  UNL1        0.0453
     25 C         -11.4651  -16.4982   21.7209 C.ar    1  UNL1        0.0541
     26 C         -12.5682  -16.5693   20.7069 C.ar    1  UNL1        0.1131
     27 N         -12.1012  -15.8711   19.4641 N.ar    1  UNL1       -0.2229
     28 C         -10.7094  -15.3686   19.7100 C.ar    1  UNL1        0.1748
     29 N         -10.3162  -15.7561   21.1047 N.ar    1  UNL1       -0.3382
     30 H          -9.4553  -15.5582   21.5394 H       1  UNL1        0.1672
@<TRIPOS>BOND
     1     3     4   ar
     2     4     5   ar
     3     5     2    1
     4     2     1    1
     5     1    16    1
     6    16    17    1
     7    17    18    1
     8    18    19    1
     9    19    20    1
    10    20    21    1
    11    21    24    1
    12    24    25    1
    13    25    26   ar
    14    26    27   ar
    15    27    28   ar
    16    28    29   ar
    17    21    22    1
    18    22    23    1
    19     5     6   ar
    20     6     7   ar
    21     7     9    1
    22     9    10    1
    23    10    11    1
    24    11    12    1
    25    12    13    1
    26    13    14    1
    27    14    15    1
    28     7     8   ar
    29     8     3   ar
    30    23    18    1
    31    15    10    1
    32    29    25   ar
    33    29    30    1
@<TRIPOS>MOLECULE
*****
 30 33 0 0 0
SMALL
GASTEIGER

@<TRIPOS>ATOM
      1 C         -16.2609    0.0045   17.3821 C.3     1  UNL1        0.2068
      2 O         -14.7930    0.0297   17.6900 O.3     1  UNL1       -0.4753
      3 C         -14.2887   -2.7356   20.4916 C.ar    1  UNL1        0.0062
      4 C         -14.9048   -1.6315   19.6845 C.ar    1  UNL1        0.0371
      5 C         -14.1769   -1.0744   18.4972 C.ar    1  UNL1        0.1416
      6 C         -12.8330   -1.6214   18.1169 C.ar    1  UNL1        0.0737
      7 C         -12.2169   -2.7254   18.9240 C.ar    1  UNL1        0.1414
      8 C         -12.9448   -3.2825   20.1113 C.ar    1  UNL1        0.0371
      9 O         -10.8729   -3.2725   18.5437 O.3     1  UNL1       -0.4791
     10 C         -10.6911   -4.7490   18.3517 C.3     1  UNL1        0.1659
     11 C          -9.6894   -5.4955   19.1819 C.3     1  UNL1        0.0435
     12 C          -9.5076   -6.9721   18.9898 C.3     1  UNL1        0.0037
     13 C         -10.3276   -7.7020   17.9677 C.3     1  UNL1        0.0002
     14 C         -11.3293   -6.9554   17.1375 C.3     1  UNL1        0.0037
     15 C         -11.5111   -5.4789   17.3295 C.3     1  UNL1        0.0435
     16 C         -16.7825   -0.8784   16.2874 C.3     1  UNL1        0.0646
     17 C         -17.5992   -2.0901   16.6262 C.3     1  UNL1        0.0759
     18 N         -16.9548   -3.2639   17.3023 N.3     1  UNL1       -0.2726
     19 C         -17.5643   -3.8409   18.5455 C.3     1  UNL1        0.0721
     20 C         -16.9200   -5.0146   19.2216 C.3     1  UNL1        0.0178
     21 C         -15.6661   -5.6113   18.6546 C.3     1  UNL1        0.0087
     22 C         -15.0565   -5.0343   17.4114 C.3     1  UNL1        0.0178
     23 C         -15.7009   -3.8606   16.7352 C.3     1  UNL1        0.0721
     24 C         -15.0216   -6.7851   19.3307 C.3     1  UNL1        0.0453
     25 C         -15.5477   -8.1695   19.0926 C.ar    1  UNL1        0.0541
     26 C         -14.8904   -9.2317   18.2622 C.ar    1  UNL1        0.1131
     27 N         -15.7598  -10.4535   18.2994 N.ar    1  UNL1       -0.2229
     28 C         -16.9545  -10.1463   19.1529 C.ar    1  UNL1        0.1748
     29 N         -16.8234   -8.7347   19.6431 N.ar    1  UNL1       -0.3382
     30 H         -17.4625   -8.2622   20.2242 H       1  UNL1        0.1672
@<TRIPOS>BOND
     1     3     4   ar
     2     4     5   ar
     3     5     2    1
     4     2     1    1
     5     1    16    1
     6    16    17    1
     7    17    18    1
     8    18    19    1
     9    19    20    1
    10    20    21    1
    11    21    24    1
    12    24    25    1
    13    25    26   ar
    14    26    27   ar
    15    27    28   ar
    16    28    29   ar
    17    21    22    1
    18    22    23    1
    19     5     6   ar
    20     6     7   ar
    21     7     9    1
    22     9    10    1
    23    10    11    1
    24    11    12    1
    25    12    13    1
    26    13    14    1
    27    14    15    1
    28     7     8   ar
    29     8     3   ar
    30    23    18    1
    31    15    10    1
    32    29    25   ar
    33    29    30    1
@<TRIPOS>MOLECULE
*****
 30 33 0 0 0
SMALL
GASTEIGER

@<TRIPOS>ATOM
      1 C           6.9474   -3.4672   22.9453 C.3     1  UNL1        0.2068
      2 O           6.3709   -4.4242   21.9444 O.3     1  UNL1       -0.4753
      3 C           3.6853   -3.6540   19.1258 C.ar    1  UNL1        0.0062
      4 C           4.3047   -4.1733   20.3893 C.ar    1  UNL1        0.0371
      5 C           5.7514   -3.9048   20.6808 C.ar    1  UNL1        0.1416
      6 C           6.5787   -3.1171   19.7086 C.ar    1  UNL1        0.0737
      7 C           5.9592   -2.5978   18.4451 C.ar    1  UNL1        0.1414
      8 C           4.5125   -2.8663   18.1537 C.ar    1  UNL1        0.0371
      9 O           6.7865   -1.8100   17.4729 O.3     1  UNL1       -0.4791
     10 C           6.8872   -0.3197   17.6090 C.3     1  UNL1        0.1659
     11 C           7.8863    0.2815   18.5526 C.3     1  UNL1        0.0435
     12 C           7.9869    1.7720   18.6887 C.3     1  UNL1        0.0037
     13 C           7.0885    2.6612   17.8813 C.3     1  UNL1        0.0002
     14 C           6.0894    2.0600   16.9377 C.3     1  UNL1        0.0037
     15 C           5.9887    0.5696   16.8015 C.3     1  UNL1        0.0435
     16 C           6.0365   -2.6331   23.7965 C.3     1  UNL1        0.0646
     17 C           5.7890   -1.1960   23.4450 C.3     1  UNL1        0.0759
     18 N           4.8047   -0.8460   22.3685 N.3     1  UNL1       -0.2726
     19 C           5.2502   -0.0586   21.1720 C.3     1  UNL1        0.0721
     20 C           4.2660    0.2914   20.0956 C.3     1  UNL1        0.0178
     21 C           2.8362   -0.1459   20.2157 C.3     1  UNL1        0.0087
     22 C           2.3907   -0.9332   21.4122 C.3     1  UNL1        0.0178
     23 C           3.3749   -1.2833   22.4886 C.3     1  UNL1        0.0721
     24 C           1.8519    0.2041   19.1393 C.3     1  UNL1        0.0453
     25 C           0.8104    1.2546   19.3881 C.ar    1  UNL1        0.0541
     26 C           0.5421    2.4519   18.5253 C.ar    1  UNL1        0.1131
     27 N          -0.5797    3.2295   19.1473 N.ar    1  UNL1       -0.2229
     28 C          -1.0047    2.5128   20.3946 C.ar    1  UNL1        0.1748
     29 N          -0.1456    1.2922   20.5434 N.ar    1  UNL1       -0.3382
     30 H          -0.1996    0.6317   21.2715 H       1  UNL1        0.1672
@<TRIPOS>BOND
     1     3     4   ar
     2     4     5   ar
     3     5     2    1
     4     2     1    1
     5     1    16    1
     6    16    17    1
     7    17    18    1
     8    18    19    1
     9    19    20    1
    10    20    21    1
    11    21    24    1
    12    24    25    1
    13    25    26   ar
    14    26    27   ar
    15    27    28   ar
    16    28    29   ar
    17    21    22    1
    18    22    23    1
    19     5     6   ar
    20     6     7   ar
    21     7     9    1
    22     9    10    1
    23    10    11    1
    24    11    12    1
    25    12    13    1
    26    13    14    1
    27    14    15    1
    28     7     8   ar
    29     8     3   ar
    30    23    18    1
    31    15    10    1
    32    29    25   ar
    33    29    30    1
