@<TRIPOS>MOLECULE
*****
 44 47 0 0 0
SMALL
GASTEIGER

@<TRIPOS>ATOM
      1 C          -0.8082    2.8641   20.6526 C.ar    1  UNL1        0.1486
      2 C           0.0629    3.1025   21.8504 C.ar    1  UNL1        0.0749
      3 C          -0.5496    3.5379   23.1485 C.ar    1  UNL1        0.1486
      4 C          -2.0332    3.7349   23.2490 C.ar    1  UNL1        0.0441
      5 C          -2.9043    3.4966   22.0513 C.ar    1  UNL1        0.0817
      6 C          -2.2918    3.0612   20.7531 C.ar    1  UNL1        0.0441
      7 C          -4.3879    3.6937   22.1518 C.2     1  UNL1        0.3413
      8 O          -5.1190    4.4453   21.0791 O.2     1  UNL1       -0.2449
      9 O          -5.1404    3.1391   23.3249 O.3     1  UNL1       -0.4492
     10 C          -5.3435    3.9793   24.5508 C.3     1  UNL1        0.1692
     11 C          -4.4619    3.7837   25.7486 C.3     1  UNL1        0.0450
     12 C          -4.6650    4.6239   26.9745 C.3     1  UNL1        0.0192
     13 C          -5.7496    5.6597   27.0026 C.3     1  UNL1        0.0510
     14 N          -5.9527    6.4999   28.2285 N.3     1  UNL1       -0.3222
     15 C          -6.6311    5.8553   25.8048 C.3     1  UNL1        0.0192
     16 C          -6.4280    5.0151   24.5789 C.3     1  UNL1        0.0450
     17 H          -5.2710    6.2345   28.9393 H       1  UNL1        0.1188
     18 H          -6.8952    6.3524   28.5895 H       1  UNL1        0.1188
     19 O          -0.1956    2.4287   19.3545 O.3     1  UNL1       -0.4534
     20 C           2.9372   -0.8015   19.3163 C.ar    1  UNL1        0.0815
     21 C           1.6842   -0.9814   20.1210 C.ar    1  UNL1        0.0105
     22 C           0.6399    0.0953   20.1337 C.ar    1  UNL1        0.0377
     23 C           0.8486    1.3520   19.3418 C.ar    1  UNL1        0.1453
     24 C           2.1017    1.5319   18.5371 C.ar    1  UNL1        0.0377
     25 C           3.1459    0.4551   18.5244 C.ar    1  UNL1        0.0105
     26 N           5.2938   -1.6585   19.9959 N.2     1  UNL1       -0.0994
     27 C           3.9814   -1.8782   19.3036 C.2     1  UNL1        0.3093
     28 N           3.7133   -3.1748   18.5986 N.pl3   1  UNL1       -0.2466
     29 H           5.9792   -2.3652   19.9875 H       1  UNL1        0.3633
     30 H           4.3987   -3.8815   18.5903 H       1  UNL1        0.2884
     31 H           2.8520   -3.3191   18.1442 H       1  UNL1        0.2884
     32 O           0.3214    3.7763   24.3462 O.3     1  UNL1       -0.4534
     33 C           0.3188    2.7969   25.4823 C.ar    1  UNL1        0.1453
     34 C          -0.8985    2.6549   26.3474 C.ar    1  UNL1        0.0377
     35 C          -0.9012    1.6755   27.4835 C.ar    1  UNL1        0.0105
     36 C           0.3135    0.8381   27.7546 C.ar    1  UNL1        0.0815
     37 C           1.5306    0.9800   26.8896 C.ar    1  UNL1        0.0105
     38 C           1.5333    1.9594   25.7535 C.ar    1  UNL1        0.0377
     39 C           0.3108   -0.1413   28.8907 C.2     1  UNL1        0.3093
     40 N          -0.9857   -0.7052   29.3918 N.2     1  UNL1       -0.0994
     41 N           1.6047   -0.5568   29.5258 N.pl3   1  UNL1       -0.2466
     42 H          -1.8349   -0.4326   28.9750 H       1  UNL1        0.3633
     43 H           2.4557   -0.1867   29.1969 H       1  UNL1        0.2884
     44 H           1.6030   -1.1996   30.2715 H       1  UNL1        0.2884
@<TRIPOS>BOND
     1    26    27    2
     2    27    28    1
     3    27    20    1
     4    20    21   ar
     5    21    22   ar
     6    22    23   ar
     7    23    19    1
     8    19     1    1
     9     1     2   ar
    10     2     3   ar
    11     3    32    1
    12    32    33    1
    13    33    34   ar
    14    34    35   ar
    15    35    36   ar
    16    36    39    1
    17    39    40    2
    18    39    41    1
    19    36    37   ar
    20    37    38   ar
    21     3     4   ar
    22     4     5   ar
    23     5     7    1
    24     7     8    2
    25     7     9    1
    26    10     9    1
    27    10    11    1
    28    11    12    1
    29    12    13    1
    30    13    14    1
    31    13    15    1
    32    15    16    1
    33     5     6   ar
    34    23    24   ar
    35    24    25   ar
    36    25    20   ar
    37     6     1   ar
    38    38    33   ar
    39    16    10    1
    40    26    29    1
    41    28    30    1
    42    28    31    1
    43    40    42    1
    44    41    43    1
    45    41    44    1
    46    14    17    1
    47    14    18    1
@<TRIPOS>MOLECULE
*****
 44 47 0 0 0
SMALL
GASTEIGER

@<TRIPOS>ATOM
      1 C          -0.0582    3.5801   22.6646 C.ar    1  UNL1        0.1486
      2 C           0.9502    3.1674   21.6336 C.ar    1  UNL1        0.0749
      3 C           0.4986    2.7720   20.2590 C.ar    1  UNL1        0.1486
      4 C          -0.9614    2.7891   19.9153 C.ar    1  UNL1        0.0441
      5 C          -1.9697    3.2017   20.9463 C.ar    1  UNL1        0.0817
      6 C          -1.5182    3.5972   22.3210 C.ar    1  UNL1        0.0441
      7 C          -3.4297    3.2188   20.6026 C.2     1  UNL1        0.3413
      8 O          -3.8980    3.9030   19.3525 O.2     1  UNL1       -0.2449
      9 O          -4.4215    2.5519   21.5089 O.3     1  UNL1       -0.4492
     10 C          -5.1541    3.3569   22.5410 C.3     1  UNL1        0.1692
     11 C          -4.7540    3.2686   23.9840 C.3     1  UNL1        0.0450
     12 C          -5.4866    4.0737   25.0160 C.3     1  UNL1        0.0192
     13 C          -6.6193    4.9671   24.6051 C.3     1  UNL1        0.0510
     14 N          -7.3520    5.7721   25.6371 N.3     1  UNL1       -0.3222
     15 C          -7.0194    5.0553   23.1622 C.3     1  UNL1        0.0192
     16 C          -6.2868    4.2503   22.1301 C.3     1  UNL1        0.0450
     17 H          -6.9507    5.5912   26.5573 H       1  UNL1        0.1188
     18 H          -8.3372    5.5080   25.6380 H       1  UNL1        0.1188
     19 O           0.3935    3.9756   24.0393 O.3     1  UNL1       -0.4534
     20 C          -0.3930    1.2542   27.5358 C.ar    1  UNL1        0.0815
     21 C          -1.4151    2.2767   27.1365 C.ar    1  UNL1        0.0105
     22 C          -1.1530    3.1839   25.9710 C.ar    1  UNL1        0.0377
     23 C           0.1313    3.0684   25.2048 C.ar    1  UNL1        0.1453
     24 C           1.1535    2.0459   25.6041 C.ar    1  UNL1        0.0377
     25 C           0.8914    1.1388   26.7696 C.ar    1  UNL1        0.0105
     26 N           0.4813   -0.3822   29.3545 N.2     1  UNL1       -0.0994
     27 C          -0.6551    0.3471   28.7013 C.2     1  UNL1        0.3093
     28 N          -2.0536    0.1692   29.2136 N.pl3   1  UNL1       -0.2466
     29 H           0.3092   -0.9776   30.1195 H       1  UNL1        0.3633
     30 H          -2.2256   -0.4261   29.9786 H       1  UNL1        0.2884
     31 H          -2.7995    0.6479   28.7849 H       1  UNL1        0.2884
     32 O           1.5070    2.3593   19.2280 O.3     1  UNL1       -0.4534
     33 C           2.1241    0.9934   19.2871 C.ar    1  UNL1        0.1453
     34 C           1.7350    0.0412   20.3788 C.ar    1  UNL1        0.0377
     35 C           2.3521   -1.3247   20.4379 C.ar    1  UNL1        0.0105
     36 C           3.3583   -1.7384   19.4052 C.ar    1  UNL1        0.0815
     37 C           3.7474   -0.7862   18.3135 C.ar    1  UNL1        0.0105
     38 C           3.1303    0.5797   18.2545 C.ar    1  UNL1        0.0377
     39 C           3.9754   -3.1043   19.4643 C.2     1  UNL1        0.3093
     40 N           3.3897   -4.2273   18.6607 N.2     1  UNL1       -0.0994
     41 N           5.1783   -3.3472   20.3270 N.pl3   1  UNL1       -0.2466
     42 H           2.6002   -4.0679   18.0945 H       1  UNL1        0.3633
     43 H           5.5627   -2.6101   20.8544 H       1  UNL1        0.2884
     44 H           5.5833   -4.2437   20.3658 H       1  UNL1        0.2884
@<TRIPOS>BOND
     1    26    27    2
     2    27    28    1
     3    27    20    1
     4    20    21   ar
     5    21    22   ar
     6    22    23   ar
     7    23    19    1
     8    19     1    1
     9     1     2   ar
    10     2     3   ar
    11     3    32    1
    12    32    33    1
    13    33    34   ar
    14    34    35   ar
    15    35    36   ar
    16    36    39    1
    17    39    40    2
    18    39    41    1
    19    36    37   ar
    20    37    38   ar
    21     3     4   ar
    22     4     5   ar
    23     5     7    1
    24     7     8    2
    25     7     9    1
    26    10     9    1
    27    10    11    1
    28    11    12    1
    29    12    13    1
    30    13    14    1
    31    13    15    1
    32    15    16    1
    33     5     6   ar
    34    23    24   ar
    35    24    25   ar
    36    25    20   ar
    37     6     1   ar
    38    38    33   ar
    39    16    10    1
    40    26    29    1
    41    28    30    1
    42    28    31    1
    43    40    42    1
    44    41    43    1
    45    41    44    1
    46    14    17    1
    47    14    18    1
@<TRIPOS>MOLECULE
*****
 44 47 0 0 0
SMALL
GASTEIGER

@<TRIPOS>ATOM
      1 C           0.5068    2.7496   20.2775 C.ar    1  UNL1        0.1486
      2 C           0.9210    3.1612   21.6592 C.ar    1  UNL1        0.0749
      3 C          -0.1147    3.5882   22.6567 C.ar    1  UNL1        0.1486
      4 C          -1.5646    3.6035   22.2726 C.ar    1  UNL1        0.0441
      5 C          -1.9788    3.1918   20.8909 C.ar    1  UNL1        0.0817
      6 C          -0.9431    2.7648   19.8933 C.ar    1  UNL1        0.0441
      7 C          -3.4287    3.2071   20.5068 C.2     1  UNL1        0.3413
      8 O          -3.8616    3.8814   19.2387 O.2     1  UNL1       -0.2449
      9 O          -4.4458    2.5481   21.3907 O.3     1  UNL1       -0.4492
     10 C          -5.1767    3.3540   22.4234 C.3     1  UNL1        0.1692
     11 C          -6.2977    4.2615   22.0111 C.3     1  UNL1        0.0450
     12 C          -7.0286    5.0674   23.0437 C.3     1  UNL1        0.0192
     13 C          -6.6384    4.9659   24.4886 C.3     1  UNL1        0.0510
     14 N          -7.3693    5.7718   25.5212 N.3     1  UNL1       -0.3222
     15 C          -5.5175    4.0584   24.9008 C.3     1  UNL1        0.0192
     16 C          -4.7866    3.2525   23.8682 C.3     1  UNL1        0.0450
     17 H          -8.0943    6.3279   25.0679 H       1  UNL1        0.1188
     18 H          -6.7128    6.3912   25.9963 H       1  UNL1        0.1188
     19 O           1.5424    2.3226   19.2800 O.3     1  UNL1       -0.4534
     20 C           3.3067   -1.8114   19.4977 C.ar    1  UNL1        0.0815
     21 C           2.3948   -1.3269   20.5856 C.ar    1  UNL1        0.0105
     22 C           1.8067    0.0511   20.5130 C.ar    1  UNL1        0.0377
     23 C           2.1305    0.9446   19.3525 C.ar    1  UNL1        0.1453
     24 C           3.0424    0.4601   18.2646 C.ar    1  UNL1        0.0377
     25 C           3.6305   -0.9179   18.3372 C.ar    1  UNL1        0.0105
     26 N           4.8683   -3.5330   20.6584 N.2     1  UNL1       -0.0994
     27 C           3.8948   -3.1894   19.5702 C.2     1  UNL1        0.3093
     28 N           3.5094   -4.2237   18.5546 N.pl3   1  UNL1       -0.2466
     29 H           5.2542   -4.4375   20.7060 H       1  UNL1        0.3633
     30 H           3.8954   -5.1282   18.6022 H       1  UNL1        0.2884
     31 H           2.8705   -3.9982   17.8403 H       1  UNL1        0.2884
     32 O           0.2995    3.9999   24.0384 O.3     1  UNL1       -0.4534
     33 C           0.0585    3.0804   25.1988 C.ar    1  UNL1        0.1453
     34 C           1.0478    1.9986   25.5166 C.ar    1  UNL1        0.0377
     35 C           0.8067    1.0792   26.6771 C.ar    1  UNL1        0.0105
     36 C          -0.4236    1.2416   27.5196 C.ar    1  UNL1        0.0815
     37 C          -1.4129    2.3234   27.2018 C.ar    1  UNL1        0.0105
     38 C          -1.1718    3.2428   26.0413 C.ar    1  UNL1        0.0377
     39 C          -0.6647    0.3222   28.6800 C.2     1  UNL1        0.3093
     40 N           0.4886   -0.3818   29.3313 N.2     1  UNL1       -0.0994
     41 N          -2.0592    0.1068   29.1892 N.pl3   1  UNL1       -0.2466
     42 H           1.4038   -0.2404   28.9972 H       1  UNL1        0.3633
     43 H          -2.8161    0.5689   28.7617 H       1  UNL1        0.2884
     44 H          -2.2174   -0.4966   29.9508 H       1  UNL1        0.2884
@<TRIPOS>BOND
     1    26    27    2
     2    27    28    1
     3    27    20    1
     4    20    21   ar
     5    21    22   ar
     6    22    23   ar
     7    23    19    1
     8    19     1    1
     9     1     2   ar
    10     2     3   ar
    11     3    32    1
    12    32    33    1
    13    33    34   ar
    14    34    35   ar
    15    35    36   ar
    16    36    39    1
    17    39    40    2
    18    39    41    1
    19    36    37   ar
    20    37    38   ar
    21     3     4   ar
    22     4     5   ar
    23     5     7    1
    24     7     8    2
    25     7     9    1
    26    10     9    1
    27    10    11    1
    28    11    12    1
    29    12    13    1
    30    13    14    1
    31    13    15    1
    32    15    16    1
    33     5     6   ar
    34    23    24   ar
    35    24    25   ar
    36    25    20   ar
    37     6     1   ar
    38    38    33   ar
    39    16    10    1
    40    26    29    1
    41    28    30    1
    42    28    31    1
    43    40    42    1
    44    41    43    1
    45    41    44    1
    46    14    17    1
    47    14    18    1
@<TRIPOS>MOLECULE
*****
 44 47 0 0 0
SMALL
GASTEIGER

@<TRIPOS>ATOM
      1 C           0.5002    2.8826   22.9048 C.ar    1  UNL1        0.1486
      2 C           0.9027    1.5399   22.3706 C.ar    1  UNL1        0.0749
      3 C           0.3807    1.0733   21.0440 C.ar    1  UNL1        0.1486
      4 C          -0.5438    1.9493   20.2516 C.ar    1  UNL1        0.0441
      5 C          -0.9463    3.2920   20.7858 C.ar    1  UNL1        0.0817
      6 C          -0.4243    3.7586   22.1124 C.ar    1  UNL1        0.0441
      7 C          -1.8708    4.1680   19.9934 C.2     1  UNL1        0.3413
      8 O          -1.4561    5.5638   19.6331 O.2     1  UNL1       -0.2449
      9 O          -3.2098    3.6482   19.5613 O.3     1  UNL1       -0.4492
     10 C          -4.3947    3.7793   20.4718 C.3     1  UNL1        0.1692
     11 C          -4.3231    3.2562   21.8758 C.3     1  UNL1        0.0450
     12 C          -5.5080    3.3873   22.7863 C.3     1  UNL1        0.0192
     13 C          -6.7643    4.0416   22.2927 C.3     1  UNL1        0.0510
     14 N          -7.9492    4.1727   23.2032 N.3     1  UNL1       -0.3222
     15 C          -6.8358    4.5647   20.8887 C.3     1  UNL1        0.0192
     16 C          -5.6510    4.4336   19.9783 C.3     1  UNL1        0.0450
     17 H          -7.7262    3.7666   24.1119 H       1  UNL1        0.1188
     18 H          -8.7457    3.6815   22.7975 H       1  UNL1        0.1188
     19 O           1.0222    3.3492   24.2313 O.3     1  UNL1       -0.4534
     20 C           0.6790    0.6906   27.8457 C.ar    1  UNL1        0.0815
     21 C           2.0307    1.1097   27.3486 C.ar    1  UNL1        0.0105
     22 C           2.1451    1.9959   26.1438 C.ar    1  UNL1        0.0377
     23 C           0.9078    2.4630   25.4361 C.ar    1  UNL1        0.1453
     24 C          -0.4439    2.0439   25.9332 C.ar    1  UNL1        0.0377
     25 C          -0.5583    1.1577   27.1381 C.ar    1  UNL1        0.0105
     26 N          -0.7845   -0.6563   29.5173 N.2     1  UNL1       -0.0994
     27 C           0.5645   -0.1956   29.0505 C.2     1  UNL1        0.3093
     28 N           1.7991   -0.6211   29.7886 N.pl3   1  UNL1       -0.2466
     29 H          -0.8595   -1.2380   30.3081 H       1  UNL1        0.3633
     30 H           1.7240   -1.2028   30.5793 H       1  UNL1        0.2884
     31 H           2.6845   -0.3188   29.4822 H       1  UNL1        0.2884
     32 O           0.7832   -0.2694   20.5098 O.3     1  UNL1       -0.4534
     33 C           2.0835   -0.4266   19.7787 C.ar    1  UNL1        0.1453
     34 C           3.0786   -1.4540   20.2307 C.ar    1  UNL1        0.0377
     35 C           4.3789   -1.6112   19.4996 C.ar    1  UNL1        0.0105
     36 C           4.6840   -0.7410   18.3165 C.ar    1  UNL1        0.0815
     37 C           3.6889    0.2863   17.8645 C.ar    1  UNL1        0.0105
     38 C           2.3887    0.4436   18.5957 C.ar    1  UNL1        0.0377
     39 C           5.9843   -0.8982   17.5853 C.2     1  UNL1        0.3093
     40 N           6.6540   -2.2391   17.5259 N.2     1  UNL1       -0.0994
     41 N           6.6149    0.2855   16.9136 N.pl3   1  UNL1       -0.2466
     42 H           6.2401   -3.0160   17.9668 H       1  UNL1        0.3633
     43 H           6.1754    1.1656   16.9526 H       1  UNL1        0.2884
     44 H           7.4684    0.1823   16.4337 H       1  UNL1        0.2884
@<TRIPOS>BOND
     1    26    27    2
     2    27    28    1
     3    27    20    1
     4    20    21   ar
     5    21    22   ar
     6    22    23   ar
     7    23    19    1
     8    19     1    1
     9     1     2   ar
    10     2     3   ar
    11     3    32    1
    12    32    33    1
    13    33    34   ar
    14    34    35   ar
    15    35    36   ar
    16    36    39    1
    17    39    40    2
    18    39    41    1
    19    36    37   ar
    20    37    38   ar
    21     3     4   ar
    22     4     5   ar
    23     5     7    1
    24     7     8    2
    25     7     9    1
    26    10     9    1
    27    10    11    1
    28    11    12    1
    29    12    13    1
    30    13    14    1
    31    13    15    1
    32    15    16    1
    33     5     6   ar
    34    23    24   ar
    35    24    25   ar
    36    25    20   ar
    37     6     1   ar
    38    38    33   ar
    39    16    10    1
    40    26    29    1
    41    28    30    1
    42    28    31    1
    43    40    42    1
    44    41    43    1
    45    41    44    1
    46    14    17    1
    47    14    18    1
@<TRIPOS>MOLECULE
*****
 44 47 0 0 0
SMALL
GASTEIGER

@<TRIPOS>ATOM
      1 C          -0.3275    3.3630   24.3165 C.ar    1  UNL1        0.1486
      2 C           0.7839    2.3646   24.1818 C.ar    1  UNL1        0.0749
      3 C           1.0167    1.6737   22.8710 C.ar    1  UNL1        0.1486
      4 C           0.1380    1.9811   21.6947 C.ar    1  UNL1        0.0441
      5 C          -0.9733    2.9795   21.8294 C.ar    1  UNL1        0.0817
      6 C          -1.2061    3.6704   23.1403 C.ar    1  UNL1        0.0441
      7 C          -1.8519    3.2869   20.6532 C.2     1  UNL1        0.3413
      8 O          -1.4021    4.2763   19.6193 O.2     1  UNL1       -0.2449
      9 O          -3.1803    2.6050   20.5108 O.3     1  UNL1       -0.4492
     10 C          -4.4057    3.2139   21.1252 C.3     1  UNL1        0.1692
     11 C          -5.4162    3.9037   20.2573 C.3     1  UNL1        0.0450
     12 C          -6.6416    4.5127   20.8717 C.3     1  UNL1        0.0192
     13 C          -6.8565    4.4319   22.3541 C.3     1  UNL1        0.0510
     14 N          -8.0819    5.0409   22.9685 N.3     1  UNL1       -0.3222
     15 C          -5.8461    3.7422   23.2219 C.3     1  UNL1        0.0192
     16 C          -4.6207    3.1332   22.6075 C.3     1  UNL1        0.0450
     17 H          -8.6541    5.4642   22.2379 H       1  UNL1        0.1188
     18 H          -7.8054    5.7563   23.6410 H       1  UNL1        0.1188
     19 O          -0.5602    4.0539   25.6274 O.3     1  UNL1       -0.4534
     20 C          -4.6673    5.5638   26.6771 C.ar    1  UNL1        0.0815
     21 C          -4.3535    4.1016   26.7929 C.ar    1  UNL1        0.0105
     22 C          -2.9845    3.5983   26.4430 C.ar    1  UNL1        0.0377
     23 C          -1.9292    4.5572   25.9773 C.ar    1  UNL1        0.1453
     24 C          -2.2430    6.0194   25.8614 C.ar    1  UNL1        0.0377
     25 C          -3.6121    6.5227   26.2113 C.ar    1  UNL1        0.0105
     26 N          -7.1087    6.1139   25.9792 N.2     1  UNL1       -0.0994
     27 C          -6.0364    6.0671   27.0270 C.2     1  UNL1        0.3093
     28 N          -6.3331    6.5236   28.4246 N.pl3   1  UNL1       -0.2466
     29 H          -8.0072    6.4442   26.2088 H       1  UNL1        0.3633
     30 H          -7.2316    6.8540   28.6542 H       1  UNL1        0.2884
     31 H          -5.6293    6.4929   29.1123 H       1  UNL1        0.2884
     32 O           2.1281    0.6753   22.7363 O.3     1  UNL1       -0.4534
     33 C           2.7205    0.3899   21.3881 C.ar    1  UNL1        0.1453
     34 C           2.4622   -0.9277   20.7191 C.ar    1  UNL1        0.0377
     35 C           3.0546   -1.2132   19.3709 C.ar    1  UNL1        0.0105
     36 C           3.9053   -0.1811   18.6917 C.ar    1  UNL1        0.0815
     37 C           4.1635    1.1364   19.3607 C.ar    1  UNL1        0.0105
     38 C           3.5711    1.4218   20.7089 C.ar    1  UNL1        0.0377
     39 C           4.4977   -0.4666   17.3436 C.2     1  UNL1        0.3093
     40 N           3.7144   -1.2472   16.3302 N.2     1  UNL1       -0.0994
     41 N           5.8735    0.0287   17.0088 N.pl3   1  UNL1       -0.2466
     42 H           2.8114   -1.5722   16.5500 H       1  UNL1        0.3633
     43 H           6.3876    0.5411   17.6739 H       1  UNL1        0.2884
     44 H           6.2623   -0.1587   16.1239 H       1  UNL1        0.2884
@<TRIPOS>BOND
     1    26    27    2
     2    27    28    1
     3    27    20    1
     4    20    21   ar
     5    21    22   ar
     6    22    23   ar
     7    23    19    1
     8    19     1    1
     9     1     2   ar
    10     2     3   ar
    11     3    32    1
    12    32    33    1
    13    33    34   ar
    14    34    35   ar
    15    35    36   ar
    16    36    39    1
    17    39    40    2
    18    39    41    1
    19    36    37   ar
    20    37    38   ar
    21     3     4   ar
    22     4     5   ar
    23     5     7    1
    24     7     8    2
    25     7     9    1
    26    10     9    1
    27    10    11    1
    28    11    12    1
    29    12    13    1
    30    13    14    1
    31    13    15    1
    32    15    16    1
    33     5     6   ar
    34    23    24   ar
    35    24    25   ar
    36    25    20   ar
    37     6     1   ar
    38    38    33   ar
    39    16    10    1
    40    26    29    1
    41    28    30    1
    42    28    31    1
    43    40    42    1
    44    41    43    1
    45    41    44    1
    46    14    17    1
    47    14    18    1
@<TRIPOS>MOLECULE
*****
 44 47 0 0 0
SMALL
GASTEIGER

@<TRIPOS>ATOM
      1 C           6.4693   -3.4089   24.7044 C.ar    1  UNL1        0.1486
      2 C           5.7641   -2.2515   25.3472 C.ar    1  UNL1        0.0749
      3 C           4.6960   -1.5131   24.5962 C.ar    1  UNL1        0.1486
      4 C           4.3332   -1.9321   23.2024 C.ar    1  UNL1        0.0441
      5 C           5.0383   -3.0895   22.5596 C.ar    1  UNL1        0.0817
      6 C           6.1064   -3.8279   23.3106 C.ar    1  UNL1        0.0441
      7 C           4.6754   -3.5085   21.1657 C.2     1  UNL1        0.3413
      8 O           4.0622   -4.8558   20.9233 O.2     1  UNL1       -0.2449
      9 O           4.9256   -2.5802   20.0144 O.3     1  UNL1       -0.4492
     10 C           3.8595   -1.6179   19.5814 C.3     1  UNL1        0.1692
     11 C           4.1262   -0.6579   18.4601 C.3     1  UNL1        0.0450
     12 C           3.0601    0.3044   18.0271 C.3     1  UNL1        0.0192
     13 C           1.7273    0.3066   18.7154 C.3     1  UNL1        0.0510
     14 N           0.6612    1.2688   18.2823 N.3     1  UNL1       -0.3222
     15 C           1.4607   -0.6534   19.8366 C.3     1  UNL1        0.0192
     16 C           2.5268   -1.6157   20.2696 C.3     1  UNL1        0.0450
     17 H           1.0116    1.8414   17.5144 H       1  UNL1        0.1188
     18 H           0.4070    1.8699   19.0662 H       1  UNL1        0.1188
     19 O           7.5373   -4.1473   25.4555 O.3     1  UNL1       -0.4534
     20 C           7.2565   -4.5771   29.9261 C.ar    1  UNL1        0.0815
     21 C           6.4822   -5.5012   29.0337 C.ar    1  UNL1        0.0105
     22 C           6.5758   -5.3579   27.5434 C.ar    1  UNL1        0.0377
     23 C           7.4437   -4.2906   26.9457 C.ar    1  UNL1        0.1453
     24 C           8.2180   -3.3665   27.8381 C.ar    1  UNL1        0.0377
     25 C           8.1244   -3.5098   29.3283 C.ar    1  UNL1        0.0105
     26 N           6.5979   -5.9742   32.0152 N.2     1  UNL1       -0.0994
     27 C           7.1629   -4.7204   31.4163 C.2     1  UNL1        0.3093
     28 N           7.6343   -3.6099   32.3076 N.pl3   1  UNL1       -0.2466
     29 H           6.5364   -6.0682   32.9932 H       1  UNL1        0.3633
     30 H           7.5729   -3.7039   33.2856 H       1  UNL1        0.2884
     31 H           8.0051   -2.7869   31.9145 H       1  UNL1        0.2884
     32 O           3.9909   -0.3557   25.2390 O.3     1  UNL1       -0.4534
     33 C           2.9373    0.3957   24.4804 C.ar    1  UNL1        0.1453
     34 C           3.2676    1.0199   23.1570 C.ar    1  UNL1        0.0377
     35 C           2.2140    1.7713   22.3984 C.ar    1  UNL1        0.0105
     36 C           0.8302    1.8984   22.9632 C.ar    1  UNL1        0.0815
     37 C           0.5000    1.2742   24.2865 C.ar    1  UNL1        0.0105
     38 C           1.5535    0.5229   25.0451 C.ar    1  UNL1        0.0377
     39 C          -0.2234    2.6498   22.2046 C.2     1  UNL1        0.3093
     40 N          -0.7700    2.0890   20.9253 N.2     1  UNL1       -0.0994
     41 N          -0.7303    3.9620   22.7254 N.pl3   1  UNL1       -0.2466
     42 H          -0.4373    1.2278   20.5835 H       1  UNL1        0.3633
     43 H          -0.3716    4.3301   23.5651 H       1  UNL1        0.2884
     44 H          -1.4218    4.4552   22.2275 H       1  UNL1        0.2884
@<TRIPOS>BOND
     1    26    27    2
     2    27    28    1
     3    27    20    1
     4    20    21   ar
     5    21    22   ar
     6    22    23   ar
     7    23    19    1
     8    19     1    1
     9     1     2   ar
    10     2     3   ar
    11     3    32    1
    12    32    33    1
    13    33    34   ar
    14    34    35   ar
    15    35    36   ar
    16    36    39    1
    17    39    40    2
    18    39    41    1
    19    36    37   ar
    20    37    38   ar
    21     3     4   ar
    22     4     5   ar
    23     5     7    1
    24     7     8    2
    25     7     9    1
    26    10     9    1
    27    10    11    1
    28    11    12    1
    29    12    13    1
    30    13    14    1
    31    13    15    1
    32    15    16    1
    33     5     6   ar
    34    23    24   ar
    35    24    25   ar
    36    25    20   ar
    37     6     1   ar
    38    38    33   ar
    39    16    10    1
    40    26    29    1
    41    28    30    1
    42    28    31    1
    43    40    42    1
    44    41    43    1
    45    41    44    1
    46    14    17    1
    47    14    18    1
@<TRIPOS>MOLECULE
*****
 44 47 0 0 0
SMALL
GASTEIGER

@<TRIPOS>ATOM
      1 C           0.4311    0.9491   20.9458 C.ar    1  UNL1        0.1486
      2 C           1.0044    1.4169   22.2506 C.ar    1  UNL1        0.0749
      3 C           0.5851    2.7383   22.8234 C.ar    1  UNL1        0.1486
      4 C          -0.4076    3.5919   22.0914 C.ar    1  UNL1        0.0441
      5 C          -0.9809    3.1242   20.7866 C.ar    1  UNL1        0.0817
      6 C          -0.5616    1.8028   20.2138 C.ar    1  UNL1        0.0441
      7 C          -1.9736    3.9779   20.0546 C.2     1  UNL1        0.3413
      8 O          -1.6216    5.3885   19.6855 O.2     1  UNL1       -0.2449
      9 O          -3.3183    3.4209   19.6918 O.3     1  UNL1       -0.4492
     10 C          -4.5063    3.7011   20.5636 C.3     1  UNL1        0.1692
     11 C          -4.5229    3.2224   21.9852 C.3     1  UNL1        0.0450
     12 C          -5.7109    3.5026   22.8570 C.3     1  UNL1        0.0192
     13 C          -6.8822    4.2615   22.3074 C.3     1  UNL1        0.0510
     14 N          -8.0702    4.5417   23.1793 N.3     1  UNL1       -0.3222
     15 C          -6.8656    4.7402   20.8859 C.3     1  UNL1        0.0192
     16 C          -5.6776    4.4600   20.0141 C.3     1  UNL1        0.0450
     17 H          -7.9121    4.1471   24.1065 H       1  UNL1        0.1188
     18 H          -8.9018    4.1187   22.7671 H       1  UNL1        0.1188
     19 O           0.8504   -0.3723   20.3731 O.3     1  UNL1       -0.4534
     20 C           4.8023   -0.7543   18.2550 C.ar    1  UNL1        0.0815
     21 C           4.3535   -1.8255   19.2042 C.ar    1  UNL1        0.0105
     22 C           3.0362   -1.6982   19.9102 C.ar    1  UNL1        0.0377
     23 C           2.1677   -0.4996   19.6671 C.ar    1  UNL1        0.1453
     24 C           2.6165    0.5716   18.7178 C.ar    1  UNL1        0.0377
     25 C           3.9338    0.4442   18.0118 C.ar    1  UNL1        0.0105
     26 N           6.8324   -2.2012   17.5234 N.2     1  UNL1       -0.0994
     27 C           6.1196   -0.8816   17.5490 C.2     1  UNL1        0.3093
     28 N           6.7242    0.3106   16.8686 N.pl3   1  UNL1       -0.2466
     29 H           7.6970   -2.2848   17.0600 H       1  UNL1        0.3633
     30 H           7.5888    0.2270   16.4052 H       1  UNL1        0.2884
     31 H           6.2564    1.1767   16.8853 H       1  UNL1        0.2884
     32 O           1.1585    3.2060   24.1282 O.3     1  UNL1       -0.4534
     33 C           1.0163    2.3577   25.3570 C.ar    1  UNL1        0.1453
     34 C           2.2344    1.9482   26.1308 C.ar    1  UNL1        0.0377
     35 C           2.0922    1.0998   27.3597 C.ar    1  UNL1        0.0105
     36 C           0.7319    0.6609   27.8147 C.ar    1  UNL1        0.0815
     37 C          -0.4861    1.0703   27.0409 C.ar    1  UNL1        0.0105
     38 C          -0.3439    1.9187   25.8121 C.ar    1  UNL1        0.0377
     39 C           0.5897   -0.1875   29.0435 C.2     1  UNL1        0.3093
     40 N          -0.7719   -0.6099   29.5098 N.2     1  UNL1       -0.0994
     41 N           1.8092   -0.6135   29.8061 N.pl3   1  UNL1       -0.2466
     42 H          -1.5723   -0.3304   29.0093 H       1  UNL1        0.3633
     43 H           2.7029   -0.3362   29.5000 H       1  UNL1        0.2884
     44 H           1.7159   -1.1703   30.6126 H       1  UNL1        0.2884
@<TRIPOS>BOND
     1    26    27    2
     2    27    28    1
     3    27    20    1
     4    20    21   ar
     5    21    22   ar
     6    22    23   ar
     7    23    19    1
     8    19     1    1
     9     1     2   ar
    10     2     3   ar
    11     3    32    1
    12    32    33    1
    13    33    34   ar
    14    34    35   ar
    15    35    36   ar
    16    36    39    1
    17    39    40    2
    18    39    41    1
    19    36    37   ar
    20    37    38   ar
    21     3     4   ar
    22     4     5   ar
    23     5     7    1
    24     7     8    2
    25     7     9    1
    26    10     9    1
    27    10    11    1
    28    11    12    1
    29    12    13    1
    30    13    14    1
    31    13    15    1
    32    15    16    1
    33     5     6   ar
    34    23    24   ar
    35    24    25   ar
    36    25    20   ar
    37     6     1   ar
    38    38    33   ar
    39    16    10    1
    40    26    29    1
    41    28    30    1
    42    28    31    1
    43    40    42    1
    44    41    43    1
    45    41    44    1
    46    14    17    1
    47    14    18    1
@<TRIPOS>MOLECULE
*****
 44 47 0 0 0
SMALL
GASTEIGER

@<TRIPOS>ATOM
      1 C           5.7093   -1.4425   24.4651 C.ar    1  UNL1        0.1486
      2 C           6.5687   -2.4274   25.2010 C.ar    1  UNL1        0.0749
      3 C           6.8756   -3.7609   24.5866 C.ar    1  UNL1        0.1486
      4 C           6.3231   -4.1096   23.2363 C.ar    1  UNL1        0.0441
      5 C           5.4637   -3.1248   22.5005 C.ar    1  UNL1        0.0817
      6 C           5.1568   -1.7912   23.1148 C.ar    1  UNL1        0.0441
      7 C           4.9112   -3.4735   21.1502 C.2     1  UNL1        0.3413
      8 O           4.1602   -4.7574   20.9559 O.2     1  UNL1       -0.2449
      9 O           5.1097   -2.5384   19.9943 O.3     1  UNL1       -0.4492
     10 C           4.0011   -1.6194   19.5741 C.3     1  UNL1        0.1692
     11 C           2.7469   -1.5339   20.3926 C.3     1  UNL1        0.0450
     12 C           1.6383   -0.6150   19.9724 C.3     1  UNL1        0.0192
     13 C           1.7839    0.2184   18.7336 C.3     1  UNL1        0.0510
     14 N           0.6753    1.1373   18.3134 N.3     1  UNL1       -0.3222
     15 C           3.0380    0.1328   17.9152 C.3     1  UNL1        0.0192
     16 C           4.1466   -0.7861   18.3355 C.3     1  UNL1        0.0450
     17 H          -0.0941    1.0687   18.9796 H       1  UNL1        0.1188
     18 H           0.3462    0.8709   17.3854 H       1  UNL1        0.1188
     19 O           5.4024   -0.1090   25.0795 O.3     1  UNL1       -0.4534
     20 C           1.7478    0.3936   27.6565 C.ar    1  UNL1        0.0815
     21 C           2.8332   -0.5549   28.0712 C.ar    1  UNL1        0.0105
     22 C           4.0514   -0.7225   27.2121 C.ar    1  UNL1        0.0377
     23 C           4.1842    0.0586   25.9385 C.ar    1  UNL1        0.1453
     24 C           3.0988    1.0071   25.5238 C.ar    1  UNL1        0.0377
     25 C           1.8806    1.1747   26.3828 C.ar    1  UNL1        0.0105
     26 N           0.1709   -0.4917   29.5219 N.2     1  UNL1       -0.0994
     27 C           0.5296    0.5612   28.5155 C.2     1  UNL1        0.3093
     28 N          -0.3300    1.7816   28.3682 N.pl3   1  UNL1       -0.2466
     29 H          -0.6286   -0.3817   30.0857 H       1  UNL1        0.3633
     30 H          -1.1295    1.8915   28.9320 H       1  UNL1        0.2884
     31 H          -0.0946    2.4726   27.7077 H       1  UNL1        0.2884
     32 O           7.7350   -4.7459   25.3225 O.3     1  UNL1       -0.4534
     33 C           7.6901   -4.8080   26.8205 C.ar    1  UNL1        0.1453
     34 C           8.8602   -4.3269   27.6265 C.ar    1  UNL1        0.0377
     35 C           8.8154   -4.3890   29.1245 C.ar    1  UNL1        0.0105
     36 C           7.6004   -4.9322   29.8166 C.ar    1  UNL1        0.0815
     37 C           6.4304   -5.4132   29.0106 C.ar    1  UNL1        0.0105
     38 C           6.4752   -5.3511   27.5126 C.ar    1  UNL1        0.0377
     39 C           7.5556   -4.9943   31.3146 C.2     1  UNL1        0.3093
     40 N           6.7028   -6.0221   31.9975 N.2     1  UNL1       -0.0994
     41 N           8.3636   -4.0285   32.1298 N.pl3   1  UNL1       -0.2466
     42 H           6.1725   -6.6559   31.4624 H       1  UNL1        0.3633
     43 H           8.9233   -3.3539   31.6817 H       1  UNL1        0.2884
     44 H           8.3342   -4.0693   33.1131 H       1  UNL1        0.2884
@<TRIPOS>BOND
     1    26    27    2
     2    27    28    1
     3    27    20    1
     4    20    21   ar
     5    21    22   ar
     6    22    23   ar
     7    23    19    1
     8    19     1    1
     9     1     2   ar
    10     2     3   ar
    11     3    32    1
    12    32    33    1
    13    33    34   ar
    14    34    35   ar
    15    35    36   ar
    16    36    39    1
    17    39    40    2
    18    39    41    1
    19    36    37   ar
    20    37    38   ar
    21     3     4   ar
    22     4     5   ar
    23     5     7    1
    24     7     8    2
    25     7     9    1
    26    10     9    1
    27    10    11    1
    28    11    12    1
    29    12    13    1
    30    13    14    1
    31    13    15    1
    32    15    16    1
    33     5     6   ar
    34    23    24   ar
    35    24    25   ar
    36    25    20   ar
    37     6     1   ar
    38    38    33   ar
    39    16    10    1
    40    26    29    1
    41    28    30    1
    42    28    31    1
    43    40    42    1
    44    41    43    1
    45    41    44    1
    46    14    17    1
    47    14    18    1
@<TRIPOS>MOLECULE
*****
 44 47 0 0 0
SMALL
GASTEIGER

@<TRIPOS>ATOM
      1 C           2.6463    0.8261   24.2031 C.ar    1  UNL1        0.1486
      2 C           1.6249    1.1621   25.2491 C.ar    1  UNL1        0.0749
      3 C           0.3030    1.7455   24.8465 C.ar    1  UNL1        0.1486
      4 C           0.0023    1.9930   23.3980 C.ar    1  UNL1        0.0441
      5 C           1.0236    1.6571   22.3520 C.ar    1  UNL1        0.0817
      6 C           2.3456    1.0736   22.7545 C.ar    1  UNL1        0.0441
      7 C           0.7229    1.9046   20.9034 C.2     1  UNL1        0.3413
      8 O           0.6860    3.3077   20.3741 O.2     1  UNL1       -0.2449
      9 O           0.4592    0.7490   19.9841 O.3     1  UNL1       -0.4492
     10 C           1.6061   -0.0141   19.3906 C.3     1  UNL1        0.1692
     11 C           2.1454   -1.2245   20.0936 C.3     1  UNL1        0.0450
     12 C           3.2923   -1.9877   19.5000 C.3     1  UNL1        0.0192
     13 C           3.8998   -1.5404   18.2035 C.3     1  UNL1        0.0510
     14 N           5.0467   -2.3036   17.6100 N.3     1  UNL1       -0.3222
     15 C           3.3605   -0.3301   17.5006 C.3     1  UNL1        0.0192
     16 C           2.2136    0.4331   18.0941 C.3     1  UNL1        0.0450
     17 H           5.2814   -3.0901   18.2155 H       1  UNL1        0.1188
     18 H           5.8556   -1.6884   17.5228 H       1  UNL1        0.1188
     19 O           3.9682    0.2427   24.6056 O.3     1  UNL1       -0.4534
     20 C           5.9237   -2.8877   22.0314 C.ar    1  UNL1        0.0815
     21 C           4.8558   -3.2804   23.0088 C.ar    1  UNL1        0.0105
     22 C           4.2039   -2.2369   23.8669 C.ar    1  UNL1        0.0377
     23 C           4.6200   -0.8008   23.7476 C.ar    1  UNL1        0.1453
     24 C           5.6879   -0.4081   22.7701 C.ar    1  UNL1        0.0377
     25 C           6.3397   -1.4515   21.9121 C.ar    1  UNL1        0.0105
     26 N           7.7235   -4.7336   21.7101 N.2     1  UNL1       -0.0994
     27 C           6.5755   -3.9311   21.1733 C.2     1  UNL1        0.3093
     28 N           6.0793   -4.1721   19.7784 N.pl3   1  UNL1       -0.2466
     29 H           8.1513   -5.4184   21.1468 H       1  UNL1        0.3633
     30 H           6.5072   -4.8570   19.2152 H       1  UNL1        0.2884
     31 H           5.3259   -3.6455   19.4261 H       1  UNL1        0.2884
     32 O          -0.7183    2.0815   25.8925 O.3     1  UNL1       -0.4534
     33 C          -0.3227    2.1303   27.3386 C.ar    1  UNL1        0.1453
     34 C           0.2905    3.3759   27.9068 C.ar    1  UNL1        0.0377
     35 C           0.6860    3.4247   29.3529 C.ar    1  UNL1        0.0105
     36 C           0.4684    2.2280   30.2308 C.ar    1  UNL1        0.0815
     37 C          -0.1447    0.9825   29.6626 C.ar    1  UNL1        0.0105
     38 C          -0.5403    0.9337   28.2165 C.ar    1  UNL1        0.0377
     39 C           0.8640    2.2768   31.6768 C.2     1  UNL1        0.3093
     40 N           1.7717    1.2249   32.2420 N.2     1  UNL1       -0.0994
     41 N           0.3519    3.3776   32.5577 N.pl3   1  UNL1       -0.2466
     42 H           2.1079    0.5024   31.6638 H       1  UNL1        0.3633
     43 H          -0.2439    4.0681   32.1868 H       1  UNL1        0.2884
     44 H           0.6115    3.4097   33.5069 H       1  UNL1        0.2884
@<TRIPOS>BOND
     1    26    27    2
     2    27    28    1
     3    27    20    1
     4    20    21   ar
     5    21    22   ar
     6    22    23   ar
     7    23    19    1
     8    19     1    1
     9     1     2   ar
    10     2     3   ar
    11     3    32    1
    12    32    33    1
    13    33    34   ar
    14    34    35   ar
    15    35    36   ar
    16    36    39    1
    17    39    40    2
    18    39    41    1
    19    36    37   ar
    20    37    38   ar
    21     3     4   ar
    22     4     5   ar
    23     5     7    1
    24     7     8    2
    25     7     9    1
    26    10     9    1
    27    10    11    1
    28    11    12    1
    29    12    13    1
    30    13    14    1
    31    13    15    1
    32    15    16    1
    33     5     6   ar
    34    23    24   ar
    35    24    25   ar
    36    25    20   ar
    37     6     1   ar
    38    38    33   ar
    39    16    10    1
    40    26    29    1
    41    28    30    1
    42    28    31    1
    43    40    42    1
    44    41    43    1
    45    41    44    1
    46    14    17    1
    47    14    18    1
