@<TRIPOS>MOLECULE
*****
 30 32 0 0 0
SMALL
GASTEIGER

@<TRIPOS>ATOM
      1 C         -12.3299   -5.8351   18.5035 C.ar    1  UNL1        0.1730
      2 C         -12.9610   -7.1797   18.7126 C.ar    1  UNL1        0.0401
      3 C         -14.1352   -7.5952   17.8767 C.ar    1  UNL1        0.0039
      4 C         -14.6783   -6.6662   16.8318 C.ar    1  UNL1        0.0034
      5 C         -14.0472   -5.3216   16.6227 C.ar    1  UNL1        0.0406
      6 C         -12.8730   -4.9061   17.4586 C.ar    1  UNL1        0.1789
      7 C         -14.7663   -8.9399   18.0858 C.2     1  UNL1        0.0113
      8 C         -16.0969   -9.0456   18.7702 C.2     1  UNL1        0.0873
      9 S         -16.9110   -7.9010   19.2967 S.3     1  UNL1       -0.0254
     10 C         -18.1643   -8.4625   19.9001 C.2     1  UNL1        0.2832
     11 O         -19.2639   -7.6712   20.5441 O.2     1  UNL1       -0.2622
     12 N         -18.1248   -9.9541   19.7465 N.am    1  UNL1       -0.2425
     13 C         -16.8471  -10.3144   19.0481 C.2     1  UNL1        0.2583
     14 O         -16.3985  -11.7004   18.6905 O.2     1  UNL1       -0.2692
     15 H         -18.8161  -10.5856   20.0506 H       1  UNL1        0.1587
     16 C          -9.7678   -5.8183   18.9338 C.3     1  UNL1        0.2526
     17 O         -11.1557   -5.4196   19.3394 O.3     1  UNL1       -0.4684
     18 O         -12.2419   -3.5614   17.2495 O.3     1  UNL1       -0.4505
     19 C         -13.0916   -2.3254   17.2533 C.ar    1  UNL1        0.1493
     20 C         -13.2912   -1.5486   15.9857 C.ar    1  UNL1        0.0381
     21 C         -14.1410   -0.3125   15.9895 C.ar    1  UNL1        0.0134
     22 C         -14.7911    0.1468   17.2608 C.ar    1  UNL1        0.0686
     23 C         -14.5914   -0.6299   18.5284 C.ar    1  UNL1        0.0172
     24 C         -13.7417   -1.8660   18.5247 C.ar    1  UNL1        0.1065
     25 C         -13.5420   -2.6427   19.7923 C.3     1  UNL1        0.4214
     26 F         -13.3424   -3.4195   21.0599 F       1  UNL1       -0.1657
     27 F         -14.9193   -3.2209   19.6549 F       1  UNL1       -0.1657
     28 F         -12.1648   -2.0646   19.9296 F       1  UNL1       -0.1657
     29 C         -15.6408    1.3829   17.2646 C.1     1  UNL1        0.1004
     30 N         -16.4905    2.6191   17.2684 N.1     1  UNL1       -0.1908
@<TRIPOS>BOND
     1    16    17    1
     2    17     1    1
     3     1     2   ar
     4     2     3   ar
     5     3     7    1
     6     7     8    2
     7     8     9    1
     8     9    10    1
     9    10    11    2
    10    10    12   am
    11    12    13   am
    12    13    14    2
    13     3     4   ar
    14     4     5   ar
    15     5     6   ar
    16     6    18    1
    17    18    19    1
    18    19    20   ar
    19    20    21   ar
    20    21    22   ar
    21    22    29    1
    22    29    30    3
    23    22    23   ar
    24    23    24   ar
    25    24    25    1
    26    25    26    1
    27    25    27    1
    28    25    28    1
    29     6     1   ar
    30    24    19   ar
    31    13     8    1
    32    12    15    1
@<TRIPOS>MOLECULE
*****
 30 32 0 0 0
SMALL
GASTEIGER

@<TRIPOS>ATOM
      1 C         -12.8269   -5.4335   18.4715 C.ar    1  UNL1        0.1730
      2 C         -13.3600   -6.8167   18.7007 C.ar    1  UNL1        0.0401
      3 C         -14.3713   -7.3967   17.7568 C.ar    1  UNL1        0.0039
      4 C         -14.8494   -6.5936   16.5837 C.ar    1  UNL1        0.0034
      5 C         -14.3163   -5.2105   16.3544 C.ar    1  UNL1        0.0406
      6 C         -13.3050   -4.6304   17.2983 C.ar    1  UNL1        0.1789
      7 C         -14.9044   -8.7800   17.9862 C.2     1  UNL1        0.0113
      8 C         -16.2002   -8.9727   18.7166 C.2     1  UNL1        0.0873
      9 S         -17.0692   -7.8840   19.2729 S.3     1  UNL1       -0.0254
     10 C         -18.2607   -8.5264   19.9191 C.2     1  UNL1        0.2832
     11 O         -19.3870   -7.8090   20.6023 O.2     1  UNL1       -0.2622
     12 N         -18.1281  -10.0123   19.7622 N.am    1  UNL1       -0.2425
     13 C         -16.8547  -10.2881   19.0190 C.2     1  UNL1        0.2583
     14 O         -16.3282  -11.6417   18.6441 O.2     1  UNL1       -0.2692
     15 H         -18.7651  -10.6879   20.0895 H       1  UNL1        0.1587
     16 C         -10.3545   -4.9212   19.0834 C.3     1  UNL1        0.2526
     17 O         -11.8157   -4.8534   19.4154 O.3     1  UNL1       -0.4684
     18 O         -12.7719   -3.2472   17.0690 O.3     1  UNL1       -0.4505
     19 C         -13.4826   -2.0629   17.6541 C.ar    1  UNL1        0.1493
     20 C         -14.9156   -2.1837   18.0807 C.ar    1  UNL1        0.0381
     21 C         -15.6263   -0.9994   18.6658 C.ar    1  UNL1        0.0134
     22 C         -14.9040    0.3057   18.8243 C.ar    1  UNL1        0.0686
     23 C         -13.4711    0.4264   18.3977 C.ar    1  UNL1        0.0172
     24 C         -12.7604   -0.7578   17.8126 C.ar    1  UNL1        0.1065
     25 C         -11.3274   -0.6370   17.3860 C.3     1  UNL1        0.4214
     26 F          -9.8944   -0.5162   16.9594 F       1  UNL1       -0.1657
     27 F         -11.7647   -0.0149   16.0931 F       1  UNL1       -0.1657
     28 F         -10.8900   -1.2591   18.6789 F       1  UNL1       -0.1657
     29 C         -15.6147    1.4899   19.4094 C.1     1  UNL1        0.1004
     30 N         -16.3255    2.6742   19.9946 N.1     1  UNL1       -0.1908
@<TRIPOS>BOND
     1    16    17    1
     2    17     1    1
     3     1     2   ar
     4     2     3   ar
     5     3     7    1
     6     7     8    2
     7     8     9    1
     8     9    10    1
     9    10    11    2
    10    10    12   am
    11    12    13   am
    12    13    14    2
    13     3     4   ar
    14     4     5   ar
    15     5     6   ar
    16     6    18    1
    17    18    19    1
    18    19    20   ar
    19    20    21   ar
    20    21    22   ar
    21    22    29    1
    22    29    30    3
    23    22    23   ar
    24    23    24   ar
    25    24    25    1
    26    25    26    1
    27    25    27    1
    28    25    28    1
    29     6     1   ar
    30    24    19   ar
    31    13     8    1
    32    12    15    1
@<TRIPOS>MOLECULE
*****
 30 32 0 0 0
SMALL
GASTEIGER

@<TRIPOS>ATOM
      1 C         -12.3897   -3.2110   18.3023 C.ar    1  UNL1        0.1730
      2 C         -12.6918   -1.8090   18.7414 C.ar    1  UNL1        0.0401
      3 C         -13.4983   -0.9038   17.8581 C.ar    1  UNL1        0.0039
      4 C         -14.0028   -1.4006   16.5358 C.ar    1  UNL1        0.0034
      5 C         -13.7007   -2.8027   16.0967 C.ar    1  UNL1        0.0406
      6 C         -12.8941   -3.7079   16.9799 C.ar    1  UNL1        0.1789
      7 C         -13.8004    0.4984   18.2973 C.2     1  UNL1        0.0113
      8 C         -15.0425    0.7855   19.0879 C.2     1  UNL1        0.0873
      9 S         -16.0704   -0.2213   19.5115 S.3     1  UNL1       -0.0254
     10 C         -17.1379    0.5008   20.2790 C.2     1  UNL1        0.2832
     11 O         -18.3591   -0.1211   20.8888 O.2     1  UNL1       -0.2622
     12 N         -16.7696    1.9540   20.3297 N.am    1  UNL1       -0.2425
     13 C         -15.4746    2.1300   19.5935 C.2     1  UNL1        0.2583
     14 O         -14.7406    3.4233   19.3975 O.2     1  UNL1       -0.2692
     15 H         -17.2871    2.6671   20.7690 H       1  UNL1        0.1587
     16 C         -10.1215   -4.3193   18.9164 C.3     1  UNL1        0.2526
     17 O         -11.5831   -4.1162   19.1855 O.3     1  UNL1       -0.4684
     18 O         -12.5920   -5.1101   16.5407 O.3     1  UNL1       -0.4505
     19 C         -13.5150   -6.2300   16.9199 C.ar    1  UNL1        0.1493
     20 C         -14.9966   -6.0719   16.7474 C.ar    1  UNL1        0.0381
     21 C         -15.9196   -7.1920   17.1267 C.ar    1  UNL1        0.0134
     22 C         -15.3608   -8.4701   17.6783 C.ar    1  UNL1        0.0686
     23 C         -13.8792   -8.6281   17.8508 C.ar    1  UNL1        0.0172
     24 C         -12.9563   -7.5082   17.4716 C.ar    1  UNL1        0.1065
     25 C         -11.4746   -7.6663   17.6441 C.3     1  UNL1        0.4214
     26 F          -9.9930   -7.8243   17.8166 F       1  UNL1       -0.1657
     27 F         -11.3481   -8.0552   16.2009 F       1  UNL1       -0.1657
     28 F         -11.6011   -7.2773   19.0873 F       1  UNL1       -0.1657
     29 C         -16.2838   -9.5900   18.0575 C.1     1  UNL1        0.1004
     30 N         -17.2068  -10.7101   18.4366 N.1     1  UNL1       -0.1908
@<TRIPOS>BOND
     1    16    17    1
     2    17     1    1
     3     1     2   ar
     4     2     3   ar
     5     3     7    1
     6     7     8    2
     7     8     9    1
     8     9    10    1
     9    10    11    2
    10    10    12   am
    11    12    13   am
    12    13    14    2
    13     3     4   ar
    14     4     5   ar
    15     5     6   ar
    16     6    18    1
    17    18    19    1
    18    19    20   ar
    19    20    21   ar
    20    21    22   ar
    21    22    29    1
    22    29    30    3
    23    22    23   ar
    24    23    24   ar
    25    24    25    1
    26    25    26    1
    27    25    27    1
    28    25    28    1
    29     6     1   ar
    30    24    19   ar
    31    13     8    1
    32    12    15    1
@<TRIPOS>MOLECULE
*****
 30 32 0 0 0
SMALL
GASTEIGER

@<TRIPOS>ATOM
      1 C           8.3466   -3.7627   22.8512 C.ar    1  UNL1        0.1730
      2 C           8.8753   -4.0019   24.2344 C.ar    1  UNL1        0.0401
      3 C           7.9276   -4.1009   25.3929 C.ar    1  UNL1        0.0039
      4 C           6.4512   -3.9607   25.1682 C.ar    1  UNL1        0.0034
      5 C           5.9225   -3.7216   23.7850 C.ar    1  UNL1        0.0406
      6 C           6.8702   -3.6225   22.6265 C.ar    1  UNL1        0.1789
      7 C           8.4564   -4.3401   26.7761 C.2     1  UNL1        0.0113
      8 C           8.4654   -5.7275   27.3461 C.2     1  UNL1        0.0873
      9 S           7.9809   -6.9677   26.6552 S.3     1  UNL1       -0.0254
     10 C           8.1765   -8.1251   27.5891 C.2     1  UNL1        0.2832
     11 O           7.8279   -9.5560   27.3049 O.2     1  UNL1       -0.2622
     12 N           8.7818   -7.6002   28.8572 N.am    1  UNL1       -0.2425
     13 C           8.9604   -6.1185   28.7070 C.2     1  UNL1        0.2583
     14 O           9.5334   -5.1906   29.7369 O.2     1  UNL1       -0.2692
     15 H           9.0201   -8.1345   29.6491 H       1  UNL1        0.1587
     16 C           9.5357   -4.8573   20.8170 C.3     1  UNL1        0.2526
     17 O           9.2943   -3.6637   21.6927 O.3     1  UNL1       -0.4684
     18 O           6.3415   -3.3834   21.2433 O.3     1  UNL1       -0.4505
     19 C           5.0682   -2.6145   21.0496 C.ar    1  UNL1        0.1493
     20 C           4.7731   -1.4229   21.9116 C.ar    1  UNL1        0.0381
     21 C           3.4997   -0.6540   21.7180 C.ar    1  UNL1        0.0134
     22 C           2.5216   -1.0767   20.6623 C.ar    1  UNL1        0.0686
     23 C           2.8167   -2.2683   19.8003 C.ar    1  UNL1        0.0172
     24 C           4.0899   -3.0372   19.9939 C.ar    1  UNL1        0.1065
     25 C           4.3850   -4.2287   19.1319 C.3     1  UNL1        0.4214
     26 F           4.6801   -5.4203   18.2699 F       1  UNL1       -0.1657
     27 F           3.5447   -5.0869   20.0305 F       1  UNL1       -0.1657
     28 F           5.2253   -3.3706   18.2333 F       1  UNL1       -0.1657
     29 C           1.2483   -0.3078   20.4687 C.1     1  UNL1        0.1004
     30 N          -0.0250    0.4611   20.2750 N.1     1  UNL1       -0.1908
@<TRIPOS>BOND
     1    16    17    1
     2    17     1    1
     3     1     2   ar
     4     2     3   ar
     5     3     7    1
     6     7     8    2
     7     8     9    1
     8     9    10    1
     9    10    11    2
    10    10    12   am
    11    12    13   am
    12    13    14    2
    13     3     4   ar
    14     4     5   ar
    15     5     6   ar
    16     6    18    1
    17    18    19    1
    18    19    20   ar
    19    20    21   ar
    20    21    22   ar
    21    22    29    1
    22    29    30    3
    23    22    23   ar
    24    23    24   ar
    25    24    25    1
    26    25    26    1
    27    25    27    1
    28    25    28    1
    29     6     1   ar
    30    24    19   ar
    31    13     8    1
    32    12    15    1
@<TRIPOS>MOLECULE
*****
 30 32 0 0 0
SMALL
GASTEIGER

@<TRIPOS>ATOM
      1 C          -0.1962    2.3432   20.7854 C.ar    1  UNL1        0.1730
      2 C           0.4558    1.6166   19.6466 C.ar    1  UNL1        0.0401
      3 C           1.9515    1.5777   19.5398 C.ar    1  UNL1        0.0039
      4 C           2.7952    2.2655   20.5718 C.ar    1  UNL1        0.0034
      5 C           2.1432    2.9921   21.7106 C.ar    1  UNL1        0.0406
      6 C           0.6475    3.0310   21.8174 C.ar    1  UNL1        0.1789
      7 C           2.6034    0.8510   18.4010 C.2     1  UNL1        0.0113
      8 C           3.1820   -0.5160   18.6166 C.2     1  UNL1        0.0873
      9 S           3.1832   -1.2793   19.9079 S.3     1  UNL1       -0.0254
     10 C           3.8628   -2.5948   19.6682 C.2     1  UNL1        0.2832
     11 O           4.0847   -3.6715   20.6888 O.2     1  UNL1       -0.2622
     12 N           4.2816   -2.6447   18.2287 N.am    1  UNL1       -0.2425
     13 C           3.8608   -1.3599   17.5788 C.2     1  UNL1        0.2583
     14 O           4.0804   -0.9849   16.1432 O.2     1  UNL1       -0.2692
     15 H           4.7504   -3.3898   17.7879 H       1  UNL1        0.1587
     16 C          -2.4645    3.4710   20.2087 C.3     1  UNL1        0.2526
     17 O          -1.6919    2.3821   20.8922 O.3     1  UNL1       -0.4684
     18 O          -0.0044    3.7577   22.9562 O.3     1  UNL1       -0.4505
     19 C          -0.2456    3.0508   24.2571 C.ar    1  UNL1        0.1493
     20 C           0.7160    2.0013   24.7299 C.ar    1  UNL1        0.0381
     21 C           0.4748    1.2944   26.0308 C.ar    1  UNL1        0.0134
     22 C          -0.7281    1.6371   26.8588 C.ar    1  UNL1        0.0686
     23 C          -1.6897    2.6867   26.3859 C.ar    1  UNL1        0.0172
     24 C          -1.4486    3.3936   25.0851 C.ar    1  UNL1        0.1065
     25 C          -2.4102    4.4432   24.6123 C.3     1  UNL1        0.4214
     26 F          -3.3719    5.4927   24.1395 F       1  UNL1       -0.1657
     27 F          -3.0889    3.4286   23.7405 F       1  UNL1       -0.1657
     28 F          -1.7315    5.4577   25.4841 F       1  UNL1       -0.1657
     29 C          -0.9693    0.9303   28.1596 C.1     1  UNL1        0.1004
     30 N          -1.2105    0.2235   29.4605 N.1     1  UNL1       -0.1908
@<TRIPOS>BOND
     1    16    17    1
     2    17     1    1
     3     1     2   ar
     4     2     3   ar
     5     3     7    1
     6     7     8    2
     7     8     9    1
     8     9    10    1
     9    10    11    2
    10    10    12   am
    11    12    13   am
    12    13    14    2
    13     3     4   ar
    14     4     5   ar
    15     5     6   ar
    16     6    18    1
    17    18    19    1
    18    19    20   ar
    19    20    21   ar
    20    21    22   ar
    21    22    29    1
    22    29    30    3
    23    22    23   ar
    24    23    24   ar
    25    24    25    1
    26    25    26    1
    27    25    27    1
    28    25    28    1
    29     6     1   ar
    30    24    19   ar
    31    13     8    1
    32    12    15    1
@<TRIPOS>MOLECULE
*****
 30 32 0 0 0
SMALL
GASTEIGER

@<TRIPOS>ATOM
      1 C           1.9985    2.1718   21.5089 C.ar    1  UNL1        0.1730
      2 C           2.7197    0.8614   21.6218 C.ar    1  UNL1        0.0401
      3 C           2.1860   -0.3514   20.9187 C.ar    1  UNL1        0.0039
      4 C           0.9312   -0.2538   20.1027 C.ar    1  UNL1        0.0034
      5 C           0.2101    1.0566   19.9898 C.ar    1  UNL1        0.0406
      6 C           0.7437    2.2694   20.6929 C.ar    1  UNL1        0.1789
      7 C           2.9072   -1.6618   21.0317 C.2     1  UNL1        0.0113
      8 C           4.0413   -1.9763   20.1017 C.2     1  UNL1        0.0873
      9 S           4.5639   -1.0840   19.0151 S.3     1  UNL1       -0.0254
     10 C           5.6975   -1.7946   18.3368 C.2     1  UNL1        0.2832
     11 O           6.5104   -1.2663   17.1922 O.2     1  UNL1       -0.2622
     12 N           5.8755   -3.1261   19.0042 N.am    1  UNL1       -0.2425
     13 C           4.8519   -3.2384   20.0949 C.2     1  UNL1        0.2583
     14 O           4.6708   -4.4076   21.0170 O.2     1  UNL1       -0.2692
     15 H           6.5463   -3.8068   18.7678 H       1  UNL1        0.1587
     16 C           3.7090    3.2600   23.1337 C.3     1  UNL1        0.2526
     17 O           2.5322    3.3846   22.2120 O.3     1  UNL1       -0.4684
     18 O           0.0225    3.5798   20.5799 O.3     1  UNL1       -0.4505
     19 C          -1.4188    3.6094   20.1656 C.ar    1  UNL1        0.1493
     20 C          -2.4894    3.2381   21.1484 C.ar    1  UNL1        0.0381
     21 C          -3.9308    3.2677   20.7341 C.ar    1  UNL1        0.0134
     22 C          -4.3015    3.6686   19.3370 C.ar    1  UNL1        0.0686
     23 C          -3.2309    4.0399   18.3542 C.ar    1  UNL1        0.0172
     24 C          -1.7895    4.0103   18.7685 C.ar    1  UNL1        0.1065
     25 C          -0.7189    4.3816   17.7857 C.3     1  UNL1        0.4214
     26 F           0.3517    4.7529   16.8029 F       1  UNL1       -0.1657
     27 F          -0.9093    5.8301   18.1256 F       1  UNL1       -0.1657
     28 F          -0.5286    2.9331   17.4458 F       1  UNL1       -0.1657
     29 C          -5.7428    3.6981   18.9228 C.1     1  UNL1        0.1004
     30 N          -7.1842    3.7278   18.5085 N.1     1  UNL1       -0.1908
@<TRIPOS>BOND
     1    16    17    1
     2    17     1    1
     3     1     2   ar
     4     2     3   ar
     5     3     7    1
     6     7     8    2
     7     8     9    1
     8     9    10    1
     9    10    11    2
    10    10    12   am
    11    12    13   am
    12    13    14    2
    13     3     4   ar
    14     4     5   ar
    15     5     6   ar
    16     6    18    1
    17    18    19    1
    18    19    20   ar
    19    20    21   ar
    20    21    22   ar
    21    22    29    1
    22    29    30    3
    23    22    23   ar
    24    23    24   ar
    25    24    25    1
    26    25    26    1
    27    25    27    1
    28    25    28    1
    29     6     1   ar
    30    24    19   ar
    31    13     8    1
    32    12    15    1
@<TRIPOS>MOLECULE
*****
 30 32 0 0 0
SMALL
GASTEIGER

@<TRIPOS>ATOM
      1 C           5.9862   -2.6841   21.1374 C.ar    1  UNL1        0.1730
      2 C           6.8521   -2.6231   22.3607 C.ar    1  UNL1        0.0401
      3 C           6.2508   -2.2682   23.6883 C.ar    1  UNL1        0.0039
      4 C           4.7836   -1.9743   23.7926 C.ar    1  UNL1        0.0034
      5 C           3.9177   -2.0352   22.5693 C.ar    1  UNL1        0.0406
      6 C           4.5190   -2.3901   21.2417 C.ar    1  UNL1        0.1789
      7 C           7.1168   -2.2073   24.9116 C.2     1  UNL1        0.0113
      8 C           7.3920   -3.4543   25.6985 C.2     1  UNL1        0.0873
      9 S           6.8733   -4.8266   25.3859 S.3     1  UNL1       -0.0254
     10 C           7.3949   -5.7684   26.4304 C.2     1  UNL1        0.2832
     11 O           7.1232   -7.2418   26.5038 O.2     1  UNL1       -0.2622
     12 N           8.2360   -4.9781   27.3886 N.am    1  UNL1       -0.2425
     13 C           8.2341   -3.5480   26.9363 C.2     1  UNL1        0.2583
     14 O           8.9489   -2.4110   27.6044 O.2     1  UNL1       -0.2692
     15 H           8.7065   -5.3354   28.1761 H       1  UNL1        0.1587
     16 C           7.9092   -2.4565   19.4053 C.3     1  UNL1        0.2526
     17 O           6.5875   -3.0389   19.8098 O.3     1  UNL1       -0.4684
     18 O           3.6530   -2.4510   20.0184 O.3     1  UNL1       -0.4505
     19 C           2.8515   -1.2519   19.6064 C.ar    1  UNL1        0.1493
     20 C           1.5285   -0.9747   20.2564 C.ar    1  UNL1        0.0381
     21 C           0.7270    0.2244   19.8443 C.ar    1  UNL1        0.0134
     22 C           1.2486    1.1463   18.7823 C.ar    1  UNL1        0.0686
     23 C           2.5717    0.8691   18.1322 C.ar    1  UNL1        0.0172
     24 C           3.3732   -0.3300   18.5442 C.ar    1  UNL1        0.1065
     25 C           4.6962   -0.6072   17.8942 C.3     1  UNL1        0.4214
     26 F           6.0193   -0.8845   17.2441 F       1  UNL1       -0.1657
     27 F           3.9900   -1.1738   16.6983 F       1  UNL1       -0.1657
     28 F           5.4025   -0.0407   19.0901 F       1  UNL1       -0.1657
     29 C           0.4471    2.3454   18.3703 C.1     1  UNL1        0.1004
     30 N          -0.3544    3.5445   17.9582 N.1     1  UNL1       -0.1908
@<TRIPOS>BOND
     1    16    17    1
     2    17     1    1
     3     1     2   ar
     4     2     3   ar
     5     3     7    1
     6     7     8    2
     7     8     9    1
     8     9    10    1
     9    10    11    2
    10    10    12   am
    11    12    13   am
    12    13    14    2
    13     3     4   ar
    14     4     5   ar
    15     5     6   ar
    16     6    18    1
    17    18    19    1
    18    19    20   ar
    19    20    21   ar
    20    21    22   ar
    21    22    29    1
    22    29    30    3
    23    22    23   ar
    24    23    24   ar
    25    24    25    1
    26    25    26    1
    27    25    27    1
    28    25    28    1
    29     6     1   ar
    30    24    19   ar
    31    13     8    1
    32    12    15    1
@<TRIPOS>MOLECULE
*****
 30 32 0 0 0
SMALL
GASTEIGER

@<TRIPOS>ATOM
      1 C           2.1688    1.8352   21.5735 C.ar    1  UNL1        0.1730
      2 C           3.0262    0.6065   21.5017 C.ar    1  UNL1        0.0401
      3 C           2.4978   -0.6401   20.8563 C.ar    1  UNL1        0.0039
      4 C           1.1120   -0.6582   20.2827 C.ar    1  UNL1        0.0034
      5 C           0.2545    0.5705   20.3545 C.ar    1  UNL1        0.0406
      6 C           0.7829    1.8171   20.9999 C.ar    1  UNL1        0.1789
      7 C           3.3553   -1.8688   20.7845 C.2     1  UNL1        0.0113
      8 C           4.4683   -1.9491   19.7821 C.2     1  UNL1        0.0873
      9 S           4.8414   -0.8860   18.7918 S.3     1  UNL1       -0.0254
     10 C           6.0073   -1.3864   17.9916 C.2     1  UNL1        0.2832
     11 O           6.7034   -0.6446   16.8892 O.2     1  UNL1       -0.2622
     12 N           6.3549   -2.7587   18.4874 N.am    1  UNL1       -0.2425
     13 C           5.4037   -3.1065   19.5939 C.2     1  UNL1        0.2583
     14 O           5.3904   -4.3869   20.3752 O.2     1  UNL1       -0.2692
     15 H           7.0799   -3.3308   18.1464 H       1  UNL1        0.1587
     16 C           3.2191    3.0354   23.6244 C.3     1  UNL1        0.2526
     17 O           2.6972    3.0819   22.2189 O.3     1  UNL1       -0.4684
     18 O          -0.0746    3.0458   21.0717 O.3     1  UNL1       -0.4505
     19 C          -0.9899    3.2543   22.2416 C.ar    1  UNL1        0.1493
     20 C          -0.5181    2.9351   23.6293 C.ar    1  UNL1        0.0381
     21 C          -1.4335    3.1436   24.7992 C.ar    1  UNL1        0.0134
     22 C          -2.8207    3.6712   24.5814 C.ar    1  UNL1        0.0686
     23 C          -3.2925    3.9903   23.1937 C.ar    1  UNL1        0.0172
     24 C          -2.3772    3.7818   22.0239 C.ar    1  UNL1        0.1065
     25 C          -2.8490    4.1009   20.6362 C.3     1  UNL1        0.4214
     26 F          -3.3208    4.4200   19.2486 F       1  UNL1       -0.1657
     27 F          -3.3184    2.6859   20.4704 F       1  UNL1       -0.1657
     28 F          -2.3796    5.5159   20.8020 F       1  UNL1       -0.1657
     29 C          -3.7360    3.8796   25.7513 C.1     1  UNL1        0.1004
     30 N          -4.6515    4.0880   26.9212 N.1     1  UNL1       -0.1908
@<TRIPOS>BOND
     1    16    17    1
     2    17     1    1
     3     1     2   ar
     4     2     3   ar
     5     3     7    1
     6     7     8    2
     7     8     9    1
     8     9    10    1
     9    10    11    2
    10    10    12   am
    11    12    13   am
    12    13    14    2
    13     3     4   ar
    14     4     5   ar
    15     5     6   ar
    16     6    18    1
    17    18    19    1
    18    19    20   ar
    19    20    21   ar
    20    21    22   ar
    21    22    29    1
    22    29    30    3
    23    22    23   ar
    24    23    24   ar
    25    24    25    1
    26    25    26    1
    27    25    27    1
    28    25    28    1
    29     6     1   ar
    30    24    19   ar
    31    13     8    1
    32    12    15    1
@<TRIPOS>MOLECULE
*****
 30 32 0 0 0
SMALL
GASTEIGER

@<TRIPOS>ATOM
      1 C           2.3944    2.1016   19.7642 C.ar    1  UNL1        0.1730
      2 C           3.1069    0.7839   19.6881 C.ar    1  UNL1        0.0401
      3 C           2.3569   -0.4901   19.9422 C.ar    1  UNL1        0.0039
      4 C           0.8944   -0.4463   20.2723 C.ar    1  UNL1        0.0034
      5 C           0.1819    0.8715   20.3484 C.ar    1  UNL1        0.0406
      6 C           0.9319    2.1454   20.0944 C.ar    1  UNL1        0.1789
      7 C           3.0695   -1.8078   19.8660 C.2     1  UNL1        0.0113
      8 C           3.7891   -2.3419   21.0689 C.2     1  UNL1        0.0873
      9 S           3.8825   -1.6743   22.4089 S.3     1  UNL1       -0.0254
     10 C           4.6928   -2.5571   23.3112 C.2     1  UNL1        0.2832
     11 O           5.0355   -2.2760   24.7442 O.2     1  UNL1       -0.2622
     12 N           5.1002   -3.7704   22.5288 N.am    1  UNL1       -0.2425
     13 C           4.5416   -3.6374   21.1430 C.2     1  UNL1        0.2583
     14 O           4.7067   -4.6262   20.0273 O.2     1  UNL1       -0.2692
     15 H           5.6394   -4.5220   22.8657 H       1  UNL1        0.1587
     16 C           3.0686    4.0351   18.1652 C.3     1  UNL1        0.2526
     17 O           3.1444    3.3756   19.5102 O.3     1  UNL1       -0.4684
     18 O           0.2193    3.4632   20.1705 O.3     1  UNL1       -0.4505
     19 C          -1.2423    3.5455   19.8435 C.ar    1  UNL1        0.1493
     20 C          -2.2636    3.1523   20.8693 C.ar    1  UNL1        0.0381
     21 C          -3.7253    3.2346   20.5423 C.ar    1  UNL1        0.0134
     22 C          -4.1655    3.7100   19.1895 C.ar    1  UNL1        0.0686
     23 C          -3.1442    4.1032   18.1637 C.ar    1  UNL1        0.0172
     24 C          -1.6826    4.0209   18.4907 C.ar    1  UNL1        0.1065
     25 C          -0.6613    4.4141   17.4649 C.3     1  UNL1        0.4214
     26 F           0.3600    4.8073   16.4390 F       1  UNL1       -0.1657
     27 F          -0.3920    2.9666   17.1781 F       1  UNL1       -0.1657
     28 F          -0.9305    5.8616   17.7516 F       1  UNL1       -0.1657
     29 C          -5.6271    3.7923   18.8625 C.1     1  UNL1        0.1004
     30 N          -7.0888    3.8746   18.5356 N.1     1  UNL1       -0.1908
@<TRIPOS>BOND
     1    16    17    1
     2    17     1    1
     3     1     2   ar
     4     2     3   ar
     5     3     7    1
     6     7     8    2
     7     8     9    1
     8     9    10    1
     9    10    11    2
    10    10    12   am
    11    12    13   am
    12    13    14    2
    13     3     4   ar
    14     4     5   ar
    15     5     6   ar
    16     6    18    1
    17    18    19    1
    18    19    20   ar
    19    20    21   ar
    20    21    22   ar
    21    22    29    1
    22    29    30    3
    23    22    23   ar
    24    23    24   ar
    25    24    25    1
    26    25    26    1
    27    25    27    1
    28    25    28    1
    29     6     1   ar
    30    24    19   ar
    31    13     8    1
    32    12    15    1
