@<TRIPOS>MOLECULE
*****
 29 32 0 0 0
SMALL
GASTEIGER

@<TRIPOS>ATOM
      1 C          -5.7168  -19.8459   21.1657 C.3     1  UNL1        0.0071
      2 C          -6.5804  -20.2787   22.3133 C.3     1  UNL1        0.0177
      3 C          -8.0503  -19.9797   22.3003 C.3     1  UNL1        0.0721
      4 N          -8.6566  -19.2480   21.1397 N.3     1  UNL1       -0.2724
      5 C          -7.7930  -18.8152   19.9921 C.3     1  UNL1        0.0721
      6 C          -6.3232  -19.1141   20.0051 C.3     1  UNL1        0.0177
      7 C          -4.2470  -20.1448   21.1787 C.3     1  UNL1        0.0270
      8 C          -1.5261  -17.8929   19.3690 C.ar    1  UNL1        0.1385
      9 C          -1.2746  -16.8525   20.4199 C.ar    1  UNL1        0.0374
     10 C          -2.0139  -16.9097   21.7237 C.ar    1  UNL1        0.0095
     11 C          -3.0047  -18.0071   21.9767 C.ar    1  UNL1        0.0308
     12 BR         -3.7441  -18.0642   23.2806 Br      1  UNL1       -0.0493
     13 C          -3.2562  -19.0474   20.9257 C.ar    1  UNL1       -0.0130
     14 C          -2.5169  -18.9903   19.6219 C.ar    1  UNL1        0.0331
     15 C          -1.5464  -17.7275   16.7762 C.3     1  UNL1        0.2525
     16 O          -0.7867  -17.8358   18.0650 O.3     1  UNL1       -0.4714
     17 C         -10.1264  -18.9491   21.1267 C.3     1  UNL1        0.0768
     18 C         -10.6827  -17.8822   22.0224 C.3     1  UNL1        0.0446
     19 C          -9.9772  -17.5314   23.2988 C.ar    1  UNL1       -0.0070
     20 C          -8.8424  -16.5506   23.2834 C.ar    1  UNL1        0.0367
     21 C          -8.1369  -16.1998   24.5598 C.ar    1  UNL1        0.1721
     22 C          -8.5661  -16.8299   25.8516 C.ar    1  UNL1        0.1732
     23 C          -9.7009  -17.8108   25.8670 C.ar    1  UNL1        0.0511
     24 C         -10.4064  -18.1615   24.5906 C.ar    1  UNL1        0.0570
     25 CL        -11.5412  -19.1424   24.6060 Cl      1  UNL1       -0.0825
     26 O          -7.8606  -16.4791   27.1280 O.3     1  UNL1       -0.4683
     27 C          -6.7259  -15.4983   27.1126 C.3     1  UNL1        0.2526
     28 C          -6.2966  -14.8682   25.8208 C.3     1  UNL1        0.2526
     29 O          -7.0021  -15.2189   24.5444 O.3     1  UNL1       -0.4684
@<TRIPOS>BOND
     1    15    16    1
     2    16     8    1
     3     8     9   ar
     4     9    10   ar
     5    10    11   ar
     6    11    12    1
     7    11    13   ar
     8    13     7    1
     9     7     1    1
    10     1     2    1
    11     2     3    1
    12     3     4    1
    13     4    17    1
    14    17    18    1
    15    18    19    1
    16    19    20   ar
    17    20    21   ar
    18    21    22   ar
    19    22    23   ar
    20    23    24   ar
    21    24    25    1
    22    22    26    1
    23    26    27    1
    24    27    28    1
    25    28    29    1
    26     4     5    1
    27     5     6    1
    28    13    14   ar
    29    14     8   ar
    30     6     1    1
    31    24    19   ar
    32    29    21    1
@<TRIPOS>MOLECULE
*****
 29 32 0 0 0
SMALL
GASTEIGER

@<TRIPOS>ATOM
      1 C          -6.6357  -19.8433   20.7248 C.3     1  UNL1        0.0071
      2 C          -7.2206  -20.1442   22.0729 C.3     1  UNL1        0.0177
      3 C          -8.7070  -20.1044   22.2713 C.3     1  UNL1        0.0721
      4 N          -9.6082  -19.7638   21.1217 N.3     1  UNL1       -0.2724
      5 C          -9.0233  -19.4629   19.7736 C.3     1  UNL1        0.0721
      6 C          -7.5370  -19.5027   19.5751 C.3     1  UNL1        0.0177
      7 C          -5.1494  -19.8831   20.5263 C.3     1  UNL1        0.0270
      8 C          -3.7751  -17.2923   23.2001 C.ar    1  UNL1        0.1385
      9 C          -2.5309  -16.8107   22.5147 C.ar    1  UNL1        0.0374
     10 C          -2.1595  -17.3532   21.1665 C.ar    1  UNL1        0.0095
     11 C          -3.0323  -18.3773   20.5037 C.ar    1  UNL1        0.0308
     12 BR         -2.6609  -18.9198   19.1554 Br      1  UNL1       -0.0493
     13 C          -4.2766  -18.8590   21.1891 C.ar    1  UNL1       -0.0130
     14 C          -4.6479  -18.3165   22.5373 C.ar    1  UNL1        0.0331
     15 C          -5.0573  -15.5627   24.6542 C.3     1  UNL1        0.2525
     16 O          -4.1465  -16.7499   24.5484 O.3     1  UNL1       -0.4714
     17 C         -11.0945  -19.7240   21.3201 C.3     1  UNL1        0.0768
     18 C         -11.7024  -18.6986   22.2306 C.3     1  UNL1        0.0446
     19 C         -10.8192  -17.8159   23.0618 C.ar    1  UNL1       -0.0070
     20 C         -10.4613  -18.2180   24.4619 C.ar    1  UNL1        0.0367
     21 C          -9.5780  -17.3353   25.2931 C.ar    1  UNL1        0.1721
     22 C          -9.0528  -16.0506   24.7243 C.ar    1  UNL1        0.1732
     23 C          -9.4108  -15.6485   23.3242 C.ar    1  UNL1        0.0511
     24 C         -10.2940  -16.5312   22.4930 C.ar    1  UNL1        0.0570
     25 CL        -10.6520  -16.1291   21.0929 Cl      1  UNL1       -0.0825
     26 O          -8.1696  -15.1680   25.5555 O.3     1  UNL1       -0.4683
     27 C          -7.8117  -15.5701   26.9555 C.3     1  UNL1        0.2526
     28 C          -8.3369  -16.8548   27.5244 C.3     1  UNL1        0.2526
     29 O          -9.2201  -17.7374   26.6932 O.3     1  UNL1       -0.4684
@<TRIPOS>BOND
     1    15    16    1
     2    16     8    1
     3     8     9   ar
     4     9    10   ar
     5    10    11   ar
     6    11    12    1
     7    11    13   ar
     8    13     7    1
     9     7     1    1
    10     1     2    1
    11     2     3    1
    12     3     4    1
    13     4    17    1
    14    17    18    1
    15    18    19    1
    16    19    20   ar
    17    20    21   ar
    18    21    22   ar
    19    22    23   ar
    20    23    24   ar
    21    24    25    1
    22    22    26    1
    23    26    27    1
    24    27    28    1
    25    28    29    1
    26     4     5    1
    27     5     6    1
    28    13    14   ar
    29    14     8   ar
    30     6     1    1
    31    24    19   ar
    32    29    21    1
@<TRIPOS>MOLECULE
*****
 29 32 0 0 0
SMALL
GASTEIGER

@<TRIPOS>ATOM
      1 C          -3.6746  -16.9970   23.8123 C.3     1  UNL1        0.0071
      2 C          -4.5553  -15.9861   23.1396 C.3     1  UNL1        0.0177
      3 C          -5.6990  -15.3703   23.8898 C.3     1  UNL1        0.0721
      4 N          -5.9621  -15.7654   25.3127 N.3     1  UNL1       -0.2724
      5 C          -5.0814  -16.7763   25.9854 C.3     1  UNL1        0.0721
      6 C          -3.9377  -17.3921   25.2353 C.3     1  UNL1        0.0177
      7 C          -2.5309  -17.6127   23.0622 C.3     1  UNL1        0.0270
      8 C          -4.0260  -20.0126   20.2774 C.ar    1  UNL1        0.1385
      9 C          -3.2490  -19.5686   19.0736 C.ar    1  UNL1        0.0374
     10 C          -2.2326  -18.4727   19.1994 C.ar    1  UNL1        0.0095
     11 C          -1.9933  -17.8207   20.5289 C.ar    1  UNL1        0.0308
     12 BR         -0.9768  -16.7247   20.6547 Br      1  UNL1       -0.0493
     13 C          -2.7703  -18.2647   21.7327 C.ar    1  UNL1       -0.0130
     14 C          -3.7866  -19.3606   21.6069 C.ar    1  UNL1        0.0331
     15 C          -6.5048  -20.7904   20.2526 C.3     1  UNL1        0.2525
     16 O          -5.0424  -21.1086   20.1517 O.3     1  UNL1       -0.4714
     17 C          -7.1058  -15.1497   26.0628 C.3     1  UNL1        0.0768
     18 C          -8.4698  -15.0986   25.4409 C.3     1  UNL1        0.0446
     19 C          -8.9950  -16.2841   24.6866 C.ar    1  UNL1       -0.0070
     20 C          -9.1700  -16.2090   23.1988 C.ar    1  UNL1        0.0367
     21 C          -9.6952  -17.3945   22.4445 C.ar    1  UNL1        0.1721
     22 C         -10.0454  -18.6551   23.1781 C.ar    1  UNL1        0.1732
     23 C          -9.8705  -18.7302   24.6661 C.ar    1  UNL1        0.0511
     24 C          -9.3453  -17.5447   25.4203 C.ar    1  UNL1        0.0570
     25 CL         -9.1703  -17.6198   26.9082 Cl      1  UNL1       -0.0825
     26 O         -10.5706  -19.8405   22.4240 O.3     1  UNL1       -0.4683
     27 C         -10.7455  -19.7654   20.9361 C.3     1  UNL1        0.2526
     28 C         -10.3953  -18.5048   20.2025 C.3     1  UNL1        0.2526
     29 O          -9.8701  -17.3193   20.9567 O.3     1  UNL1       -0.4684
@<TRIPOS>BOND
     1    15    16    1
     2    16     8    1
     3     8     9   ar
     4     9    10   ar
     5    10    11   ar
     6    11    12    1
     7    11    13   ar
     8    13     7    1
     9     7     1    1
    10     1     2    1
    11     2     3    1
    12     3     4    1
    13     4    17    1
    14    17    18    1
    15    18    19    1
    16    19    20   ar
    17    20    21   ar
    18    21    22   ar
    19    22    23   ar
    20    23    24   ar
    21    24    25    1
    22    22    26    1
    23    26    27    1
    24    27    28    1
    25    28    29    1
    26     4     5    1
    27     5     6    1
    28    13    14   ar
    29    14     8   ar
    30     6     1    1
    31    24    19   ar
    32    29    21    1
@<TRIPOS>MOLECULE
*****
 29 32 0 0 0
SMALL
GASTEIGER

@<TRIPOS>ATOM
      1 C          -9.8038  -16.8157   23.6295 C.3     1  UNL1        0.0071
      2 C         -10.1670  -16.2335   22.2957 C.3     1  UNL1        0.0177
      3 C         -10.5534  -17.1376   21.1628 C.3     1  UNL1        0.0721
      4 N         -10.5767  -18.6239   21.3638 N.3     1  UNL1       -0.2724
      5 C         -10.2135  -19.2061   22.6977 C.3     1  UNL1        0.0721
      6 C          -9.8271  -18.3021   23.8305 C.3     1  UNL1        0.0177
      7 C          -9.4174  -15.9117   24.7624 C.3     1  UNL1        0.0270
      8 C          -5.5654  -15.1137   24.2379 C.ar    1  UNL1        0.1385
      9 C          -5.0724  -15.1528   25.6540 C.ar    1  UNL1        0.0374
     10 C          -6.0278  -15.4449   26.7729 C.ar    1  UNL1        0.0095
     11 C          -7.4761  -15.6979   26.4757 C.ar    1  UNL1        0.0308
     12 BR         -8.4315  -15.9900   27.5947 Br      1  UNL1       -0.0493
     13 C          -7.9691  -15.6587   25.0596 C.ar    1  UNL1       -0.0130
     14 C          -7.0138  -15.3667   23.9407 C.ar    1  UNL1        0.0331
     15 C          -3.5393  -15.8121   22.7691 C.3     1  UNL1        0.2525
     16 O          -4.6101  -14.8216   23.1189 O.3     1  UNL1       -0.4714
     17 C         -10.9631  -19.5279   20.2310 C.3     1  UNL1        0.0768
     18 C         -10.0228  -19.7323   19.0803 C.3     1  UNL1        0.0446
     19 C          -8.5810  -20.0561   19.3383 C.ar    1  UNL1       -0.0070
     20 C          -7.7483  -19.1442   20.1897 C.ar    1  UNL1        0.0367
     21 C          -6.3065  -19.4680   20.4477 C.ar    1  UNL1        0.1721
     22 C          -5.6975  -20.7037   19.8543 C.ar    1  UNL1        0.1732
     23 C          -6.5303  -21.6156   19.0028 C.ar    1  UNL1        0.0511
     24 C          -7.9720  -21.2918   18.7449 C.ar    1  UNL1        0.0570
     25 CL         -8.8048  -22.2037   17.8934 Cl      1  UNL1       -0.0825
     26 O          -4.2558  -21.0275   20.1122 O.3     1  UNL1       -0.4683
     27 C          -3.4231  -20.1156   20.9637 C.3     1  UNL1        0.2526
     28 C          -4.0320  -18.8799   21.5571 C.3     1  UNL1        0.2526
     29 O          -5.4737  -18.5561   21.2991 O.3     1  UNL1       -0.4684
@<TRIPOS>BOND
     1    15    16    1
     2    16     8    1
     3     8     9   ar
     4     9    10   ar
     5    10    11   ar
     6    11    12    1
     7    11    13   ar
     8    13     7    1
     9     7     1    1
    10     1     2    1
    11     2     3    1
    12     3     4    1
    13     4    17    1
    14    17    18    1
    15    18    19    1
    16    19    20   ar
    17    20    21   ar
    18    21    22   ar
    19    22    23   ar
    20    23    24   ar
    21    24    25    1
    22    22    26    1
    23    26    27    1
    24    27    28    1
    25    28    29    1
    26     4     5    1
    27     5     6    1
    28    13    14   ar
    29    14     8   ar
    30     6     1    1
    31    24    19   ar
    32    29    21    1
@<TRIPOS>MOLECULE
*****
 29 32 0 0 0
SMALL
GASTEIGER

@<TRIPOS>ATOM
      1 C         -13.2317   -2.1645   19.3600 C.3     1  UNL1        0.0071
      2 C         -14.2083   -1.2975   18.6221 C.3     1  UNL1        0.0177
      3 C         -15.6816   -1.5456   18.7558 C.3     1  UNL1        0.0721
      4 N         -16.1783   -2.6608   19.6274 N.3     1  UNL1       -0.2724
      5 C         -15.2017   -3.5278   20.3653 C.3     1  UNL1        0.0721
      6 C         -13.7284   -3.2797   20.2317 C.3     1  UNL1        0.0177
      7 C         -11.7584   -1.9164   19.2263 C.3     1  UNL1        0.0270
      8 C          -9.7575   -5.1860   18.1989 C.ar    1  UNL1        0.1385
      9 C          -9.2006   -4.7715   16.8692 C.ar    1  UNL1        0.0374
     10 C          -9.4964   -3.4053   16.3252 C.ar    1  UNL1        0.0095
     11 C         -10.3490   -2.4536   17.1109 C.ar    1  UNL1        0.0308
     12 BR        -10.6448   -1.0873   16.5669 Br      1  UNL1       -0.0493
     13 C         -10.9058   -2.8681   18.4406 C.ar    1  UNL1       -0.0130
     14 C         -10.6101   -4.2343   18.9846 C.ar    1  UNL1        0.0331
     15 C         -10.0862   -7.7618   18.1128 C.3     1  UNL1        0.2525
     16 O          -9.4617   -6.5523   18.7429 O.3     1  UNL1       -0.4714
     17 C         -17.6515   -2.9089   19.7611 C.3     1  UNL1        0.0768
     18 C         -18.3484   -3.8241   18.7984 C.3     1  UNL1        0.0446
     19 C         -17.7561   -5.1637   18.4746 C.ar    1  UNL1       -0.0070
     20 C         -18.0857   -6.3547   19.3248 C.ar    1  UNL1        0.0367
     21 C         -17.4934   -7.6943   19.0011 C.ar    1  UNL1        0.1721
     22 C         -16.5716   -7.8429   17.8271 C.ar    1  UNL1        0.1732
     23 C         -16.2421   -6.6518   16.9769 C.ar    1  UNL1        0.0511
     24 C         -16.8343   -5.3123   17.3007 C.ar    1  UNL1        0.0570
     25 CL        -16.5048   -4.1212   16.4504 Cl      1  UNL1       -0.0825
     26 O         -15.9794   -9.1824   17.5034 O.3     1  UNL1       -0.4683
     27 C         -16.3090  -10.3734   18.3536 C.3     1  UNL1        0.2526
     28 C         -17.2308  -10.2248   19.5275 C.3     1  UNL1        0.2526
     29 O         -17.8230   -8.8853   19.8513 O.3     1  UNL1       -0.4684
@<TRIPOS>BOND
     1    15    16    1
     2    16     8    1
     3     8     9   ar
     4     9    10   ar
     5    10    11   ar
     6    11    12    1
     7    11    13   ar
     8    13     7    1
     9     7     1    1
    10     1     2    1
    11     2     3    1
    12     3     4    1
    13     4    17    1
    14    17    18    1
    15    18    19    1
    16    19    20   ar
    17    20    21   ar
    18    21    22   ar
    19    22    23   ar
    20    23    24   ar
    21    24    25    1
    22    22    26    1
    23    26    27    1
    24    27    28    1
    25    28    29    1
    26     4     5    1
    27     5     6    1
    28    13    14   ar
    29    14     8   ar
    30     6     1    1
    31    24    19   ar
    32    29    21    1
@<TRIPOS>MOLECULE
*****
 29 32 0 0 0
SMALL
GASTEIGER

@<TRIPOS>ATOM
      1 C           4.5570   -3.1745   20.4752 C.3     1  UNL1        0.0071
      2 C           4.1559   -3.1716   21.9206 C.3     1  UNL1        0.0177
      3 C           5.1706   -3.4810   22.9811 C.3     1  UNL1        0.0721
      4 N           6.5864   -3.7932   22.5963 N.3     1  UNL1       -0.2724
      5 C           6.9875   -3.7961   21.1509 C.3     1  UNL1        0.0721
      6 C           5.9729   -3.4867   20.0904 C.3     1  UNL1        0.0177
      7 C           3.5424   -2.8651   19.4146 C.3     1  UNL1        0.0270
      8 C           1.1861    0.2620   20.0616 C.ar    1  UNL1        0.1385
      9 C           1.7829    1.2662   19.1207 C.ar    1  UNL1        0.0374
     10 C           2.9662    0.8933   18.2778 C.ar    1  UNL1        0.0095
     11 C           3.5527   -0.4838   18.3757 C.ar    1  UNL1        0.0308
     12 BR          4.7361   -0.8567   17.5327 Br      1  UNL1       -0.0493
     13 C           2.9559   -1.4880   19.3167 C.ar    1  UNL1       -0.0130
     14 C           1.7726   -1.1151   20.1596 C.ar    1  UNL1        0.0331
     15 C          -0.2907    2.0782   21.1889 C.3     1  UNL1        0.2525
     16 O           0.0027    0.6349   20.9046 O.3     1  UNL1       -0.4714
     17 C           7.6010   -4.1025   23.6568 C.3     1  UNL1        0.0768
     18 C           7.6663   -5.4769   24.2542 C.3     1  UNL1        0.0446
     19 C           7.6379   -5.6493   25.7441 C.ar    1  UNL1       -0.0070
     20 C           7.1270   -4.5420   26.6175 C.ar    1  UNL1        0.0367
     21 C           7.0986   -4.7144   28.1074 C.ar    1  UNL1        0.1721
     22 C           7.5810   -5.9940   28.7237 C.ar    1  UNL1        0.1732
     23 C           8.0919   -7.1013   27.8501 C.ar    1  UNL1        0.0511
     24 C           8.1203   -6.9289   26.3604 C.ar    1  UNL1        0.0570
     25 CL          8.6312   -8.0361   25.4868 Cl      1  UNL1       -0.0825
     26 O           7.5526   -6.1664   30.2134 O.3     1  UNL1       -0.4683
     27 C           7.0417   -5.0591   31.0869 C.3     1  UNL1        0.2526
     28 C           6.5593   -3.7795   30.4706 C.3     1  UNL1        0.2526
     29 O           6.5877   -3.6071   28.9808 O.3     1  UNL1       -0.4684
@<TRIPOS>BOND
     1    15    16    1
     2    16     8    1
     3     8     9   ar
     4     9    10   ar
     5    10    11   ar
     6    11    12    1
     7    11    13   ar
     8    13     7    1
     9     7     1    1
    10     1     2    1
    11     2     3    1
    12     3     4    1
    13     4    17    1
    14    17    18    1
    15    18    19    1
    16    19    20   ar
    17    20    21   ar
    18    21    22   ar
    19    22    23   ar
    20    23    24   ar
    21    24    25    1
    22    22    26    1
    23    26    27    1
    24    27    28    1
    25    28    29    1
    26     4     5    1
    27     5     6    1
    28    13    14   ar
    29    14     8   ar
    30     6     1    1
    31    24    19   ar
    32    29    21    1
@<TRIPOS>MOLECULE
*****
 29 32 0 0 0
SMALL
GASTEIGER

@<TRIPOS>ATOM
      1 C           6.7622   -3.9024   22.5641 C.3     1  UNL1        0.0071
      2 C           7.0387   -3.9660   21.0911 C.3     1  UNL1        0.0177
      3 C           5.9488   -3.6531   20.1092 C.3     1  UNL1        0.0721
      4 N           4.5823   -3.2767   20.6001 N.3     1  UNL1       -0.2724
      5 C           4.3058   -3.2131   22.0730 C.3     1  UNL1        0.0721
      6 C           5.3956   -3.5259   23.0550 C.3     1  UNL1        0.0177
      7 C           7.8520   -4.2152   23.5460 C.3     1  UNL1        0.0270
      8 C           6.6892   -5.9485   26.9214 C.ar    1  UNL1        0.1385
      9 C           7.1972   -7.3443   26.7130 C.ar    1  UNL1        0.0374
     10 C           7.9234   -7.6971   25.4489 C.ar    1  UNL1        0.0095
     11 C           8.1417   -6.6541   24.3932 C.ar    1  UNL1        0.0308
     12 BR          8.8681   -7.0070   23.1291 Br      1  UNL1       -0.0493
     13 C           7.6337   -5.2582   24.6017 C.ar    1  UNL1       -0.0130
     14 C           6.9074   -4.9054   25.8658 C.ar    1  UNL1        0.0331
     15 C           6.7275   -5.4070   29.4622 C.3     1  UNL1        0.2525
     16 O           5.9628   -5.5956   28.1856 O.3     1  UNL1       -0.4714
     17 C           3.4925   -2.9638   19.6182 C.3     1  UNL1        0.0768
     18 C           3.6821   -1.8687   18.6109 C.3     1  UNL1        0.0446
     19 C           3.0455   -0.5284   18.8314 C.ar    1  UNL1       -0.0070
     20 C           1.7778   -0.4218   19.6260 C.ar    1  UNL1        0.0367
     21 C           1.1412    0.9184   19.8465 C.ar    1  UNL1        0.1721
     22 C           1.7725    2.1521   19.2724 C.ar    1  UNL1        0.1732
     23 C           3.0403    2.0455   18.4778 C.ar    1  UNL1        0.0511
     24 C           3.6768    0.7053   18.2573 C.ar    1  UNL1        0.0570
     25 CL          4.9447    0.5987   17.4627 Cl      1  UNL1       -0.0825
     26 O           1.1360    3.4923   19.4928 O.3     1  UNL1       -0.4683
     27 C          -0.1318    3.5989   20.2874 C.3     1  UNL1        0.2526
     28 C          -0.7631    2.3652   20.8615 C.3     1  UNL1        0.2526
     29 O          -0.1266    1.0250   20.6410 O.3     1  UNL1       -0.4684
@<TRIPOS>BOND
     1    15    16    1
     2    16     8    1
     3     8     9   ar
     4     9    10   ar
     5    10    11   ar
     6    11    12    1
     7    11    13   ar
     8    13     7    1
     9     7     1    1
    10     1     2    1
    11     2     3    1
    12     3     4    1
    13     4    17    1
    14    17    18    1
    15    18    19    1
    16    19    20   ar
    17    20    21   ar
    18    21    22   ar
    19    22    23   ar
    20    23    24   ar
    21    24    25    1
    22    22    26    1
    23    26    27    1
    24    27    28    1
    25    28    29    1
    26     4     5    1
    27     5     6    1
    28    13    14   ar
    29    14     8   ar
    30     6     1    1
    31    24    19   ar
    32    29    21    1
@<TRIPOS>MOLECULE
*****
 29 32 0 0 0
SMALL
GASTEIGER

@<TRIPOS>ATOM
      1 C         -16.3046    2.6040   20.5427 C.3     1  UNL1        0.0071
      2 C         -15.2972    2.4115   19.4482 C.3     1  UNL1        0.0177
      3 C         -15.0656    1.0452   18.8738 C.3     1  UNL1        0.0721
      4 N         -15.8414   -0.1284   19.3940 N.3     1  UNL1       -0.2724
      5 C         -16.8489    0.0641   20.4885 C.3     1  UNL1        0.0721
      6 C         -17.0805    1.4303   21.0629 C.3     1  UNL1        0.0177
      7 C         -16.5362    3.9702   21.1171 C.3     1  UNL1        0.0270
      8 C         -13.7748    5.1508   23.7114 C.ar    1  UNL1        0.1385
      9 C         -14.5643    5.1480   24.9867 C.ar    1  UNL1        0.0374
     10 C         -16.0112    4.7526   24.9722 C.ar    1  UNL1        0.0095
     11 C         -16.6685    4.3600   23.6823 C.ar    1  UNL1        0.0308
     12 BR        -18.1154    3.9645   23.6678 Br      1  UNL1       -0.0493
     13 C         -15.8789    4.3628   22.4070 C.ar    1  UNL1       -0.0130
     14 C         -14.4321    4.7582   22.4215 C.ar    1  UNL1        0.0331
     15 C         -11.8954    6.7818   24.4583 C.3     1  UNL1        0.2525
     16 O         -12.3279    5.5463   23.7259 O.3     1  UNL1       -0.4714
     17 C         -15.6098   -1.4945   18.8196 C.3     1  UNL1        0.0768
     18 C         -15.6233   -2.6972   19.7160 C.3     1  UNL1        0.0446
     19 C         -14.5976   -3.7771   19.5375 C.ar    1  UNL1       -0.0070
     20 C         -13.1471   -3.4192   19.4038 C.ar    1  UNL1        0.0367
     21 C         -12.1215   -4.4992   19.2253 C.ar    1  UNL1        0.1721
     22 C         -12.5464   -5.9370   19.1805 C.ar    1  UNL1        0.1732
     23 C         -13.9970   -6.2949   19.3143 C.ar    1  UNL1        0.0511
     24 C         -15.0225   -5.2150   19.4928 C.ar    1  UNL1        0.0570
     25 CL        -16.4731   -5.5729   19.6265 Cl      1  UNL1       -0.0825
     26 O         -11.5208   -7.0170   19.0021 O.3     1  UNL1       -0.4683
     27 C         -10.0704   -6.6591   18.8683 C.3     1  UNL1        0.2526
     28 C          -9.6454   -5.2212   18.9131 C.3     1  UNL1        0.2526
     29 O         -10.6710   -4.1413   19.0916 O.3     1  UNL1       -0.4684
@<TRIPOS>BOND
     1    15    16    1
     2    16     8    1
     3     8     9   ar
     4     9    10   ar
     5    10    11   ar
     6    11    12    1
     7    11    13   ar
     8    13     7    1
     9     7     1    1
    10     1     2    1
    11     2     3    1
    12     3     4    1
    13     4    17    1
    14    17    18    1
    15    18    19    1
    16    19    20   ar
    17    20    21   ar
    18    21    22   ar
    19    22    23   ar
    20    23    24   ar
    21    24    25    1
    22    22    26    1
    23    26    27    1
    24    27    28    1
    25    28    29    1
    26     4     5    1
    27     5     6    1
    28    13    14   ar
    29    14     8   ar
    30     6     1    1
    31    24    19   ar
    32    29    21    1
@<TRIPOS>MOLECULE
*****
 29 32 0 0 0
SMALL
GASTEIGER

@<TRIPOS>ATOM
      1 C           7.0764   -4.1731   22.6997 C.3     1  UNL1        0.0071
      2 C           5.6085   -3.9845   22.9441 C.3     1  UNL1        0.0177
      3 C           4.6580   -3.9154   21.7857 C.3     1  UNL1        0.0721
      4 N           5.1754   -4.0350   20.3829 N.3     1  UNL1       -0.2724
      5 C           6.6433   -4.2237   20.1384 C.3     1  UNL1        0.0721
      6 C           7.5937   -4.2927   21.2967 C.3     1  UNL1        0.0177
      7 C           8.0268   -4.2422   23.8580 C.3     1  UNL1        0.0270
      8 C           6.8963   -5.8260   27.3168 C.ar    1  UNL1        0.1385
      9 C           7.3558   -7.2432   27.1433 C.ar    1  UNL1        0.0374
     10 C           8.0391   -7.6601   25.8748 C.ar    1  UNL1        0.0095
     11 C           8.2627   -6.6598   24.7797 C.ar    1  UNL1        0.0308
     12 BR          8.9460   -7.0768   23.5110 Br      1  UNL1       -0.0493
     13 C           7.8032   -5.2425   24.9531 C.ar    1  UNL1       -0.0130
     14 C           7.1199   -4.8256   26.2217 C.ar    1  UNL1        0.0331
     15 C           6.9137   -5.5686   29.9021 C.3     1  UNL1        0.2525
     16 O           6.2130   -5.4090   28.5854 O.3     1  UNL1       -0.4714
     17 C           4.2249   -3.9660   19.2246 C.3     1  UNL1        0.0768
     18 C           3.2889   -2.8015   19.0909 C.3     1  UNL1        0.0446
     19 C           3.8169   -1.4574   18.6850 C.ar    1  UNL1       -0.0070
     20 C           5.0999   -1.3572   17.9143 C.ar    1  UNL1        0.0367
     21 C           5.6280   -0.0131   17.5085 C.ar    1  UNL1        0.1721
     22 C           4.8731    1.2307   17.8735 C.ar    1  UNL1        0.1732
     23 C           3.5901    1.1304   18.6442 C.ar    1  UNL1        0.0511
     24 C           3.0621   -0.2137   19.0500 C.ar    1  UNL1        0.0570
     25 CL          1.7791   -0.3140   19.8207 Cl      1  UNL1       -0.0825
     26 O           5.4011    2.5747   17.4677 O.3     1  UNL1       -0.4683
     27 C           6.6840    2.6750   16.6970 C.3     1  UNL1        0.2526
     28 C           7.4389    1.4312   16.3321 C.3     1  UNL1        0.2526
     29 O           6.9109    0.0872   16.7378 O.3     1  UNL1       -0.4684
@<TRIPOS>BOND
     1    15    16    1
     2    16     8    1
     3     8     9   ar
     4     9    10   ar
     5    10    11   ar
     6    11    12    1
     7    11    13   ar
     8    13     7    1
     9     7     1    1
    10     1     2    1
    11     2     3    1
    12     3     4    1
    13     4    17    1
    14    17    18    1
    15    18    19    1
    16    19    20   ar
    17    20    21   ar
    18    21    22   ar
    19    22    23   ar
    20    23    24   ar
    21    24    25    1
    22    22    26    1
    23    26    27    1
    24    27    28    1
    25    28    29    1
    26     4     5    1
    27     5     6    1
    28    13    14   ar
    29    14     8   ar
    30     6     1    1
    31    24    19   ar
    32    29    21    1
