@<TRIPOS>MOLECULE
*****
 40 43 0 0 0
SMALL
GASTEIGER

@<TRIPOS>ATOM
      1 C           1.0828    1.0496   22.1910 C.ar    1  UNL1        0.1690
      2 C           1.2059    0.4415   20.8254 C.ar    1  UNL1        0.1749
      3 C           2.1635   -0.6892   20.5914 C.ar    1  UNL1        0.0776
      4 C           2.9978   -1.2118   21.7231 C.ar    1  UNL1        0.1512
      5 O           3.9553   -2.3425   21.4891 O.2     1  UNL1       -0.4530
      6 C           4.7897   -2.8651   22.6208 C.ar    1  UNL1        0.1543
      7 C           5.7472   -3.9958   22.3868 C.ar    1  UNL1        0.0747
      8 C           6.5816   -4.5184   23.5185 C.ar    1  UNL1        0.1445
      9 C           6.4585   -3.9103   24.8841 C.ar    1  UNL1        0.0677
     10 C           5.5009   -2.7796   25.1181 C.ar    1  UNL1        0.1425
     11 O           5.3778   -2.1715   26.4838 O.3     1  UNL1       -0.5052
     12 C           4.6666   -2.2570   23.9864 C.ar    1  UNL1        0.1073
     13 C           3.7091   -1.1263   24.2204 C.ar    1  UNL1        0.2042
     14 O           3.5860   -0.5182   25.5861 O.2     1  UNL1       -0.2863
     15 C           2.8747   -0.6037   23.0887 C.ar    1  UNL1        0.0731
     16 C           1.9172    0.5270   23.3227 C.ar    1  UNL1        0.0252
     17 C           7.2928   -4.4329   26.0158 C.2     1  UNL1        0.0049
     18 C           8.2503   -5.5635   25.7818 C.2     1  UNL1        0.0130
     19 C           8.3734   -6.1716   24.4161 C.3     1  UNL1        0.1517
     20 C           8.8429   -7.0696   23.3101 C.3     1  UNL1        0.0483
     21 C           9.3708   -7.0060   25.1637 C.3     1  UNL1        0.0483
     22 O           7.5390   -5.6491   23.2845 O.3     1  UNL1       -0.4783
     23 H           5.8990   -2.4979   27.1907 H       1  UNL1        0.2922
     24 C           0.5340    3.5875   22.1047 C.3     1  UNL1        0.2526
     25 O           0.1254    2.1803   22.4250 O.3     1  UNL1       -0.4687
     26 O           0.3716    0.9641   19.6937 O.3     1  UNL1       -0.4723
     27 C           1.0038    1.7964   18.6178 C.3     1  UNL1        0.2056
     28 C           2.2434    2.5877   18.9128 C.3     1  UNL1        0.0473
     29 C           3.5151    2.2927   18.1741 C.3     1  UNL1        0.0038
     30 C           4.2530    1.0125   18.4328 C.3     1  UNL1        0.0005
     31 C           4.3126   -0.0463   17.3720 C.3     1  UNL1        0.0059
     32 C           4.1909   -1.4931   17.7488 C.3     1  UNL1        0.0417
     33 C           5.4247   -2.3186   17.9633 C.2     1  UNL1        0.0503
     34 O           5.3547   -3.5732   18.7824 O.co2   1  UNL1       -0.5492
     35 O           6.7288   -1.8894   17.3588 O.co2   1  UNL1       -0.5492
     36 C           1.7941    1.1351   24.6884 C.3     1  UNL1        0.0550
     37 C           0.4891    1.0669   25.4249 C.2     1  UNL1       -0.0298
     38 C           0.4407    1.3651   26.8942 C.2     1  UNL1       -0.0475
     39 C          -0.8642    1.2969   27.6307 C.3     1  UNL1        0.0260
     40 C           1.6973    1.7314   27.6269 C.3     1  UNL1        0.0260
@<TRIPOS>UNITY_ATOM_ATTR
34 1
charge -1
@<TRIPOS>BOND
     1    24    25    1
     2    25     1    1
     3     1     2   ar
     4     2    26    1
     5    26    27    1
     6    27    28    1
     7    28    29    1
     8    29    30    1
     9    30    31    1
    10    31    32    1
    11    32    33    1
    12    33    34   ar
    13    33    35   ar
    14     2     3   ar
    15     3     4   ar
    16     4     5   ar
    17     5     6   ar
    18     6     7   ar
    19     7     8   ar
    20     8     9   ar
    21     9    10   ar
    22    10    11    1
    23    10    12   ar
    24    12    13   ar
    25    13    14    2
    26    13    15   ar
    27    15    16   ar
    28    16    36    1
    29    36    37    1
    30    37    38    2
    31    38    39    1
    32    38    40    1
    33     9    17    1
    34    17    18    2
    35    18    19    1
    36    19    20    1
    37    19    21    1
    38    19    22    1
    39    16     1   ar
    40    15     4   ar
    41    12     6   ar
    42    22     8    1
    43    11    23    1
@<TRIPOS>MOLECULE
*****
 40 43 0 0 0
SMALL
GASTEIGER

@<TRIPOS>ATOM
      1 C           7.6861   -6.7335   25.9842 C.ar    1  UNL1        0.1690
      2 C           8.1699   -7.5696   27.1317 C.ar    1  UNL1        0.1749
      3 C           8.0626   -7.0510   28.5352 C.ar    1  UNL1        0.0776
      4 C           7.4715   -5.6963   28.7910 C.ar    1  UNL1        0.1512
      5 O           7.3642   -5.1777   30.1944 O.2     1  UNL1       -0.4530
      6 C           6.7731   -3.8230   30.4502 C.ar    1  UNL1        0.1543
      7 C           6.6658   -3.3044   31.8536 C.ar    1  UNL1        0.0747
      8 C           6.0747   -1.9497   32.1095 C.ar    1  UNL1        0.1445
      9 C           5.5909   -1.1136   30.9619 C.ar    1  UNL1        0.0677
     10 C           5.6983   -1.6323   29.5585 C.ar    1  UNL1        0.1425
     11 O           5.2145   -0.7962   28.4109 O.3     1  UNL1       -0.5052
     12 C           6.2893   -2.9869   29.3027 C.ar    1  UNL1        0.1073
     13 C           6.3967   -3.5056   27.8992 C.ar    1  UNL1        0.2042
     14 O           5.9129   -2.6695   26.7516 O.2     1  UNL1       -0.2863
     15 C           6.9877   -4.8602   27.6434 C.ar    1  UNL1        0.0731
     16 C           7.0950   -5.3788   26.2400 C.ar    1  UNL1        0.0252
     17 C           4.9998    0.2410   31.2177 C.2     1  UNL1        0.0049
     18 C           4.8925    0.7596   32.6211 C.2     1  UNL1        0.0130
     19 C           5.3763   -0.0765   33.7687 C.3     1  UNL1        0.1517
     20 C           5.6929   -0.4922   35.1747 C.3     1  UNL1        0.0483
     21 C           4.8952    1.1338   34.5128 C.3     1  UNL1        0.0483
     22 O           5.9674   -1.4311   33.5129 O.3     1  UNL1       -0.4783
     23 H           4.8453    0.0501   28.5707 H       1  UNL1        0.2922
     24 C           9.1428   -7.4731   23.9641 C.3     1  UNL1        0.2526
     25 O           7.7934   -7.2521   24.5808 O.3     1  UNL1       -0.4687
     26 O           8.7610   -8.9243   26.8759 O.3     1  UNL1       -0.4723
     27 C           8.5762  -10.0247   27.8784 C.3     1  UNL1        0.2056
     28 C           7.3031  -10.8178   27.8953 C.3     1  UNL1        0.0473
     29 C           7.3213  -12.2562   28.3203 C.3     1  UNL1        0.0038
     30 C           6.1858  -12.8146   29.1259 C.3     1  UNL1        0.0005
     31 C           4.8579  -12.1170   29.1344 C.3     1  UNL1        0.0059
     32 C           3.7512  -12.6001   28.2446 C.3     1  UNL1        0.0417
     33 C           3.6350  -14.0593   27.9171 C.2     1  UNL1        0.0503
     34 O           4.2037  -14.5874   26.6335 O.co2   1  UNL1       -0.5492
     35 O           2.9502  -14.9904   28.8732 O.co2   1  UNL1       -0.5492
     36 C           6.6113   -4.5427   25.0925 C.3     1  UNL1        0.0550
     37 C           7.5495   -4.1831   23.9786 C.2     1  UNL1       -0.0298
     38 C           7.0056   -3.7995   22.6344 C.2     1  UNL1       -0.0475
     39 C           7.9437   -3.4399   21.5206 C.3     1  UNL1        0.0260
     40 C           5.5236   -3.7754   22.4039 C.3     1  UNL1        0.0260
@<TRIPOS>UNITY_ATOM_ATTR
34 1
charge -1
@<TRIPOS>BOND
     1    24    25    1
     2    25     1    1
     3     1     2   ar
     4     2    26    1
     5    26    27    1
     6    27    28    1
     7    28    29    1
     8    29    30    1
     9    30    31    1
    10    31    32    1
    11    32    33    1
    12    33    34   ar
    13    33    35   ar
    14     2     3   ar
    15     3     4   ar
    16     4     5   ar
    17     5     6   ar
    18     6     7   ar
    19     7     8   ar
    20     8     9   ar
    21     9    10   ar
    22    10    11    1
    23    10    12   ar
    24    12    13   ar
    25    13    14    2
    26    13    15   ar
    27    15    16   ar
    28    16    36    1
    29    36    37    1
    30    37    38    2
    31    38    39    1
    32    38    40    1
    33     9    17    1
    34    17    18    2
    35    18    19    1
    36    19    20    1
    37    19    21    1
    38    19    22    1
    39    16     1   ar
    40    15     4   ar
    41    12     6   ar
    42    22     8    1
    43    11    23    1
@<TRIPOS>MOLECULE
*****
 40 43 0 0 0
SMALL
GASTEIGER

@<TRIPOS>ATOM
      1 C           7.2024   -4.2211   23.0753 C.ar    1  UNL1        0.1690
      2 C           8.0086   -4.6562   24.2631 C.ar    1  UNL1        0.1749
      3 C           7.6643   -4.1458   25.6309 C.ar    1  UNL1        0.0776
      4 C           6.5137   -3.2004   25.8110 C.ar    1  UNL1        0.1512
      5 O           6.1694   -2.6901   27.1789 O.2     1  UNL1       -0.4530
      6 C           5.0189   -1.7446   27.3590 C.ar    1  UNL1        0.1543
      7 C           4.6746   -1.2343   28.7268 C.ar    1  UNL1        0.0747
      8 C           3.5240   -0.2888   28.9070 C.ar    1  UNL1        0.1445
      9 C           2.7178    0.1462   27.7192 C.ar    1  UNL1        0.0677
     10 C           3.0621   -0.3641   26.3514 C.ar    1  UNL1        0.1425
     11 O           2.2559    0.0710   25.1636 O.3     1  UNL1       -0.5052
     12 C           4.2126   -1.3095   26.1713 C.ar    1  UNL1        0.1073
     13 C           4.5570   -1.8199   24.8034 C.ar    1  UNL1        0.2042
     14 O           3.7508   -1.3848   23.6157 O.2     1  UNL1       -0.2863
     15 C           5.7075   -2.7653   24.6233 C.ar    1  UNL1        0.0731
     16 C           6.0518   -3.2756   23.2555 C.ar    1  UNL1        0.0252
     17 C           1.5673    1.0916   27.8993 C.2     1  UNL1        0.0049
     18 C           1.2230    1.6020   29.2672 C.2     1  UNL1        0.0130
     19 C           2.0292    1.1669   30.4549 C.3     1  UNL1        0.1517
     20 C           2.4916    1.0456   31.8767 C.3     1  UNL1        0.0483
     21 C           1.0392    2.0702   31.1287 C.3     1  UNL1        0.0483
     22 O           3.1797    0.2215   30.2748 O.3     1  UNL1       -0.4783
     23 H           1.5372    0.6615   25.2761 H       1  UNL1        0.2922
     24 C           8.6373   -4.0744   20.9145 C.3     1  UNL1        0.2526
     25 O           7.5467   -4.7314   21.7075 O.3     1  UNL1       -0.4687
     26 O           9.1591   -5.6016   24.0830 O.3     1  UNL1       -0.4723
     27 C           9.2413   -6.8494   24.9114 C.3     1  UNL1        0.2056
     28 C           8.0118   -7.6759   25.1463 C.3     1  UNL1        0.0473
     29 C           7.5415   -7.9396   26.5461 C.3     1  UNL1        0.0038
     30 C           8.5261   -7.9550   27.6777 C.3     1  UNL1        0.0005
     31 C           8.4535   -6.9079   28.7493 C.3     1  UNL1        0.0059
     32 C           7.2600   -6.0035   28.8345 C.3     1  UNL1        0.0417
     33 C           6.8971   -5.3617   30.1408 C.2     1  UNL1        0.0503
     34 O           6.5625   -3.9003   30.1911 O.co2   1  UNL1       -0.5492
     35 O           6.8687   -6.1812   31.3968 O.co2   1  UNL1       -0.5492
     36 C           5.2456   -2.8405   22.0677 C.3     1  UNL1        0.0550
     37 C           4.3652   -3.8256   21.3573 C.2     1  UNL1       -0.0298
     38 C           4.4801   -3.9989   19.8718 C.2     1  UNL1       -0.0475
     39 C           3.5999   -4.9840   19.1613 C.3     1  UNL1        0.0260
     40 C           5.4754   -3.1872   19.0967 C.3     1  UNL1        0.0260
@<TRIPOS>UNITY_ATOM_ATTR
34 1
charge -1
@<TRIPOS>BOND
     1    24    25    1
     2    25     1    1
     3     1     2   ar
     4     2    26    1
     5    26    27    1
     6    27    28    1
     7    28    29    1
     8    29    30    1
     9    30    31    1
    10    31    32    1
    11    32    33    1
    12    33    34   ar
    13    33    35   ar
    14     2     3   ar
    15     3     4   ar
    16     4     5   ar
    17     5     6   ar
    18     6     7   ar
    19     7     8   ar
    20     8     9   ar
    21     9    10   ar
    22    10    11    1
    23    10    12   ar
    24    12    13   ar
    25    13    14    2
    26    13    15   ar
    27    15    16   ar
    28    16    36    1
    29    36    37    1
    30    37    38    2
    31    38    39    1
    32    38    40    1
    33     9    17    1
    34    17    18    2
    35    18    19    1
    36    19    20    1
    37    19    21    1
    38    19    22    1
    39    16     1   ar
    40    15     4   ar
    41    12     6   ar
    42    22     8    1
    43    11    23    1
@<TRIPOS>MOLECULE
*****
 40 43 0 0 0
SMALL
GASTEIGER

@<TRIPOS>ATOM
      1 C           6.8133   -4.3020   22.8271 C.ar    1  UNL1        0.1690
      2 C           5.6623   -3.8713   21.9671 C.ar    1  UNL1        0.1749
      3 C           4.6411   -2.9134   22.5054 C.ar    1  UNL1        0.0776
      4 C           4.7709   -2.3863   23.9037 C.ar    1  UNL1        0.1512
      5 O           3.7498   -1.4285   24.4419 O.2     1  UNL1       -0.4530
      6 C           3.8796   -0.9013   25.8403 C.ar    1  UNL1        0.1543
      7 C           2.8585    0.0565   26.3786 C.ar    1  UNL1        0.0747
      8 C           2.9883    0.5837   27.7769 C.ar    1  UNL1        0.1445
      9 C           4.1393    0.1530   28.6369 C.ar    1  UNL1        0.0677
     10 C           5.1605   -0.8049   28.0986 C.ar    1  UNL1        0.1425
     11 O           6.3116   -1.2355   28.9586 O.3     1  UNL1       -0.5052
     12 C           5.0307   -1.3320   26.7003 C.ar    1  UNL1        0.1073
     13 C           6.0519   -2.2898   26.1620 C.ar    1  UNL1        0.2042
     14 O           7.2029   -2.7205   27.0220 O.2     1  UNL1       -0.2863
     15 C           5.9220   -2.8170   24.7637 C.ar    1  UNL1        0.0731
     16 C           6.9432   -3.7748   24.2254 C.ar    1  UNL1        0.0252
     17 C           4.2692    0.6801   30.0352 C.2     1  UNL1        0.0049
     18 C           3.2480    1.6379   30.5735 C.2     1  UNL1        0.0130
     19 C           2.0970    2.0686   29.7135 C.3     1  UNL1        0.1517
     20 C           0.8394    2.7666   29.2878 C.3     1  UNL1        0.0483
     21 C           1.7901    2.8381   30.9639 C.3     1  UNL1        0.0483
     22 O           1.9671    1.5415   28.3152 O.3     1  UNL1       -0.4783
     23 H           6.3927   -0.9063   29.8321 H       1  UNL1        0.2922
     24 C           8.9461   -4.7583   21.4155 C.3     1  UNL1        0.2526
     25 O           7.8345   -5.2598   22.2888 O.3     1  UNL1       -0.4687
     26 O           5.5324   -4.3984   20.5688 O.3     1  UNL1       -0.4723
     27 C           4.1754   -4.6915   20.0008 C.3     1  UNL1        0.2056
     28 C           3.5535   -3.7449   19.0174 C.3     1  UNL1        0.0473
     29 C           4.3140   -2.5377   18.5545 C.3     1  UNL1        0.0038
     30 C           3.7071   -1.1724   18.6878 C.3     1  UNL1        0.0005
     31 C           3.1048   -0.7435   19.9929 C.3     1  UNL1        0.0059
     32 C           1.6277   -0.8765   20.2169 C.3     1  UNL1        0.0417
     33 C           0.6982    0.2052   19.7522 C.2     1  UNL1        0.0503
     34 O           0.7645    0.6938   18.3356 O.co2   1  UNL1       -0.5492
     35 O          -0.2977    0.7984   20.7043 O.co2   1  UNL1       -0.5492
     36 C           8.0942   -4.2055   25.0854 C.3     1  UNL1        0.0550
     37 C           8.4830   -5.6529   25.1483 C.2     1  UNL1       -0.0298
     38 C           7.7295   -6.5937   26.0411 C.2     1  UNL1       -0.0475
     39 C           8.1183   -8.0411   26.1040 C.3     1  UNL1        0.0260
     40 C           6.5872   -6.0872   26.8710 C.3     1  UNL1        0.0260
@<TRIPOS>UNITY_ATOM_ATTR
34 1
charge -1
@<TRIPOS>BOND
     1    24    25    1
     2    25     1    1
     3     1     2   ar
     4     2    26    1
     5    26    27    1
     6    27    28    1
     7    28    29    1
     8    29    30    1
     9    30    31    1
    10    31    32    1
    11    32    33    1
    12    33    34   ar
    13    33    35   ar
    14     2     3   ar
    15     3     4   ar
    16     4     5   ar
    17     5     6   ar
    18     6     7   ar
    19     7     8   ar
    20     8     9   ar
    21     9    10   ar
    22    10    11    1
    23    10    12   ar
    24    12    13   ar
    25    13    14    2
    26    13    15   ar
    27    15    16   ar
    28    16    36    1
    29    36    37    1
    30    37    38    2
    31    38    39    1
    32    38    40    1
    33     9    17    1
    34    17    18    2
    35    18    19    1
    36    19    20    1
    37    19    21    1
    38    19    22    1
    39    16     1   ar
    40    15     4   ar
    41    12     6   ar
    42    22     8    1
    43    11    23    1
@<TRIPOS>MOLECULE
*****
 40 43 0 0 0
SMALL
GASTEIGER

@<TRIPOS>ATOM
      1 C           2.2523    0.3533   22.0252 C.ar    1  UNL1        0.1690
      2 C           1.4597    1.0556   23.0875 C.ar    1  UNL1        0.1749
      3 C           1.7879    0.8385   24.5350 C.ar    1  UNL1        0.0776
      4 C           2.9088   -0.0808   24.9202 C.ar    1  UNL1        0.1512
      5 O           3.2370   -0.2979   26.3676 O.2     1  UNL1       -0.4530
      6 C           4.3579   -1.2173   26.7528 C.ar    1  UNL1        0.1543
      7 C           4.6861   -1.4343   28.2003 C.ar    1  UNL1        0.0747
      8 C           5.8071   -2.3537   28.5855 C.ar    1  UNL1        0.1445
      9 C           6.5997   -3.0560   27.5232 C.ar    1  UNL1        0.0677
     10 C           6.2715   -2.8389   26.0757 C.ar    1  UNL1        0.1425
     11 O           7.0642   -3.5412   25.0134 O.3     1  UNL1       -0.5052
     12 C           5.1506   -1.9196   25.6906 C.ar    1  UNL1        0.1073
     13 C           4.8224   -1.7025   24.2430 C.ar    1  UNL1        0.2042
     14 O           5.6150   -2.4048   23.1808 O.2     1  UNL1       -0.2863
     15 C           3.7015   -0.7831   23.8579 C.ar    1  UNL1        0.0731
     16 C           3.3733   -0.5661   22.4104 C.ar    1  UNL1        0.0252
     17 C           7.7206   -3.9753   27.9084 C.2     1  UNL1        0.0049
     18 C           8.0488   -4.1924   29.3558 C.2     1  UNL1        0.0130
     19 C           7.2561   -3.4901   30.4181 C.3     1  UNL1        0.1517
     20 C           6.7975   -3.0546   31.7782 C.3     1  UNL1        0.0483
     21 C           8.2177   -4.2582   31.2756 C.3     1  UNL1        0.0483
     22 O           6.1353   -2.5707   30.0329 O.3     1  UNL1       -0.4783
     23 H           7.7644   -4.1155   25.2540 H       1  UNL1        0.2922
     24 C           0.7700   -0.1563   19.9534 C.3     1  UNL1        0.2526
     25 O           1.9241    0.5703   20.5778 O.3     1  UNL1       -0.4687
     26 O           0.3388    1.9749   22.7023 O.3     1  UNL1       -0.4723
     27 C           0.1370    3.2632   23.4437 C.3     1  UNL1        0.2056
     28 C          -1.1976    3.5773   24.0521 C.3     1  UNL1        0.0473
     29 C          -1.6507    2.8496   25.2830 C.3     1  UNL1        0.0038
     30 C          -0.7620    2.7919   26.4900 C.3     1  UNL1        0.0005
     31 C          -0.8619    1.6356   27.4403 C.3     1  UNL1        0.0059
     32 C           0.3452    1.1937   28.2133 C.3     1  UNL1        0.0417
     33 C           0.2636   -0.0056   29.1106 C.2     1  UNL1        0.0503
     34 O           1.4714   -0.4490   29.8816 O.co2   1  UNL1       -0.5492
     35 O          -1.0259   -0.7615   29.2367 O.co2   1  UNL1       -0.5492
     36 C           4.1660   -1.2684   21.3482 C.3     1  UNL1        0.0550
     37 C           3.5708   -2.4346   20.6160 C.2     1  UNL1       -0.0298
     38 C           4.4467   -3.3241   19.7843 C.2     1  UNL1       -0.0475
     39 C           3.8516   -4.4902   19.0522 C.3     1  UNL1        0.0260
     40 C           5.9176   -3.0474   19.6848 C.3     1  UNL1        0.0260
@<TRIPOS>UNITY_ATOM_ATTR
34 1
charge -1
@<TRIPOS>BOND
     1    24    25    1
     2    25     1    1
     3     1     2   ar
     4     2    26    1
     5    26    27    1
     6    27    28    1
     7    28    29    1
     8    29    30    1
     9    30    31    1
    10    31    32    1
    11    32    33    1
    12    33    34   ar
    13    33    35   ar
    14     2     3   ar
    15     3     4   ar
    16     4     5   ar
    17     5     6   ar
    18     6     7   ar
    19     7     8   ar
    20     8     9   ar
    21     9    10   ar
    22    10    11    1
    23    10    12   ar
    24    12    13   ar
    25    13    14    2
    26    13    15   ar
    27    15    16   ar
    28    16    36    1
    29    36    37    1
    30    37    38    2
    31    38    39    1
    32    38    40    1
    33     9    17    1
    34    17    18    2
    35    18    19    1
    36    19    20    1
    37    19    21    1
    38    19    22    1
    39    16     1   ar
    40    15     4   ar
    41    12     6   ar
    42    22     8    1
    43    11    23    1
@<TRIPOS>MOLECULE
*****
 40 43 0 0 0
SMALL
GASTEIGER

@<TRIPOS>ATOM
      1 C           1.3768    1.4784   29.0652 C.ar    1  UNL1        0.1690
      2 C           2.2363    0.3986   29.6527 C.ar    1  UNL1        0.1749
      3 C           2.9901   -0.5337   28.7512 C.ar    1  UNL1        0.0776
      4 C           2.8842   -0.3862   27.2622 C.ar    1  UNL1        0.1512
      5 O           3.6379   -1.3185   26.3608 O.2     1  UNL1       -0.4530
      6 C           3.5321   -1.1710   24.8717 C.ar    1  UNL1        0.1543
      7 C           4.2858   -2.1033   23.9703 C.ar    1  UNL1        0.0747
      8 C           4.1800   -1.9559   22.4813 C.ar    1  UNL1        0.1445
      9 C           3.3204   -0.8761   21.8938 C.ar    1  UNL1        0.0677
     10 C           2.5666    0.0563   22.7953 C.ar    1  UNL1        0.1425
     11 O           1.7071    1.1361   22.2078 O.3     1  UNL1       -0.5052
     12 C           2.6725   -0.0912   24.2843 C.ar    1  UNL1        0.1073
     13 C           1.9188    0.8411   25.1858 C.ar    1  UNL1        0.2042
     14 O           1.0592    1.9209   24.5983 O.2     1  UNL1       -0.2863
     15 C           2.0246    0.6936   26.6747 C.ar    1  UNL1        0.0731
     16 C           1.2709    1.6259   27.5762 C.ar    1  UNL1        0.0252
     17 C           3.2145   -0.7285   20.4048 C.2     1  UNL1        0.0049
     18 C           3.9682   -1.6609   19.5034 C.2     1  UNL1        0.0130
     19 C           4.8278   -2.7407   20.0909 C.3     1  UNL1        0.1517
     20 C           5.7635   -3.9103   20.1708 C.3     1  UNL1        0.0483
     21 C           5.0469   -2.9994   18.6297 C.3     1  UNL1        0.0483
     22 O           4.9337   -2.8882   21.5798 O.3     1  UNL1       -0.4783
     23 H           1.6409    1.2282   21.2777 H       1  UNL1        0.2922
     24 C           1.3054    3.6197   30.5348 C.3     1  UNL1        0.2526
     25 O           0.6230    2.4107   29.9667 O.3     1  UNL1       -0.4687
     26 O           2.3422    0.2511   31.1417 O.3     1  UNL1       -0.4723
     27 C           3.6904    0.2231   31.7986 C.3     1  UNL1        0.2056
     28 C           3.9476   -0.7115   32.9433 C.3     1  UNL1        0.0473
     29 C           4.2961   -2.1459   32.6766 C.3     1  UNL1        0.0038
     30 C           5.4392   -2.4832   31.7657 C.3     1  UNL1        0.0005
     31 C           6.7410   -2.9580   32.3401 C.3     1  UNL1        0.0059
     32 C           7.5792   -3.9450   31.5831 C.3     1  UNL1        0.0417
     33 C           6.9828   -5.2453   31.1319 C.2     1  UNL1        0.0503
     34 O           6.7347   -6.3414   32.1253 O.co2   1  UNL1       -0.5492
     35 O           6.6344   -5.4494   29.6872 O.co2   1  UNL1       -0.5492
     36 C           0.4113    2.7057   26.9887 C.3     1  UNL1        0.0550
     37 C          -1.0816    2.6254   27.1106 C.2     1  UNL1       -0.0298
     38 C          -1.9373    3.7453   26.5971 C.2     1  UNL1       -0.0475
     39 C          -3.4301    3.6651   26.7190 C.3     1  UNL1        0.0260
     40 C          -1.3000    4.9455   25.9618 C.3     1  UNL1        0.0260
@<TRIPOS>UNITY_ATOM_ATTR
34 1
charge -1
@<TRIPOS>BOND
     1    24    25    1
     2    25     1    1
     3     1     2   ar
     4     2    26    1
     5    26    27    1
     6    27    28    1
     7    28    29    1
     8    29    30    1
     9    30    31    1
    10    31    32    1
    11    32    33    1
    12    33    34   ar
    13    33    35   ar
    14     2     3   ar
    15     3     4   ar
    16     4     5   ar
    17     5     6   ar
    18     6     7   ar
    19     7     8   ar
    20     8     9   ar
    21     9    10   ar
    22    10    11    1
    23    10    12   ar
    24    12    13   ar
    25    13    14    2
    26    13    15   ar
    27    15    16   ar
    28    16    36    1
    29    36    37    1
    30    37    38    2
    31    38    39    1
    32    38    40    1
    33     9    17    1
    34    17    18    2
    35    18    19    1
    36    19    20    1
    37    19    21    1
    38    19    22    1
    39    16     1   ar
    40    15     4   ar
    41    12     6   ar
    42    22     8    1
    43    11    23    1
@<TRIPOS>MOLECULE
*****
 40 43 0 0 0
SMALL
GASTEIGER

@<TRIPOS>ATOM
      1 C           4.8637   -2.8484   21.0220 C.ar    1  UNL1        0.1690
      2 C           5.7494   -3.5661   21.9970 C.ar    1  UNL1        0.1749
      3 C           5.6606   -3.2537   23.4615 C.ar    1  UNL1        0.0776
      4 C           4.6862   -2.2237   23.9509 C.ar    1  UNL1        0.1512
      5 O           4.5974   -1.9114   25.4153 O.2     1  UNL1       -0.4530
      6 C           3.6230   -0.8813   25.9048 C.ar    1  UNL1        0.1543
      7 C           3.5342   -0.5690   27.3692 C.ar    1  UNL1        0.0747
      8 C           2.5598    0.4611   27.8587 C.ar    1  UNL1        0.1445
      9 C           1.6741    1.1788   26.8837 C.ar    1  UNL1        0.0677
     10 C           1.7629    0.8664   25.4193 C.ar    1  UNL1        0.1425
     11 O           0.8773    1.5841   24.4443 O.3     1  UNL1       -0.5052
     12 C           2.7373   -0.1636   24.9298 C.ar    1  UNL1        0.1073
     13 C           2.8261   -0.4760   23.4653 C.ar    1  UNL1        0.2042
     14 O           1.9405    0.2417   22.4904 O.2     1  UNL1       -0.2863
     15 C           3.8005   -1.5060   22.9759 C.ar    1  UNL1        0.0731
     16 C           3.8893   -1.8183   21.5115 C.ar    1  UNL1        0.0252
     17 C           0.6997    2.2088   27.3732 C.2     1  UNL1        0.0049
     18 C           0.6110    2.5211   28.8376 C.2     1  UNL1        0.0130
     19 C           1.4966    1.8034   29.8125 C.3     1  UNL1        0.1517
     20 C           2.1188    1.3941   31.1146 C.3     1  UNL1        0.0483
     21 C           0.7383    2.6913   30.7541 C.3     1  UNL1        0.0483
     22 O           2.4710    0.7734   29.3231 O.3     1  UNL1       -0.4783
     23 H           0.2686    2.2275   24.7500 H       1  UNL1        0.2922
     24 C           4.2605   -4.3717   19.0058 C.3     1  UNL1        0.2526
     25 O           4.9525   -3.1607   19.5576 O.3     1  UNL1       -0.4687
     26 O           6.7238   -4.5961   21.5076 O.3     1  UNL1       -0.4723
     27 C           8.1515   -4.2151   21.2495 C.3     1  UNL1        0.2056
     28 C           8.4903   -3.3079   20.1041 C.3     1  UNL1        0.0473
     29 C           8.7860   -1.8592   20.3568 C.3     1  UNL1        0.0038
     30 C           7.6606   -0.8770   20.4947 C.3     1  UNL1        0.0005
     31 C           7.2444   -0.0434   19.3191 C.3     1  UNL1        0.0059
     32 C           6.8857   -0.7037   18.0209 C.3     1  UNL1        0.0417
     33 C           5.9059   -0.0496   17.0924 C.2     1  UNL1        0.0503
     34 O           6.1631    1.3393   16.5877 O.co2   1  UNL1       -0.5492
     35 O           4.6688   -0.7846   16.6685 O.co2   1  UNL1       -0.5492
     36 C           3.0037   -1.1006   20.5365 C.3     1  UNL1        0.0550
     37 C           3.5045    0.1235   19.8289 C.2     1  UNL1       -0.0298
     38 C           2.5627    0.9525   19.0068 C.2     1  UNL1       -0.0475
     39 C           3.0634    2.1766   18.2991 C.3     1  UNL1        0.0260
     40 C           1.1202    0.5574   18.8923 C.3     1  UNL1        0.0260
@<TRIPOS>UNITY_ATOM_ATTR
34 1
charge -1
@<TRIPOS>BOND
     1    24    25    1
     2    25     1    1
     3     1     2   ar
     4     2    26    1
     5    26    27    1
     6    27    28    1
     7    28    29    1
     8    29    30    1
     9    30    31    1
    10    31    32    1
    11    32    33    1
    12    33    34   ar
    13    33    35   ar
    14     2     3   ar
    15     3     4   ar
    16     4     5   ar
    17     5     6   ar
    18     6     7   ar
    19     7     8   ar
    20     8     9   ar
    21     9    10   ar
    22    10    11    1
    23    10    12   ar
    24    12    13   ar
    25    13    14    2
    26    13    15   ar
    27    15    16   ar
    28    16    36    1
    29    36    37    1
    30    37    38    2
    31    38    39    1
    32    38    40    1
    33     9    17    1
    34    17    18    2
    35    18    19    1
    36    19    20    1
    37    19    21    1
    38    19    22    1
    39    16     1   ar
    40    15     4   ar
    41    12     6   ar
    42    22     8    1
    43    11    23    1
@<TRIPOS>MOLECULE
*****
 40 43 0 0 0
SMALL
GASTEIGER

@<TRIPOS>ATOM
      1 C           6.9205   -4.2876   23.3560 C.ar    1  UNL1        0.1690
      2 C           7.6645   -4.7155   24.5862 C.ar    1  UNL1        0.1749
      3 C           7.2971   -4.1415   25.9225 C.ar    1  UNL1        0.0776
      4 C           6.1858   -3.1397   26.0286 C.ar    1  UNL1        0.1512
      5 O           5.8185   -2.5658   27.3649 O.2     1  UNL1       -0.4530
      6 C           4.7072   -1.5639   27.4710 C.ar    1  UNL1        0.1543
      7 C           4.3399   -0.9900   28.8073 C.ar    1  UNL1        0.0747
      8 C           3.2285    0.0119   28.9134 C.ar    1  UNL1        0.1445
      9 C           2.4845    0.4398   27.6832 C.ar    1  UNL1        0.0677
     10 C           2.8518   -0.1342   26.3469 C.ar    1  UNL1        0.1425
     11 O           2.1078    0.2937   25.1167 O.3     1  UNL1       -0.5052
     12 C           3.9632   -1.1360   26.2408 C.ar    1  UNL1        0.1073
     13 C           4.3305   -1.7100   24.9045 C.ar    1  UNL1        0.2042
     14 O           3.5865   -1.2821   23.6743 O.2     1  UNL1       -0.2863
     15 C           5.4418   -2.7118   24.7984 C.ar    1  UNL1        0.0731
     16 C           5.8091   -3.2857   23.4622 C.ar    1  UNL1        0.0252
     17 C           1.3732    1.4416   27.7893 C.2     1  UNL1        0.0049
     18 C           1.0059    2.0155   29.1256 C.2     1  UNL1        0.0130
     19 C           1.7499    1.5876   30.3558 C.3     1  UNL1        0.1517
     20 C           2.1570    1.4967   31.7966 C.3     1  UNL1        0.0483
     21 C           0.7799    2.5579   30.9622 C.3     1  UNL1        0.0483
     22 O           2.8612    0.5858   30.2497 O.3     1  UNL1       -0.4783
     23 H           1.4136    0.9196   25.1830 H       1  UNL1        0.2922
     24 C           8.5403   -4.4105   21.3285 C.3     1  UNL1        0.2526
     25 O           7.2878   -4.8615   22.0198 O.3     1  UNL1       -0.4687
     26 O           8.7758   -5.7173   24.4801 O.3     1  UNL1       -0.4723
     27 C           8.4682   -7.1850   24.5132 C.3     1  UNL1        0.2056
     28 C           8.1793   -7.8615   25.8205 C.3     1  UNL1        0.0473
     29 C           9.3089   -8.3547   26.6754 C.3     1  UNL1        0.0038
     30 C           9.0946   -9.5101   27.6078 C.3     1  UNL1        0.0005
     31 C           7.7394  -10.1437   27.7179 C.3     1  UNL1        0.0059
     32 C           7.6106  -11.5622   28.1881 C.3     1  UNL1        0.0417
     33 C           6.2555  -12.1958   28.2979 C.2     1  UNL1        0.0503
     34 O           5.0937  -11.6168   27.5464 O.co2   1  UNL1       -0.5492
     35 O           6.0622  -13.4086   29.1592 O.co2   1  UNL1       -0.5492
     36 C           5.0651   -2.8578   22.2320 C.3     1  UNL1        0.0550
     37 C           4.4307   -3.8864   21.3434 C.2     1  UNL1       -0.0298
     38 C           3.8582   -3.4815   20.0174 C.2     1  UNL1       -0.0475
     39 C           3.2238   -4.5100   19.1288 C.3     1  UNL1        0.0260
     40 C           3.9200   -2.0480   19.5800 C.3     1  UNL1        0.0260
@<TRIPOS>UNITY_ATOM_ATTR
34 1
charge -1
@<TRIPOS>BOND
     1    24    25    1
     2    25     1    1
     3     1     2   ar
     4     2    26    1
     5    26    27    1
     6    27    28    1
     7    28    29    1
     8    29    30    1
     9    30    31    1
    10    31    32    1
    11    32    33    1
    12    33    34   ar
    13    33    35   ar
    14     2     3   ar
    15     3     4   ar
    16     4     5   ar
    17     5     6   ar
    18     6     7   ar
    19     7     8   ar
    20     8     9   ar
    21     9    10   ar
    22    10    11    1
    23    10    12   ar
    24    12    13   ar
    25    13    14    2
    26    13    15   ar
    27    15    16   ar
    28    16    36    1
    29    36    37    1
    30    37    38    2
    31    38    39    1
    32    38    40    1
    33     9    17    1
    34    17    18    2
    35    18    19    1
    36    19    20    1
    37    19    21    1
    38    19    22    1
    39    16     1   ar
    40    15     4   ar
    41    12     6   ar
    42    22     8    1
    43    11    23    1
@<TRIPOS>MOLECULE
*****
 40 43 0 0 0
SMALL
GASTEIGER

@<TRIPOS>ATOM
      1 C          -0.5834    2.7161   24.0505 C.ar    1  UNL1        0.1690
      2 C           0.5055    2.2948   23.1088 C.ar    1  UNL1        0.1749
      3 C           1.6961    1.5438   23.6269 C.ar    1  UNL1        0.0776
      4 C           1.7979    1.2142   25.0867 C.ar    1  UNL1        0.1512
      5 O           2.9886    0.4633   25.6047 O.2     1  UNL1       -0.4530
      6 C           3.0904    0.1336   27.0646 C.ar    1  UNL1        0.1543
      7 C           4.2810   -0.6173   27.5826 C.ar    1  UNL1        0.0747
      8 C           4.3828   -0.9470   29.0424 C.ar    1  UNL1        0.1445
      9 C           3.2939   -0.5257   29.9842 C.ar    1  UNL1        0.0677
     10 C           2.1033    0.2253   29.4660 C.ar    1  UNL1        0.1425
     11 O           1.0144    0.6466   30.4078 O.3     1  UNL1       -0.5052
     12 C           2.0015    0.5549   28.0063 C.ar    1  UNL1        0.1073
     13 C           0.8108    1.3059   27.4882 C.ar    1  UNL1        0.2042
     14 O          -0.2781    1.7272   28.4299 O.2     1  UNL1       -0.2863
     15 C           0.7090    1.6355   26.0284 C.ar    1  UNL1        0.0731
     16 C          -0.4816    2.3865   25.5104 C.ar    1  UNL1        0.0252
     17 C           3.3957   -0.8553   31.4439 C.2     1  UNL1        0.0049
     18 C           4.5864   -1.6062   31.9620 C.2     1  UNL1        0.0130
     19 C           5.6752   -2.0275   31.0202 C.3     1  UNL1        0.1517
     20 C           6.9537   -2.6368   30.5260 C.3     1  UNL1        0.0483
     21 C           6.2210   -2.5687   32.3084 C.3     1  UNL1        0.0483
     22 O           5.5735   -1.6979   29.5605 O.3     1  UNL1       -0.4783
     23 H           1.0780    0.4407   31.3196 H       1  UNL1        0.2922
     24 C          -1.6694    4.9366   23.2506 C.3     1  UNL1        0.2526
     25 O          -1.7741    3.4670   23.5325 O.3     1  UNL1       -0.4687
     26 O           0.4037    2.6244   21.6490 O.3     1  UNL1       -0.4723
     27 C          -0.1154    1.6007   20.6834 C.3     1  UNL1        0.2056
     28 C           0.6279    1.3261   19.4098 C.3     1  UNL1        0.0473
     29 C           1.4370    0.0709   19.2693 C.3     1  UNL1        0.0038
     30 C           1.6096   -0.8456   20.4442 C.3     1  UNL1        0.0005
     31 C           2.9748   -1.0759   21.0214 C.3     1  UNL1        0.0059
     32 C           3.7576   -2.2950   20.6326 C.3     1  UNL1        0.0417
     33 C           3.6494   -2.8433   19.2407 C.2     1  UNL1        0.0503
     34 O           4.1245   -2.0283   18.0745 O.co2   1  UNL1       -0.5492
     35 O           3.0662   -4.2068   19.0149 O.co2   1  UNL1       -0.5492
     36 C          -1.5705    2.8078   26.4521 C.3     1  UNL1        0.0550
     37 C          -1.7064    4.2491   26.8447 C.2     1  UNL1       -0.0298
     38 C          -3.0575    4.9006   26.8508 C.2     1  UNL1       -0.0475
     39 C          -3.1935    6.3419   27.2434 C.3     1  UNL1        0.0260
     40 C          -4.2728    4.1107   26.4642 C.3     1  UNL1        0.0260
@<TRIPOS>UNITY_ATOM_ATTR
34 1
charge -1
@<TRIPOS>BOND
     1    24    25    1
     2    25     1    1
     3     1     2   ar
     4     2    26    1
     5    26    27    1
     6    27    28    1
     7    28    29    1
     8    29    30    1
     9    30    31    1
    10    31    32    1
    11    32    33    1
    12    33    34   ar
    13    33    35   ar
    14     2     3   ar
    15     3     4   ar
    16     4     5   ar
    17     5     6   ar
    18     6     7   ar
    19     7     8   ar
    20     8     9   ar
    21     9    10   ar
    22    10    11    1
    23    10    12   ar
    24    12    13   ar
    25    13    14    2
    26    13    15   ar
    27    15    16   ar
    28    16    36    1
    29    36    37    1
    30    37    38    2
    31    38    39    1
    32    38    40    1
    33     9    17    1
    34    17    18    2
    35    18    19    1
    36    19    20    1
    37    19    21    1
    38    19    22    1
    39    16     1   ar
    40    15     4   ar
    41    12     6   ar
    42    22     8    1
    43    11    23    1
