@<TRIPOS>MOLECULE
*****
 40 44 0 0 0
SMALL
GASTEIGER

@<TRIPOS>ATOM
      1 C           6.7333   -3.8184   31.3807 C.2     1  UNL1        0.2535
      2 O           7.3950   -5.0729   31.8692 O.2     1  UNL1       -0.2695
      3 N           6.5737   -3.5790   29.9085 N.am    1  UNL1       -0.2550
      4 C           5.8991   -2.2946   29.5275 C.3     1  UNL1        0.1045
      5 C           5.5941   -1.7696   28.1558 C.3     1  UNL1        0.0929
      6 C           5.8883   -2.3993   26.8265 C.3     1  UNL1        0.2845
      7 F           5.2137   -1.1149   26.4455 F       1  UNL1       -0.1995
      8 F           5.8823   -2.4574   25.3277 F       1  UNL1       -0.1995
      9 C           6.5602   -3.7095   26.5407 C.2     1  UNL1        0.0435
     10 C           6.7080   -4.0623   25.0902 C.2     1  UNL1        0.0587
     11 C           7.1039   -4.7137   27.5133 C.ar    1  UNL1        0.0149
     12 C           7.6989   -5.8952   26.8062 C.ar    1  UNL1        0.0011
     13 C           8.3000   -7.0185   27.5979 C.ar    1  UNL1        0.0001
     14 C           8.3060   -6.9604   29.0967 C.ar    1  UNL1        0.0013
     15 C           7.7110   -5.7789   29.8039 C.ar    1  UNL1        0.0149
     16 C           7.1099   -4.6556   29.0122 C.ar    1  UNL1        0.0539
     17 C           5.2269   -0.7735   34.3318 C.ar    1  UNL1        0.0837
     18 C           4.3338   -1.8942   33.8886 C.ar    1  UNL1        0.0193
     19 C           4.8359   -2.9091   32.9049 C.ar    1  UNL1        0.0069
     20 C           6.2311   -2.8034   32.3644 C.ar    1  UNL1        0.0645
     21 C           7.1243   -1.6828   32.8077 C.ar    1  UNL1        0.0635
     22 CL          8.5195   -1.5771   32.2672 Cl      1  UNL1       -0.0820
     23 C           6.6221   -0.6679   33.7914 C.ar    1  UNL1        0.0307
     24 C           4.1257    1.7207   38.8536 C.3     1  UNL1        0.0540
     25 C           4.2185    1.3880   37.3940 C.ar    1  UNL1        0.0809
     26 C           3.6855    2.2188   36.2646 C.ar    1  UNL1        0.0371
     27 C           3.9983    1.5102   34.9800 C.ar    1  UNL1        0.1016
     28 N           4.7247    0.2415   35.3155 N.ar    1  UNL1       -0.2285
     29 N           4.8609    0.1659   36.8074 N.ar    1  UNL1       -0.1694
     30 C           6.1977   -3.1263   24.0349 C.2     1  UNL1        0.2461
     31 O           7.1110   -2.0946   23.4423 O.2     1  UNL1       -0.2701
     32 N           4.7740   -3.2222   23.5723 N.am    1  UNL1       -0.2957
     33 H           4.1746   -3.8993   23.9613 H       1  UNL1        0.1501
     34 C           4.2638   -2.2862   22.5171 C.3     1  UNL1        0.1360
     35 C           4.5747   -2.5437   21.0724 C.ar    1  UNL1        0.0788
     36 C           4.3901   -3.9174   20.4988 C.ar    1  UNL1        0.0165
     37 C           4.7010   -4.1749   19.0541 C.ar    1  UNL1        0.0029
     38 C           5.1964   -3.0587   18.1830 C.ar    1  UNL1        0.0207
     39 C           5.3809   -1.6852   18.7566 C.ar    1  UNL1        0.0985
     40 N           5.0701   -1.4276   20.2012 N.ar    1  UNL1       -0.2464
@<TRIPOS>BOND
     1    24    25    1
     2    25    26   ar
     3    26    27   ar
     4    27    28   ar
     5    28    17    1
     6    17    18   ar
     7    18    19   ar
     8    19    20   ar
     9    20     1    1
    10     1     2    2
    11     1     3   am
    12     3     4    1
    13     4     5    1
    14     5     6    1
    15     6     7    1
    16     6     8    1
    17     6     9    1
    18     9    10    2
    19    10    30    1
    20    30    31    2
    21    30    32   am
    22    32    34    1
    23    34    35    1
    24    35    36   ar
    25    36    37   ar
    26    37    38   ar
    27    38    39   ar
    28    39    40   ar
    29     9    11    1
    30    11    12   ar
    31    12    13   ar
    32    13    14   ar
    33    14    15   ar
    34    15    16   ar
    35    20    21   ar
    36    21    22    1
    37    21    23   ar
    38    28    29   ar
    39    29    25   ar
    40    23    17   ar
    41    16     3    1
    42    40    35   ar
    43    16    11   ar
    44    32    33    1
@<TRIPOS>MOLECULE
*****
 40 44 0 0 0
SMALL
GASTEIGER

@<TRIPOS>ATOM
      1 C           6.7099   -4.4654   24.0583 C.2     1  UNL1        0.2535
      2 O           7.2888   -5.7878   23.6503 O.2     1  UNL1       -0.2695
      3 N           6.6445   -4.0909   25.5094 N.am    1  UNL1       -0.2550
      4 C           6.0479   -2.7475   25.8085 C.3     1  UNL1        0.1045
      5 C           5.8438   -2.0908   27.1415 C.3     1  UNL1        0.0929
      6 C           6.1860   -2.6150   28.5047 C.3     1  UNL1        0.2845
      7 F           5.5893   -1.2717   28.8038 F       1  UNL1       -0.1995
      8 F           6.2626   -2.5415   30.0009 F       1  UNL1       -0.1995
      9 C           6.8168   -3.9256   28.8713 C.2     1  UNL1        0.0435
     10 C           7.0316   -4.1568   30.3377 C.2     1  UNL1        0.0587
     11 C           7.2612   -5.0357   27.9655 C.ar    1  UNL1        0.0149
     12 C           7.8446   -6.1776   28.7436 C.ar    1  UNL1        0.0011
     13 C           8.3514   -7.3931   28.0255 C.ar    1  UNL1        0.0001
     14 C           8.2748   -7.4666   26.5293 C.ar    1  UNL1        0.0013
     15 C           7.6913   -6.3247   25.7512 C.ar    1  UNL1        0.0149
     16 C           7.1845   -5.1092   26.4693 C.ar    1  UNL1        0.0539
     17 C           5.1691   -1.6223   20.9290 C.ar    1  UNL1        0.0837
     18 C           4.2444   -2.6270   21.5500 C.ar    1  UNL1        0.0193
     19 C           4.7581   -3.5746   22.5931 C.ar    1  UNL1        0.0069
     20 C           6.1963   -3.5177   23.0152 C.ar    1  UNL1        0.0645
     21 C           7.1209   -2.5130   22.3942 C.ar    1  UNL1        0.0635
     22 CL          8.5592   -2.4561   22.8164 Cl      1  UNL1       -0.0820
     23 C           6.6073   -1.5653   21.3511 C.ar    1  UNL1        0.0307
     24 C           4.2404    2.7789   18.1636 C.3     1  UNL1        0.0540
     25 C           4.2286    1.3484   18.6147 C.ar    1  UNL1        0.0809
     26 C           3.5017    0.2192   17.9467 C.ar    1  UNL1        0.0371
     27 C           3.7655   -1.0311   18.7323 C.ar    1  UNL1        0.1016
     28 N           4.6555   -0.6745   19.8859 N.ar    1  UNL1       -0.2285
     29 N           4.9417    0.7960   19.8133 N.ar    1  UNL1       -0.1694
     30 C           6.6223   -3.1091   31.3301 C.2     1  UNL1        0.2461
     31 O           7.3903   -1.8241   31.4239 O.2     1  UNL1       -0.2701
     32 N           5.4448   -3.3463   32.2286 N.am    1  UNL1       -0.2957
     33 H           4.9406   -4.1897   32.1671 H       1  UNL1        0.1501
     34 C           5.0356   -2.2985   33.2209 C.3     1  UNL1        0.1360
     35 C           4.1804   -1.1459   32.7848 C.ar    1  UNL1        0.0788
     36 C           3.5337   -1.1617   31.4314 C.ar    1  UNL1        0.0165
     37 C           2.6786   -0.0091   30.9952 C.ar    1  UNL1        0.0029
     38 C           2.4702    1.1594   31.9125 C.ar    1  UNL1        0.0207
     39 C           3.1169    1.1752   33.2657 C.ar    1  UNL1        0.0985
     40 N           3.9720    0.0226   33.7019 N.ar    1  UNL1       -0.2464
@<TRIPOS>BOND
     1    24    25    1
     2    25    26   ar
     3    26    27   ar
     4    27    28   ar
     5    28    17    1
     6    17    18   ar
     7    18    19   ar
     8    19    20   ar
     9    20     1    1
    10     1     2    2
    11     1     3   am
    12     3     4    1
    13     4     5    1
    14     5     6    1
    15     6     7    1
    16     6     8    1
    17     6     9    1
    18     9    10    2
    19    10    30    1
    20    30    31    2
    21    30    32   am
    22    32    34    1
    23    34    35    1
    24    35    36   ar
    25    36    37   ar
    26    37    38   ar
    27    38    39   ar
    28    39    40   ar
    29     9    11    1
    30    11    12   ar
    31    12    13   ar
    32    13    14   ar
    33    14    15   ar
    34    15    16   ar
    35    20    21   ar
    36    21    22    1
    37    21    23   ar
    38    28    29   ar
    39    29    25   ar
    40    23    17   ar
    41    16     3    1
    42    40    35   ar
    43    16    11   ar
    44    32    33    1
@<TRIPOS>MOLECULE
*****
 40 44 0 0 0
SMALL
GASTEIGER

@<TRIPOS>ATOM
      1 C           0.7305    1.7709   24.1711 C.2     1  UNL1        0.2535
      2 O          -0.1861    2.5860   23.3076 O.2     1  UNL1       -0.2695
      3 N           1.6025    0.7177   23.5543 N.am    1  UNL1       -0.2550
      4 C           2.4807   -0.0394   24.5059 C.3     1  UNL1        0.1045
      5 C           3.4542   -1.1403   24.2057 C.3     1  UNL1        0.0929
      6 C           3.7901   -1.7561   22.8797 C.3     1  UNL1        0.2845
      7 F           4.6683   -2.5131   23.8314 F       1  UNL1       -0.1995
      8 F           4.5167   -2.7088   21.9773 F       1  UNL1       -0.1995
      9 C           3.2352   -1.4229   21.5266 C.2     1  UNL1        0.0435
     10 C           3.7801   -2.2273   20.3837 C.2     1  UNL1        0.0587
     11 C           2.2075   -0.3918   21.1650 C.ar    1  UNL1        0.0149
     12 C           1.9344   -0.3839   19.6902 C.ar    1  UNL1        0.0011
     13 C           0.9346    0.5766   19.1177 C.ar    1  UNL1        0.0001
     14 C           0.2079    1.5293   20.0202 C.ar    1  UNL1        0.0013
     15 C           0.4811    1.5214   21.4950 C.ar    1  UNL1        0.0149
     16 C           1.4809    0.5609   22.0675 C.ar    1  UNL1        0.0539
     17 C           0.8640    2.4852   28.6120 C.ar    1  UNL1        0.0837
     18 C          -0.1788    1.5780   28.0293 C.ar    1  UNL1        0.0193
     19 C          -0.2233    1.3399   26.5490 C.ar    1  UNL1        0.0069
     20 C           0.7750    2.0090   25.6514 C.ar    1  UNL1        0.0645
     21 C           1.8178    2.9162   26.2341 C.ar    1  UNL1        0.0635
     22 CL          2.8161    3.5853   25.3365 Cl      1  UNL1       -0.0820
     23 C           1.8622    3.1543   27.7144 C.ar    1  UNL1        0.0307
     24 C           0.4278    4.7889   33.3432 C.3     1  UNL1        0.0540
     25 C           0.7080    3.7822   32.2671 C.ar    1  UNL1        0.0809
     26 C           1.2460    2.3973   32.4736 C.ar    1  UNL1        0.0371
     27 C           1.3699    1.7429   31.1296 C.ar    1  UNL1        0.1016
     28 N           0.9085    2.7234   30.0924 N.ar    1  UNL1       -0.2285
     29 N           0.4994    3.9837   30.7953 N.ar    1  UNL1       -0.1694
     30 C           4.8131   -3.2852   20.6364 C.2     1  UNL1        0.2461
     31 O           4.3881   -4.6920   20.9361 O.2     1  UNL1       -0.2701
     32 N           6.2712   -2.9361   20.5893 N.am    1  UNL1       -0.2957
     33 H           6.5502   -2.0127   20.3925 H       1  UNL1        0.1501
     34 C           7.3041   -3.9940   20.8419 C.3     1  UNL1        0.1360
     35 C           7.6338   -4.3996   22.2479 C.ar    1  UNL1        0.0788
     36 C           7.6073   -3.3805   23.3483 C.ar    1  UNL1        0.0165
     37 C           7.9370   -3.7861   24.7543 C.ar    1  UNL1        0.0029
     38 C           8.2931   -5.2109   25.0599 C.ar    1  UNL1        0.0207
     39 C           8.3196   -6.2299   23.9596 C.ar    1  UNL1        0.0985
     40 N           7.9900   -5.8243   22.5536 N.ar    1  UNL1       -0.2464
@<TRIPOS>BOND
     1    24    25    1
     2    25    26   ar
     3    26    27   ar
     4    27    28   ar
     5    28    17    1
     6    17    18   ar
     7    18    19   ar
     8    19    20   ar
     9    20     1    1
    10     1     2    2
    11     1     3   am
    12     3     4    1
    13     4     5    1
    14     5     6    1
    15     6     7    1
    16     6     8    1
    17     6     9    1
    18     9    10    2
    19    10    30    1
    20    30    31    2
    21    30    32   am
    22    32    34    1
    23    34    35    1
    24    35    36   ar
    25    36    37   ar
    26    37    38   ar
    27    38    39   ar
    28    39    40   ar
    29     9    11    1
    30    11    12   ar
    31    12    13   ar
    32    13    14   ar
    33    14    15   ar
    34    15    16   ar
    35    20    21   ar
    36    21    22    1
    37    21    23   ar
    38    28    29   ar
    39    29    25   ar
    40    23    17   ar
    41    16     3    1
    42    40    35   ar
    43    16    11   ar
    44    32    33    1
@<TRIPOS>MOLECULE
*****
 40 44 0 0 0
SMALL
GASTEIGER

@<TRIPOS>ATOM
      1 C          -0.4044    2.3328   26.6671 C.2     1  UNL1        0.2535
      2 O          -1.7264    3.0132   26.8660 O.2     1  UNL1       -0.2695
      3 N           0.1506    2.1619   25.2840 N.am    1  UNL1       -0.2550
      4 C           1.4780    1.4688   25.1965 C.3     1  UNL1        0.1045
      5 C           2.2874    1.1493   23.9747 C.3     1  UNL1        0.0929
      6 C           1.9693    1.4440   22.5387 C.3     1  UNL1        0.2845
      7 F           3.2967    0.7509   22.4512 F       1  UNL1       -0.1995
      8 F           2.2420    1.4302   21.0637 F       1  UNL1       -0.1995
      9 C           0.7632    2.1309   21.9699 C.2     1  UNL1        0.0435
     10 C           0.7399    2.2749   20.4770 C.2     1  UNL1        0.0587
     11 C          -0.4227    2.6928   22.6965 C.ar    1  UNL1        0.0149
     12 C          -1.4115    3.2988   21.7453 C.ar    1  UNL1        0.0011
     13 C          -2.6731    3.9186   22.2691 C.ar    1  UNL1        0.0001
     14 C          -2.9457    3.9324   23.7440 C.ar    1  UNL1        0.0013
     15 C          -1.9569    3.3264   24.6952 C.ar    1  UNL1        0.0149
     16 C          -0.6953    2.7066   24.1715 C.ar    1  UNL1        0.0539
     17 C           1.8966    0.8045   30.2195 C.ar    1  UNL1        0.0837
     18 C           1.0614   -0.1382   29.4048 C.ar    1  UNL1        0.0193
     19 C           0.2944    0.3713   28.2207 C.ar    1  UNL1        0.0069
     20 C           0.3626    1.8234   27.8513 C.ar    1  UNL1        0.0645
     21 C           1.1978    2.7661   28.6659 C.ar    1  UNL1        0.0635
     22 CL          1.2660    4.2183   28.2964 Cl      1  UNL1       -0.0820
     23 C           1.9648    2.2567   29.8501 C.ar    1  UNL1        0.0307
     24 C           4.6116   -2.3569   33.4622 C.3     1  UNL1        0.0540
     25 C           3.9116   -1.1580   32.8942 C.ar    1  UNL1        0.0809
     26 C           3.7762    0.1805   33.5576 C.ar    1  UNL1        0.0371
     27 C           3.0049    1.0785   32.6365 C.ar    1  UNL1        0.1016
     28 N           2.6636    0.2951   31.4037 N.ar    1  UNL1       -0.2285
     29 N           3.2239   -1.0871   31.5630 N.ar    1  UNL1       -0.1694
     30 C           1.8779    1.7468   19.6547 C.2     1  UNL1        0.2461
     31 O           3.2216    2.4099   19.7202 O.2     1  UNL1       -0.2701
     32 N           1.6719    0.5554   18.7669 N.am    1  UNL1       -0.2957
     33 H           0.7899    0.1201   18.7238 H       1  UNL1        0.1501
     34 C           2.8099    0.0273   17.9446 C.3     1  UNL1        0.1360
     35 C           3.6029   -1.1498   18.4300 C.ar    1  UNL1        0.0788
     36 C           3.2549   -1.8017   19.7354 C.ar    1  UNL1        0.0165
     37 C           4.0479   -2.9788   20.2208 C.ar    1  UNL1        0.0029
     38 C           5.1890   -3.5039   19.4009 C.ar    1  UNL1        0.0207
     39 C           5.5371   -2.8520   18.0957 C.ar    1  UNL1        0.0985
     40 N           4.7441   -1.6750   17.6102 N.ar    1  UNL1       -0.2464
@<TRIPOS>BOND
     1    24    25    1
     2    25    26   ar
     3    26    27   ar
     4    27    28   ar
     5    28    17    1
     6    17    18   ar
     7    18    19   ar
     8    19    20   ar
     9    20     1    1
    10     1     2    2
    11     1     3   am
    12     3     4    1
    13     4     5    1
    14     5     6    1
    15     6     7    1
    16     6     8    1
    17     6     9    1
    18     9    10    2
    19    10    30    1
    20    30    31    2
    21    30    32   am
    22    32    34    1
    23    34    35    1
    24    35    36   ar
    25    36    37   ar
    26    37    38   ar
    27    38    39   ar
    28    39    40   ar
    29     9    11    1
    30    11    12   ar
    31    12    13   ar
    32    13    14   ar
    33    14    15   ar
    34    15    16   ar
    35    20    21   ar
    36    21    22    1
    37    21    23   ar
    38    28    29   ar
    39    29    25   ar
    40    23    17   ar
    41    16     3    1
    42    40    35   ar
    43    16    11   ar
    44    32    33    1
@<TRIPOS>MOLECULE
*****
 40 44 0 0 0
SMALL
GASTEIGER

@<TRIPOS>ATOM
      1 C           6.9894   -4.3954   22.5316 C.2     1  UNL1        0.2535
      2 O           7.6824   -5.4294   21.6944 O.2     1  UNL1       -0.2695
      3 N           7.0707   -4.4642   24.0278 N.am    1  UNL1       -0.2550
      4 C           6.3428   -3.3826   24.7695 C.3     1  UNL1        0.1045
      5 C           6.2336   -3.1752   26.2511 C.3     1  UNL1        0.0929
      6 C           6.8253   -3.9982   27.3569 C.3     1  UNL1        0.2845
      7 F           6.0973   -2.9165   28.0986 F       1  UNL1       -0.1995
      8 F           7.0930   -4.3398   28.7927 F       1  UNL1       -0.1995
      9 C           7.6723   -5.2318   27.2540 C.2     1  UNL1        0.0435
     10 C           8.1131   -5.8291   28.5575 C.2     1  UNL1        0.0587
     11 C           8.1370   -5.9472   26.0202 C.ar    1  UNL1        0.0149
     12 C           8.9703   -7.1463   26.3630 C.ar    1  UNL1        0.0011
     13 C           9.5360   -8.0038   25.2700 C.ar    1  UNL1        0.0001
     14 C           9.2682   -7.6622   23.8341 C.ar    1  UNL1        0.0013
     15 C           8.4348   -6.4631   23.4913 C.ar    1  UNL1        0.0149
     16 C           7.8692   -5.6056   24.5843 C.ar    1  UNL1        0.0539
     17 C           4.6667   -1.0871   20.5542 C.ar    1  UNL1        0.0837
     18 C           3.9937   -2.3892   20.8731 C.ar    1  UNL1        0.0193
     19 C           4.7680   -3.4919   21.5322 C.ar    1  UNL1        0.0069
     20 C           6.2152   -3.2926   21.8724 C.ar    1  UNL1        0.0645
     21 C           6.8882   -1.9906   21.5535 C.ar    1  UNL1        0.0635
     22 CL          8.3355   -1.7913   21.8938 Cl      1  UNL1       -0.0820
     23 C           6.1139   -0.8878   20.8944 C.ar    1  UNL1        0.0307
     24 C           0.6786    1.9202   18.8419 C.3     1  UNL1        0.0540
     25 C           2.0593    1.3980   19.1080 C.ar    1  UNL1        0.0809
     26 C           3.3428    2.0274   18.6536 C.ar    1  UNL1        0.0371
     27 C           4.4757    1.1731   19.1400 C.ar    1  UNL1        0.1016
     28 N           3.8925    0.0157   19.8951 N.ar    1  UNL1       -0.2285
     29 N           2.3991    0.1547   19.8753 N.ar    1  UNL1       -0.1694
     30 C           7.7031   -5.1910   29.8516 C.2     1  UNL1        0.2461
     31 O           6.5359   -5.7362   30.6199 O.2     1  UNL1       -0.2701
     32 N           8.4603   -4.0077   30.3774 N.am    1  UNL1       -0.2957
     33 H           9.2264   -3.6498   29.8731 H       1  UNL1        0.1501
     34 C           8.0503   -3.3697   31.6715 C.3     1  UNL1        0.1360
     35 C           6.7277   -2.6698   31.7767 C.ar    1  UNL1        0.0788
     36 C           6.4307   -1.4916   30.8971 C.ar    1  UNL1        0.0165
     37 C           5.1081   -0.7917   31.0022 C.ar    1  UNL1        0.0029
     38 C           4.0826   -1.2700   31.9869 C.ar    1  UNL1        0.0207
     39 C           4.3796   -2.4482   32.8664 C.ar    1  UNL1        0.0985
     40 N           5.7021   -3.1481   32.7613 N.ar    1  UNL1       -0.2464
@<TRIPOS>BOND
     1    24    25    1
     2    25    26   ar
     3    26    27   ar
     4    27    28   ar
     5    28    17    1
     6    17    18   ar
     7    18    19   ar
     8    19    20   ar
     9    20     1    1
    10     1     2    2
    11     1     3   am
    12     3     4    1
    13     4     5    1
    14     5     6    1
    15     6     7    1
    16     6     8    1
    17     6     9    1
    18     9    10    2
    19    10    30    1
    20    30    31    2
    21    30    32   am
    22    32    34    1
    23    34    35    1
    24    35    36   ar
    25    36    37   ar
    26    37    38   ar
    27    38    39   ar
    28    39    40   ar
    29     9    11    1
    30    11    12   ar
    31    12    13   ar
    32    13    14   ar
    33    14    15   ar
    34    15    16   ar
    35    20    21   ar
    36    21    22    1
    37    21    23   ar
    38    28    29   ar
    39    29    25   ar
    40    23    17   ar
    41    16     3    1
    42    40    35   ar
    43    16    11   ar
    44    32    33    1
@<TRIPOS>MOLECULE
*****
 40 44 0 0 0
SMALL
GASTEIGER

@<TRIPOS>ATOM
      1 C           0.8305    1.7522   25.4452 C.2     1  UNL1        0.2535
      2 O          -0.2241    2.7988   25.2391 O.2     1  UNL1       -0.2695
      3 N           1.3868    1.0060   24.2689 N.am    1  UNL1       -0.2550
      4 C           2.4359   -0.0184   24.5850 C.3     1  UNL1        0.1045
      5 C           3.1778   -0.9189   23.6422 C.3     1  UNL1        0.0929
      6 C           3.0536   -1.0175   22.1505 C.3     1  UNL1        0.2845
      7 F           4.1028   -2.0419   22.4666 F       1  UNL1       -0.1995
      8 F           3.3964   -1.5719   20.7996 F       1  UNL1       -0.1995
      9 C           2.1570   -0.2398   21.2334 C.2     1  UNL1        0.0435
     10 C           2.2691   -0.5747   19.7755 C.2     1  UNL1        0.0587
     11 C           1.1631    0.8285   21.5811 C.ar    1  UNL1        0.0149
     12 C           0.4703    1.3516   20.3579 C.ar    1  UNL1        0.0011
     13 C          -0.5653    2.4292   20.4856 C.ar    1  UNL1        0.0001
     14 C          -0.9081    2.9836   21.8366 C.ar    1  UNL1        0.0013
     15 C          -0.2153    2.4605   23.0598 C.ar    1  UNL1        0.0149
     16 C           0.8203    1.3829   22.9321 C.ar    1  UNL1        0.0539
     17 C           2.3256    0.8511   29.5929 C.ar    1  UNL1        0.0837
     18 C           1.0573    0.2204   29.0993 C.ar    1  UNL1        0.0193
     19 C           0.5590    0.5208   27.7168 C.ar    1  UNL1        0.0069
     20 C           1.3289    1.4518   26.8278 C.ar    1  UNL1        0.0645
     21 C           2.5972    2.0825   27.3214 C.ar    1  UNL1        0.0635
     22 CL          3.3672    3.0135   26.4324 Cl      1  UNL1       -0.0820
     23 C           3.0955    1.7821   28.7039 C.ar    1  UNL1        0.0307
     24 C           4.3850   -1.6674   33.7518 C.3     1  UNL1        0.0540
     25 C           3.7706   -0.6069   32.8871 C.ar    1  UNL1        0.0809
     26 C           3.4111    0.7839   33.3188 C.ar    1  UNL1        0.0371
     27 C           2.8260    1.4993   32.1373 C.ar    1  UNL1        0.1016
     28 N           2.8239    0.5507   30.9754 N.ar    1  UNL1       -0.2285
     29 N           3.4077   -0.7510   31.4388 N.ar    1  UNL1       -0.1694
     30 C           3.2338   -1.6293   19.3202 C.2     1  UNL1        0.2461
     31 O           2.9959   -3.0670   19.6755 O.2     1  UNL1       -0.2701
     32 N           4.4365   -1.2461   18.5097 N.am    1  UNL1       -0.2957
     33 H           4.5927   -0.3024   18.2766 H       1  UNL1        0.1501
     34 C           5.4011   -2.3007   18.0545 C.3     1  UNL1        0.1360
     35 C           6.6110   -2.6181   18.8825 C.ar    1  UNL1        0.0788
     36 C           6.4648   -3.3959   20.1567 C.ar    1  UNL1        0.0165
     37 C           7.6747   -3.7133   20.9847 C.ar    1  UNL1        0.0029
     38 C           9.0307   -3.2529   20.5383 C.ar    1  UNL1        0.0207
     39 C           9.1769   -2.4751   19.2642 C.ar    1  UNL1        0.0985
     40 N           7.9671   -2.1577   18.4362 N.ar    1  UNL1       -0.2464
@<TRIPOS>BOND
     1    24    25    1
     2    25    26   ar
     3    26    27   ar
     4    27    28   ar
     5    28    17    1
     6    17    18   ar
     7    18    19   ar
     8    19    20   ar
     9    20     1    1
    10     1     2    2
    11     1     3   am
    12     3     4    1
    13     4     5    1
    14     5     6    1
    15     6     7    1
    16     6     8    1
    17     6     9    1
    18     9    10    2
    19    10    30    1
    20    30    31    2
    21    30    32   am
    22    32    34    1
    23    34    35    1
    24    35    36   ar
    25    36    37   ar
    26    37    38   ar
    27    38    39   ar
    28    39    40   ar
    29     9    11    1
    30    11    12   ar
    31    12    13   ar
    32    13    14   ar
    33    14    15   ar
    34    15    16   ar
    35    20    21   ar
    36    21    22    1
    37    21    23   ar
    38    28    29   ar
    39    29    25   ar
    40    23    17   ar
    41    16     3    1
    42    40    35   ar
    43    16    11   ar
    44    32    33    1
@<TRIPOS>MOLECULE
*****
 40 44 0 0 0
SMALL
GASTEIGER

@<TRIPOS>ATOM
      1 C           3.0608   -0.1273   25.8941 C.2     1  UNL1        0.2535
      2 O           4.0233   -1.1595   25.3857 O.2     1  UNL1       -0.2695
      3 N           2.1310    0.5648   24.9420 N.am    1  UNL1       -0.2550
      4 C           1.2101    1.5788   25.5532 C.3     1  UNL1        0.1045
      5 C           0.1757    2.4298   24.8779 C.3     1  UNL1        0.0929
      6 C          -0.1930    2.4770   23.4247 C.3     1  UNL1        0.2845
      7 F          -1.1140    3.4910   24.0359 F       1  UNL1       -0.1995
      8 F          -0.9717    2.9755   22.2435 F       1  UNL1       -0.1995
      9 C           0.3815    1.6848   22.2879 C.2     1  UNL1        0.0435
     10 C          -0.2069    1.9646   20.9368 C.2     1  UNL1        0.0587
     11 C           1.4666    0.6498   22.3234 C.ar    1  UNL1        0.0149
     12 C           1.7415    0.0968   20.9565 C.ar    1  UNL1        0.0011
     13 C           2.7950   -0.9547   20.7708 C.ar    1  UNL1        0.0001
     14 C           3.5736   -1.4531   21.9520 C.ar    1  UNL1        0.0013
     15 C           3.2987   -0.9001   23.3189 C.ar    1  UNL1        0.0149
     16 C           2.2452    0.1513   23.5047 C.ar    1  UNL1        0.0539
     17 C           2.9629    0.8927   30.2759 C.ar    1  UNL1        0.0837
     18 C           2.1522   -0.2569   29.7552 C.ar    1  UNL1        0.0193
     19 C           2.1849   -0.5968   28.2946 C.ar    1  UNL1        0.0069
     20 C           3.0282    0.2127   27.3548 C.ar    1  UNL1        0.0645
     21 C           3.8389    1.3623   27.8755 C.ar    1  UNL1        0.0635
     22 CL          4.6823    2.1719   26.9356 Cl      1  UNL1       -0.0820
     23 C           3.8063    1.7022   29.3361 C.ar    1  UNL1        0.0307
     24 C           4.1691    1.0975   35.4125 C.3     1  UNL1        0.0540
     25 C           3.4847    1.3269   34.0976 C.ar    1  UNL1        0.0809
     26 C           2.2755    2.1850   33.8708 C.ar    1  UNL1        0.0371
     27 C           1.9329    2.1268   32.4116 C.ar    1  UNL1        0.1016
     28 N           2.9303    1.2327   31.7366 N.ar    1  UNL1       -0.2285
     29 N           3.8894    0.7383   32.7785 N.ar    1  UNL1       -0.1694
     30 C          -1.2988    2.9827   20.7905 C.2     1  UNL1        0.2461
     31 O          -0.9694    4.4457   20.8236 O.2     1  UNL1       -0.2701
     32 N          -2.7200    2.5378   20.6111 N.am    1  UNL1       -0.2957
     33 H          -2.9362    1.5776   20.5894 H       1  UNL1        0.1501
     34 C          -3.8118    3.5559   20.4648 C.3     1  UNL1        0.1360
     35 C          -4.7316    3.8398   21.6152 C.ar    1  UNL1        0.0788
     36 C          -4.2941    3.5367   23.0177 C.ar    1  UNL1        0.0165
     37 C          -5.2139    3.8206   24.1681 C.ar    1  UNL1        0.0029
     38 C          -6.5712    4.4075   23.9161 C.ar    1  UNL1        0.0207
     39 C          -7.0086    4.7105   22.5137 C.ar    1  UNL1        0.0985
     40 N          -6.0889    4.4267   21.3633 N.ar    1  UNL1       -0.2464
@<TRIPOS>BOND
     1    24    25    1
     2    25    26   ar
     3    26    27   ar
     4    27    28   ar
     5    28    17    1
     6    17    18   ar
     7    18    19   ar
     8    19    20   ar
     9    20     1    1
    10     1     2    2
    11     1     3   am
    12     3     4    1
    13     4     5    1
    14     5     6    1
    15     6     7    1
    16     6     8    1
    17     6     9    1
    18     9    10    2
    19    10    30    1
    20    30    31    2
    21    30    32   am
    22    32    34    1
    23    34    35    1
    24    35    36   ar
    25    36    37   ar
    26    37    38   ar
    27    38    39   ar
    28    39    40   ar
    29     9    11    1
    30    11    12   ar
    31    12    13   ar
    32    13    14   ar
    33    14    15   ar
    34    15    16   ar
    35    20    21   ar
    36    21    22    1
    37    21    23   ar
    38    28    29   ar
    39    29    25   ar
    40    23    17   ar
    41    16     3    1
    42    40    35   ar
    43    16    11   ar
    44    32    33    1
@<TRIPOS>MOLECULE
*****
 40 44 0 0 0
SMALL
GASTEIGER

@<TRIPOS>ATOM
      1 C           1.4172    0.9727   23.3588 C.2     1  UNL1        0.2535
      2 O           0.8730    0.9188   21.9620 O.2     1  UNL1       -0.2695
      3 N           2.5242    0.0471   23.7687 N.am    1  UNL1       -0.2550
      4 C           2.9948    0.1832   25.1864 C.3     1  UNL1        0.1045
      5 C           4.0716   -0.5865   25.8922 C.3     1  UNL1        0.0929
      6 C           4.9437   -1.6822   25.3547 C.3     1  UNL1        0.2845
      7 F           5.4143   -1.5462   26.7724 F       1  UNL1       -0.1995
      8 F           6.0252   -2.7174   25.4480 F       1  UNL1       -0.1995
      9 C           4.9543   -2.2788   23.9785 C.2     1  UNL1        0.0435
     10 C           5.9562   -3.3716   23.7506 C.2     1  UNL1        0.0587
     11 C           4.0955   -1.9272   22.7999 C.ar    1  UNL1        0.0149
     12 C           4.4320   -2.7702   21.6057 C.ar    1  UNL1        0.0011
     13 C           3.6869   -2.5780   20.3182 C.ar    1  UNL1        0.0001
     14 C           2.6054   -1.5428   20.2248 C.ar    1  UNL1        0.0013
     15 C           2.2689   -0.6998   21.4190 C.ar    1  UNL1        0.0149
     16 C           3.0140   -0.8920   22.7066 C.ar    1  UNL1        0.0539
     17 C          -0.2708    3.9113   26.3194 C.ar    1  UNL1        0.0837
     18 C          -0.7919    2.5053   26.2778 C.ar    1  UNL1        0.0193
     19 C          -0.2291    1.5259   25.2910 C.ar    1  UNL1        0.0069
     20 C           0.8545    1.9523   24.3457 C.ar    1  UNL1        0.0645
     21 C           1.3756    3.3583   24.3872 C.ar    1  UNL1        0.0635
     22 CL          2.4593    3.7847   23.4418 Cl      1  UNL1       -0.0820
     23 C           0.8128    4.3378   25.3741 C.ar    1  UNL1        0.0307
     24 C          -0.8613    6.9591   30.5906 C.3     1  UNL1        0.0540
     25 C          -1.1050    6.2918   29.2695 C.ar    1  UNL1        0.0809
     26 C          -2.2940    6.5046   28.3802 C.ar    1  UNL1        0.0371
     27 C          -2.1262    5.6388   27.1668 C.ar    1  UNL1        0.1016
     28 N          -0.8336    4.8909   27.3062 N.ar    1  UNL1       -0.2285
     29 N          -0.2024    5.2944   28.6057 N.ar    1  UNL1       -0.1694
     30 C           6.8648   -3.8003   24.8645 C.2     1  UNL1        0.2461
     31 O           8.1678   -3.0907   25.0847 O.2     1  UNL1       -0.2701
     32 N           6.4703   -4.9386   25.7582 N.am    1  UNL1       -0.2957
     33 H           5.6151   -5.4044   25.6137 H       1  UNL1        0.1501
     34 C           7.3790   -5.3672   26.8721 C.3     1  UNL1        0.1360
     35 C           7.1198   -4.8993   28.2735 C.ar    1  UNL1        0.0788
     36 C           6.8385   -3.4503   28.5404 C.ar    1  UNL1        0.0165
     37 C           6.5793   -2.9824   29.9418 C.ar    1  UNL1        0.0029
     38 C           6.6014   -3.9635   31.0763 C.ar    1  UNL1        0.0207
     39 C           6.8827   -5.4124   30.8094 C.ar    1  UNL1        0.0985
     40 N           7.1419   -5.8804   29.4080 N.ar    1  UNL1       -0.2464
@<TRIPOS>BOND
     1    24    25    1
     2    25    26   ar
     3    26    27   ar
     4    27    28   ar
     5    28    17    1
     6    17    18   ar
     7    18    19   ar
     8    19    20   ar
     9    20     1    1
    10     1     2    2
    11     1     3   am
    12     3     4    1
    13     4     5    1
    14     5     6    1
    15     6     7    1
    16     6     8    1
    17     6     9    1
    18     9    10    2
    19    10    30    1
    20    30    31    2
    21    30    32   am
    22    32    34    1
    23    34    35    1
    24    35    36   ar
    25    36    37   ar
    26    37    38   ar
    27    38    39   ar
    28    39    40   ar
    29     9    11    1
    30    11    12   ar
    31    12    13   ar
    32    13    14   ar
    33    14    15   ar
    34    15    16   ar
    35    20    21   ar
    36    21    22    1
    37    21    23   ar
    38    28    29   ar
    39    29    25   ar
    40    23    17   ar
    41    16     3    1
    42    40    35   ar
    43    16    11   ar
    44    32    33    1
@<TRIPOS>MOLECULE
*****
 40 44 0 0 0
SMALL
GASTEIGER

@<TRIPOS>ATOM
      1 C           3.1370   -0.1740   19.8412 C.2     1  UNL1        0.2535
      2 O           2.9899    0.1265   18.3789 O.2     1  UNL1       -0.2695
      3 N           2.2601    0.5194   20.8413 N.am    1  UNL1       -0.2550
      4 C           2.4890    0.1470   22.2762 C.3     1  UNL1        0.1045
      5 C           1.7844    0.6567   23.4985 C.3     1  UNL1        0.0929
      6 C           0.6772    1.6647   23.5878 C.3     1  UNL1        0.2845
      7 F           0.9060    1.2923   25.0226 F       1  UNL1       -0.1995
      8 F          -0.3283    2.5070   24.3156 F       1  UNL1       -0.1995
      9 C           0.0010    2.4119   22.4767 C.2     1  UNL1        0.0435
     10 C          -1.0826    3.3608   22.8957 C.2     1  UNL1        0.0587
     11 C           0.2649    2.3357   21.0021 C.ar    1  UNL1        0.0149
     12 C          -0.6398    3.2541   20.2352 C.ar    1  UNL1        0.0011
     13 C          -0.5390    3.3302   18.7406 C.ar    1  UNL1        0.0001
     14 C           0.4664    2.4880   18.0128 C.ar    1  UNL1        0.0013
     15 C           1.3711    1.5696   18.7796 C.ar    1  UNL1        0.0149
     16 C           1.2703    1.4935   20.2742 C.ar    1  UNL1        0.0539
     17 C           6.2094   -3.1553   21.2275 C.ar    1  UNL1        0.0837
     18 C           4.8366   -3.6186   20.8392 C.ar    1  UNL1        0.0193
     19 C           3.8125   -2.6248   20.3771 C.ar    1  UNL1        0.0069
     20 C           4.1612   -1.1678   20.3033 C.ar    1  UNL1        0.0645
     21 C           5.5340   -0.7045   20.6916 C.ar    1  UNL1        0.0635
     22 CL          5.8827    0.7525   20.6178 Cl      1  UNL1       -0.0820
     23 C           6.5581   -1.6984   21.1537 C.ar    1  UNL1        0.0307
     24 C           8.6722   -6.8975   24.0223 C.3     1  UNL1        0.0540
     25 C           8.3657   -5.8693   22.9742 C.ar    1  UNL1        0.0809
     26 C           9.2535   -5.4877   21.8270 C.ar    1  UNL1        0.0371
     27 C           8.5538   -4.4246   21.0331 C.ar    1  UNL1        0.1016
     28 N           7.2336   -4.1492   21.6896 N.ar    1  UNL1       -0.2285
     29 N           7.1172   -5.0420   22.8892 N.ar    1  UNL1       -0.1694
     30 C          -1.4262    3.5128   24.3479 C.2     1  UNL1        0.2461
     31 O          -2.7794    3.0995   24.8456 O.2     1  UNL1       -0.2701
     32 N          -0.4165    4.0780   25.3024 N.am    1  UNL1       -0.2957
     33 H           0.4717    4.3493   24.9758 H       1  UNL1        0.1501
     34 C          -0.7602    4.2300   26.7546 C.3     1  UNL1        0.1360
     35 C          -0.3704    3.1621   27.7332 C.ar    1  UNL1        0.0788
     36 C          -0.9492    1.7837   27.6092 C.ar    1  UNL1        0.0165
     37 C          -0.5595    0.7158   28.5878 C.ar    1  UNL1        0.0029
     38 C           0.4091    1.0262   29.6904 C.ar    1  UNL1        0.0207
     39 C           0.9878    2.4044   29.8144 C.ar    1  UNL1        0.0985
     40 N           0.5981    3.4724   28.8358 N.ar    1  UNL1       -0.2464
@<TRIPOS>BOND
     1    24    25    1
     2    25    26   ar
     3    26    27   ar
     4    27    28   ar
     5    28    17    1
     6    17    18   ar
     7    18    19   ar
     8    19    20   ar
     9    20     1    1
    10     1     2    2
    11     1     3   am
    12     3     4    1
    13     4     5    1
    14     5     6    1
    15     6     7    1
    16     6     8    1
    17     6     9    1
    18     9    10    2
    19    10    30    1
    20    30    31    2
    21    30    32   am
    22    32    34    1
    23    34    35    1
    24    35    36   ar
    25    36    37   ar
    26    37    38   ar
    27    38    39   ar
    28    39    40   ar
    29     9    11    1
    30    11    12   ar
    31    12    13   ar
    32    13    14   ar
    33    14    15   ar
    34    15    16   ar
    35    20    21   ar
    36    21    22    1
    37    21    23   ar
    38    28    29   ar
    39    29    25   ar
    40    23    17   ar
    41    16     3    1
    42    40    35   ar
    43    16    11   ar
    44    32    33    1
