@<TRIPOS>MOLECULE
*****
 28 30 0 0 0
SMALL
GASTEIGER

@<TRIPOS>ATOM
      1 C          -8.8607  -15.7810   24.4918 C.3     1  UNL1        0.0719
      2 C          -8.3834  -17.0377   23.8262 C.ar    1  UNL1        0.1229
      3 N          -7.1154  -17.0270   23.0249 N.ar    1  UNL1       -0.2322
      4 C          -6.6381  -18.2837   22.3593 C.ar    1  UNL1        0.0872
      5 C          -5.3701  -18.2730   21.5581 C.ar    1  UNL1        0.0193
      6 C          -4.8929  -19.5297   20.8925 C.ar    1  UNL1        0.0016
      7 C          -5.6837  -20.7970   21.0282 C.ar    1  UNL1        0.0003
      8 C          -6.9517  -20.8077   21.8294 C.ar    1  UNL1        0.0063
      9 C          -7.4289  -19.5511   22.4950 C.ar    1  UNL1        0.0738
     10 C          -8.6970  -19.5617   23.2962 C.ar    1  UNL1        0.2631
     11 O          -9.4878  -20.8291   23.4319 O.2     1  UNL1       -0.2669
     12 N          -9.1742  -18.3051   23.9618 N.ar    1  UNL1       -0.2837
     13 C          -3.6249  -19.5190   20.0913 C.2     1  UNL1        0.0048
     14 C          -2.9271  -18.2216   19.8088 C.2     1  UNL1        0.0598
     15 C          -1.6590  -18.2110   19.0075 C.2     1  UNL1        0.2679
     16 O          -0.3737  -18.6678   19.6315 O.2     1  UNL1       -0.2681
     17 N          -1.6762  -17.7435   17.5824 N.am    1  UNL1       -0.1934
     18 O          -0.4082  -17.7328   16.7812 O.3     1  UNL1       -0.2949
     19 H          -2.5198  -17.4436   17.1729 H       1  UNL1        0.1825
     20 H           0.3236  -18.0559   17.3298 H       1  UNL1        0.2414
     21 C         -10.4423  -18.3157   24.7631 C.3     1  UNL1        0.1148
     22 C         -11.7687  -18.2204   24.0692 C.3     1  UNL1        0.0510
     23 C         -11.8344  -17.7971   22.6317 C.ar    1  UNL1       -0.0202
     24 C         -12.2611  -16.4030   22.2790 C.ar    1  UNL1       -0.0042
     25 C         -12.3268  -15.9798   20.8415 C.ar    1  UNL1       -0.0003
     26 C         -11.9658  -16.9507   19.7565 C.ar    1  UNL1       -0.0000
     27 C         -11.5392  -18.3448   20.1092 C.ar    1  UNL1       -0.0003
     28 C         -11.4735  -18.7680   21.5468 C.ar    1  UNL1       -0.0042
@<TRIPOS>BOND
     1     1     2    1
     2     2     3   ar
     3     3     4   ar
     4     4     5   ar
     5     5     6   ar
     6     6    13    1
     7    13    14    2
     8    14    15    1
     9    15    16    2
    10    15    17   am
    11    17    18    1
    12     6     7   ar
    13     7     8   ar
    14     8     9   ar
    15     9    10   ar
    16    10    11    2
    17    10    12   ar
    18    12    21    1
    19    21    22    1
    20    22    23    1
    21    23    24   ar
    22    24    25   ar
    23    25    26   ar
    24    26    27   ar
    25    27    28   ar
    26    12     2   ar
    27    28    23   ar
    28     9     4   ar
    29    17    19    1
    30    18    20    1
@<TRIPOS>MOLECULE
*****
 28 30 0 0 0
SMALL
GASTEIGER

@<TRIPOS>ATOM
      1 C          -5.4535  -15.0250   25.7498 C.3     1  UNL1        0.0719
      2 C          -6.2446  -15.8902   24.8139 C.ar    1  UNL1        0.1229
      3 N          -7.7195  -16.0667   25.0217 N.ar    1  UNL1       -0.2322
      4 C          -8.5106  -16.9319   24.0858 C.ar    1  UNL1        0.0872
      5 C          -9.9856  -17.1084   24.2935 C.ar    1  UNL1        0.0193
      6 C         -10.7765  -17.9735   23.3576 C.ar    1  UNL1        0.0016
      7 C         -10.0924  -18.6622   22.2140 C.ar    1  UNL1        0.0003
      8 C          -8.6175  -18.4857   22.0063 C.ar    1  UNL1        0.0063
      9 C          -7.8265  -17.6205   22.9421 C.ar    1  UNL1        0.0738
     10 C          -6.3514  -17.4440   22.7344 C.ar    1  UNL1        0.2631
     11 O          -5.6674  -18.1326   21.5908 O.2     1  UNL1       -0.2669
     12 N          -5.5605  -16.5788   23.6703 N.ar    1  UNL1       -0.2837
     13 C         -12.2516  -18.1501   23.5654 C.2     1  UNL1        0.0048
     14 C         -12.7862  -18.4433   24.9358 C.2     1  UNL1        0.0598
     15 C         -14.2613  -18.6199   25.1435 C.2     1  UNL1        0.2679
     16 O         -14.7954  -18.9181   26.5131 O.2     1  UNL1       -0.2681
     17 N         -15.2021  -18.4982   23.9817 N.am    1  UNL1       -0.1934
     18 O         -16.6771  -18.6747   24.1894 O.3     1  UNL1       -0.2949
     19 H         -14.8516  -18.3024   23.0828 H       1  UNL1        0.1825
     20 H         -16.8518  -18.8606   25.1253 H       1  UNL1        0.2414
     21 C          -4.0854  -16.4023   23.4626 C.3     1  UNL1        0.1148
     22 C          -3.2058  -17.6024   23.2730 C.3     1  UNL1        0.0510
     23 C          -2.3727  -17.7332   22.0325 C.ar    1  UNL1       -0.0202
     24 C          -1.6234  -16.5463   21.5037 C.ar    1  UNL1       -0.0042
     25 C          -0.7903  -16.6771   20.2632 C.ar    1  UNL1       -0.0003
     26 C          -0.7065  -17.9949   19.5515 C.ar    1  UNL1       -0.0000
     27 C          -1.4559  -19.1819   20.0803 C.ar    1  UNL1       -0.0003
     28 C          -2.2890  -19.0510   21.3209 C.ar    1  UNL1       -0.0042
@<TRIPOS>BOND
     1     1     2    1
     2     2     3   ar
     3     3     4   ar
     4     4     5   ar
     5     5     6   ar
     6     6    13    1
     7    13    14    2
     8    14    15    1
     9    15    16    2
    10    15    17   am
    11    17    18    1
    12     6     7   ar
    13     7     8   ar
    14     8     9   ar
    15     9    10   ar
    16    10    11    2
    17    10    12   ar
    18    12    21    1
    19    21    22    1
    20    22    23    1
    21    23    24   ar
    22    24    25   ar
    23    25    26   ar
    24    26    27   ar
    25    27    28   ar
    26    12     2   ar
    27    28    23   ar
    28     9     4   ar
    29    17    19    1
    30    18    20    1
@<TRIPOS>MOLECULE
*****
 28 30 0 0 0
SMALL
GASTEIGER

@<TRIPOS>ATOM
      1 C           4.0860   -0.5881   23.1320 C.3     1  UNL1        0.0719
      2 C           4.9684   -1.7983   23.2147 C.ar    1  UNL1        0.1229
      3 N           5.3333   -2.3705   24.5524 N.ar    1  UNL1       -0.2322
      4 C           6.2157   -3.5807   24.6351 C.ar    1  UNL1        0.0872
      5 C           6.5806   -4.1529   25.9728 C.ar    1  UNL1        0.0193
      6 C           7.4630   -5.3631   26.0554 C.ar    1  UNL1        0.0016
      7 C           7.9805   -6.0010   24.8003 C.ar    1  UNL1        0.0003
      8 C           7.6157   -5.4288   23.4627 C.ar    1  UNL1        0.0063
      9 C           6.7333   -4.2187   23.3800 C.ar    1  UNL1        0.0738
     10 C           6.3684   -3.6464   22.0423 C.ar    1  UNL1        0.2631
     11 O           6.8860   -4.2844   20.7872 O.2     1  UNL1       -0.2669
     12 N           5.4860   -2.4363   21.9597 N.ar    1  UNL1       -0.2837
     13 C           7.8278   -5.9353   27.3931 C.2     1  UNL1        0.0048
     14 C           7.1751   -5.4096   28.6371 C.2     1  UNL1        0.0598
     15 C           7.5400   -5.9818   29.9748 C.2     1  UNL1        0.2679
     16 O           8.8196   -6.7471   30.1394 O.2     1  UNL1       -0.2681
     17 N           6.6253   -5.7888   31.1479 N.am    1  UNL1       -0.1934
     18 O           6.9902   -6.3611   32.4855 O.3     1  UNL1       -0.2949
     19 H           5.7855   -5.2866   31.0398 H       1  UNL1        0.1825
     20 H           7.8412   -6.8217   32.4188 H       1  UNL1        0.2414
     21 C           5.1211   -1.8640   20.6219 C.3     1  UNL1        0.1148
     22 C           3.7965   -2.1948   20.0008 C.3     1  UNL1        0.0510
     23 C           2.8444   -1.0952   19.6344 C.ar    1  UNL1       -0.0202
     24 C           1.5580   -0.9345   20.3889 C.ar    1  UNL1       -0.0042
     25 C           0.6059    0.1651   20.0225 C.ar    1  UNL1       -0.0003
     26 C           0.9402    1.1042   18.9016 C.ar    1  UNL1       -0.0000
     27 C           2.2266    0.9435   18.1471 C.ar    1  UNL1       -0.0003
     28 C           3.1787   -0.1562   18.5135 C.ar    1  UNL1       -0.0042
@<TRIPOS>BOND
     1     1     2    1
     2     2     3   ar
     3     3     4   ar
     4     4     5   ar
     5     5     6   ar
     6     6    13    1
     7    13    14    2
     8    14    15    1
     9    15    16    2
    10    15    17   am
    11    17    18    1
    12     6     7   ar
    13     7     8   ar
    14     8     9   ar
    15     9    10   ar
    16    10    11    2
    17    10    12   ar
    18    12    21    1
    19    21    22    1
    20    22    23    1
    21    23    24   ar
    22    24    25   ar
    23    25    26   ar
    24    26    27   ar
    25    27    28   ar
    26    12     2   ar
    27    28    23   ar
    28     9     4   ar
    29    17    19    1
    30    18    20    1
@<TRIPOS>MOLECULE
*****
 28 30 0 0 0
SMALL
GASTEIGER

@<TRIPOS>ATOM
      1 C           5.5694   -0.0183   22.1315 C.3     1  UNL1        0.0719
      2 C           6.0623   -1.3746   22.5409 C.ar    1  UNL1        0.1229
      3 N           6.1476   -1.7342   23.9946 N.ar    1  UNL1       -0.2322
      4 C           6.6405   -3.0905   24.4041 C.ar    1  UNL1        0.0872
      5 C           6.7258   -3.4502   25.8578 C.ar    1  UNL1        0.0193
      6 C           7.2187   -4.8064   26.2672 C.ar    1  UNL1        0.0016
      7 C           7.6263   -5.8030   25.2228 C.ar    1  UNL1        0.0003
      8 C           7.5410   -5.4434   23.7691 C.ar    1  UNL1        0.0063
      9 C           7.0481   -4.0871   23.3597 C.ar    1  UNL1        0.0738
     10 C           6.9627   -3.7274   21.9059 C.ar    1  UNL1        0.2631
     11 O           7.3703   -4.7240   20.8616 O.2     1  UNL1       -0.2669
     12 N           6.4699   -2.3712   21.4966 N.ar    1  UNL1       -0.2837
     13 C           7.3040   -5.1661   27.7209 C.2     1  UNL1        0.0048
     14 C           7.1377   -4.1043   28.7673 C.2     1  UNL1        0.0598
     15 C           7.2230   -4.4640   30.2211 C.2     1  UNL1        0.2679
     16 O           7.9753   -3.5786   31.1698 O.2     1  UNL1       -0.2681
     17 N           6.5562   -5.7091   30.7260 N.am    1  UNL1       -0.1934
     18 O           6.6415   -6.0687   32.1797 O.3     1  UNL1       -0.2949
     19 H           6.0624   -6.2902   30.1033 H       1  UNL1        0.1825
     20 H           7.1594   -5.3963   32.6493 H       1  UNL1        0.2414
     21 C           6.3845   -2.0115   20.0428 C.3     1  UNL1        0.1148
     22 C           5.1886   -2.4243   19.2370 C.3     1  UNL1        0.0510
     23 C           3.9739   -1.5453   19.1934 C.ar    1  UNL1       -0.0202
     24 C           3.8479   -0.4922   18.1327 C.ar    1  UNL1       -0.0042
     25 C           2.6332    0.3868   18.0891 C.ar    1  UNL1       -0.0003
     26 C           1.5445    0.2126   19.1063 C.ar    1  UNL1       -0.0000
     27 C           1.6705   -0.8405   20.1669 C.ar    1  UNL1       -0.0003
     28 C           2.8853   -1.7195   20.2105 C.ar    1  UNL1       -0.0042
@<TRIPOS>BOND
     1     1     2    1
     2     2     3   ar
     3     3     4   ar
     4     4     5   ar
     5     5     6   ar
     6     6    13    1
     7    13    14    2
     8    14    15    1
     9    15    16    2
    10    15    17   am
    11    17    18    1
    12     6     7   ar
    13     7     8   ar
    14     8     9   ar
    15     9    10   ar
    16    10    11    2
    17    10    12   ar
    18    12    21    1
    19    21    22    1
    20    22    23    1
    21    23    24   ar
    22    24    25   ar
    23    25    26   ar
    24    26    27   ar
    25    27    28   ar
    26    12     2   ar
    27    28    23   ar
    28     9     4   ar
    29    17    19    1
    30    18    20    1
@<TRIPOS>MOLECULE
*****
 28 30 0 0 0
SMALL
GASTEIGER

@<TRIPOS>ATOM
      1 C           5.4118   -4.1449   19.9395 C.3     1  UNL1        0.0719
      2 C           5.3584   -3.5060   21.2956 C.ar    1  UNL1        0.1229
      3 N           6.0125   -4.1767   22.4670 N.ar    1  UNL1       -0.2322
      4 C           5.9591   -3.5377   23.8231 C.ar    1  UNL1        0.0872
      5 C           6.6133   -4.2084   24.9945 C.ar    1  UNL1        0.0193
      6 C           6.5598   -3.5695   26.3505 C.ar    1  UNL1        0.0016
      7 C           5.8522   -2.2598   26.5351 C.ar    1  UNL1        0.0003
      8 C           5.1981   -1.5891   25.3637 C.ar    1  UNL1        0.0063
      9 C           5.2515   -2.2281   24.0077 C.ar    1  UNL1        0.0738
     10 C           4.5974   -1.5573   22.8362 C.ar    1  UNL1        0.2631
     11 O           3.8898   -0.2477   23.0209 O.2     1  UNL1       -0.2669
     12 N           4.6508   -2.1963   21.4802 N.ar    1  UNL1       -0.2837
     13 C           7.2140   -4.2402   27.5220 C.2     1  UNL1        0.0048
     14 C           6.4189   -5.1617   28.3987 C.2     1  UNL1        0.0598
     15 C           7.0731   -5.8324   29.5701 C.2     1  UNL1        0.2679
     16 O           8.2827   -6.6947   29.3614 O.2     1  UNL1       -0.2681
     17 N           6.5177   -5.6409   30.9503 N.am    1  UNL1       -0.1934
     18 O           7.1719   -6.3116   32.1217 O.3     1  UNL1       -0.2949
     19 H           5.7239   -5.0750   31.0873 H       1  UNL1        0.1825
     20 H           7.9341   -6.8271   31.8148 H       1  UNL1        0.2414
     21 C           3.9966   -1.5256   20.3087 C.3     1  UNL1        0.1148
     22 C           2.5063   -1.5824   20.1481 C.3     1  UNL1        0.0510
     23 C           1.7269   -0.3195   19.9301 C.ar    1  UNL1       -0.0202
     24 C           1.7673    0.3662   18.5966 C.ar    1  UNL1       -0.0042
     25 C           0.9879    1.6290   18.3786 C.ar    1  UNL1       -0.0003
     26 C           0.1678    2.2063   19.4942 C.ar    1  UNL1       -0.0000
     27 C           0.1273    1.5206   20.8277 C.ar    1  UNL1       -0.0003
     28 C           0.9069    0.2577   21.0456 C.ar    1  UNL1       -0.0042
@<TRIPOS>BOND
     1     1     2    1
     2     2     3   ar
     3     3     4   ar
     4     4     5   ar
     5     5     6   ar
     6     6    13    1
     7    13    14    2
     8    14    15    1
     9    15    16    2
    10    15    17   am
    11    17    18    1
    12     6     7   ar
    13     7     8   ar
    14     8     9   ar
    15     9    10   ar
    16    10    11    2
    17    10    12   ar
    18    12    21    1
    19    21    22    1
    20    22    23    1
    21    23    24   ar
    22    24    25   ar
    23    25    26   ar
    24    26    27   ar
    25    27    28   ar
    26    12     2   ar
    27    28    23   ar
    28     9     4   ar
    29    17    19    1
    30    18    20    1
@<TRIPOS>MOLECULE
*****
 28 30 0 0 0
SMALL
GASTEIGER

@<TRIPOS>ATOM
      1 C          -4.6350  -18.5220   22.9250 C.3     1  UNL1        0.0719
      2 C          -5.9626  -18.7447   22.2632 C.ar    1  UNL1        0.1229
      3 N          -7.2295  -18.4014   22.9892 N.ar    1  UNL1       -0.2322
      4 C          -8.5571  -18.6241   22.3274 C.ar    1  UNL1        0.0872
      5 C          -9.8240  -18.2808   23.0533 C.ar    1  UNL1        0.0193
      6 C         -11.1515  -18.5035   22.3915 C.ar    1  UNL1        0.0016
      7 C         -11.2122  -19.0696   21.0038 C.ar    1  UNL1        0.0003
      8 C          -9.9453  -19.4130   20.2778 C.ar    1  UNL1        0.0063
      9 C          -8.6177  -19.1902   20.9396 C.ar    1  UNL1        0.0738
     10 C          -7.3508  -19.5336   20.2137 C.ar    1  UNL1        0.2631
     11 O          -7.4114  -20.0997   18.8259 O.2     1  UNL1       -0.2669
     12 N          -6.0232  -19.3108   20.8755 N.ar    1  UNL1       -0.2837
     13 C         -12.4185  -18.1602   23.1175 C.2     1  UNL1        0.0048
     14 C         -12.7982  -18.9106   24.3595 C.2     1  UNL1        0.0598
     15 C         -14.0651  -18.5672   25.0855 C.2     1  UNL1        0.2679
     16 O         -15.3822  -18.6406   24.3713 O.2     1  UNL1       -0.2681
     17 N         -14.0150  -18.1505   26.5255 N.am    1  UNL1       -0.1934
     18 O         -15.2820  -17.8071   27.2514 O.3     1  UNL1       -0.2949
     19 H         -13.1506  -18.1023   26.9943 H       1  UNL1        0.1825
     20 H         -16.0363  -17.9057   26.6496 H       1  UNL1        0.2414
     21 C          -4.7563  -19.6542   20.1495 C.3     1  UNL1        0.1148
     22 C          -4.1117  -18.6442   19.2471 C.3     1  UNL1        0.0510
     23 C          -2.8168  -18.0005   19.6458 C.ar    1  UNL1       -0.0202
     24 C          -2.7853  -17.0179   20.7787 C.ar    1  UNL1       -0.0042
     25 C          -1.4905  -16.3742   21.1774 C.ar    1  UNL1       -0.0003
     26 C          -0.2271  -16.7131   20.4431 C.ar    1  UNL1       -0.0000
     27 C          -0.2586  -17.6957   19.3102 C.ar    1  UNL1       -0.0003
     28 C          -1.5535  -18.3394   18.9116 C.ar    1  UNL1       -0.0042
@<TRIPOS>BOND
     1     1     2    1
     2     2     3   ar
     3     3     4   ar
     4     4     5   ar
     5     5     6   ar
     6     6    13    1
     7    13    14    2
     8    14    15    1
     9    15    16    2
    10    15    17   am
    11    17    18    1
    12     6     7   ar
    13     7     8   ar
    14     8     9   ar
    15     9    10   ar
    16    10    11    2
    17    10    12   ar
    18    12    21    1
    19    21    22    1
    20    22    23    1
    21    23    24   ar
    22    24    25   ar
    23    25    26   ar
    24    26    27   ar
    25    27    28   ar
    26    12     2   ar
    27    28    23   ar
    28     9     4   ar
    29    17    19    1
    30    18    20    1
@<TRIPOS>MOLECULE
*****
 28 30 0 0 0
SMALL
GASTEIGER

@<TRIPOS>ATOM
      1 C           6.3195   -2.5964   25.9227 C.3     1  UNL1        0.0719
      2 C           5.8812   -2.7085   24.4924 C.ar    1  UNL1        0.1229
      3 N           4.7091   -1.9110   24.0025 N.ar    1  UNL1       -0.2322
      4 C           4.2709   -2.0231   22.5723 C.ar    1  UNL1        0.0872
      5 C           3.0988   -1.2255   22.0824 C.ar    1  UNL1        0.0193
      6 C           2.6605   -1.3377   20.6522 C.ar    1  UNL1        0.0016
      7 C           3.3944   -2.2473   19.7120 C.ar    1  UNL1        0.0003
      8 C           4.5665   -3.0448   20.2020 C.ar    1  UNL1        0.0063
      9 C           5.0047   -2.9327   21.6321 C.ar    1  UNL1        0.0738
     10 C           6.1769   -3.7303   22.1221 C.ar    1  UNL1        0.2631
     11 O           6.9108   -4.6399   21.1819 O.2     1  UNL1       -0.2669
     12 N           6.6151   -3.6182   23.5522 N.ar    1  UNL1       -0.2837
     13 C           1.4884   -0.5401   20.1622 C.2     1  UNL1        0.0048
     14 C           1.3726    0.9143   20.5105 C.2     1  UNL1        0.0598
     15 C           0.2004    1.7118   20.0205 C.2     1  UNL1        0.2679
     16 O           0.1875    2.2412   18.6171 O.2     1  UNL1       -0.2681
     17 N          -0.9588    1.9799   20.9339 N.am    1  UNL1       -0.1934
     18 O          -2.1309    2.7774   20.4439 O.3     1  UNL1       -0.2949
     19 H          -0.9504    1.6325   21.8550 H       1  UNL1        0.1825
     20 H          -1.9800    3.0413   19.5227 H       1  UNL1        0.2414
     21 C           7.7873   -4.4157   24.0423 C.3     1  UNL1        0.1148
     22 C           7.6864   -5.9085   24.1497 C.3     1  UNL1        0.0510
     23 C           8.0055   -6.5903   25.4471 C.ar    1  UNL1       -0.0202
     24 C           8.8320   -7.8420   25.4531 C.ar    1  UNL1       -0.0042
     25 C           9.1511   -8.5238   26.7505 C.ar    1  UNL1       -0.0003
     26 C           8.6435   -7.9539   28.0420 C.ar    1  UNL1       -0.0000
     27 C           7.8170   -6.7022   28.0359 C.ar    1  UNL1       -0.0003
     28 C           7.4980   -6.0204   26.7384 C.ar    1  UNL1       -0.0042
@<TRIPOS>BOND
     1     1     2    1
     2     2     3   ar
     3     3     4   ar
     4     4     5   ar
     5     5     6   ar
     6     6    13    1
     7    13    14    2
     8    14    15    1
     9    15    16    2
    10    15    17   am
    11    17    18    1
    12     6     7   ar
    13     7     8   ar
    14     8     9   ar
    15     9    10   ar
    16    10    11    2
    17    10    12   ar
    18    12    21    1
    19    21    22    1
    20    22    23    1
    21    23    24   ar
    22    24    25   ar
    23    25    26   ar
    24    26    27   ar
    25    27    28   ar
    26    12     2   ar
    27    28    23   ar
    28     9     4   ar
    29    17    19    1
    30    18    20    1
@<TRIPOS>MOLECULE
*****
 28 30 0 0 0
SMALL
GASTEIGER

@<TRIPOS>ATOM
      1 C         -10.6230  -15.4964   22.6918 C.3     1  UNL1        0.0719
      2 C         -10.0196  -16.6022   21.8774 C.ar    1  UNL1        0.1229
      3 N          -8.5701  -16.9506   22.0430 N.ar    1  UNL1       -0.2322
      4 C          -7.9668  -18.0564   21.2285 C.ar    1  UNL1        0.0872
      5 C          -6.5173  -18.4049   21.3942 C.ar    1  UNL1        0.0193
      6 C          -5.9140  -19.5106   20.5797 C.ar    1  UNL1        0.0016
      7 C          -6.7601  -20.2678   19.5996 C.ar    1  UNL1        0.0003
      8 C          -8.2096  -19.9194   19.4340 C.ar    1  UNL1        0.0063
      9 C          -8.8129  -18.8137   20.2484 C.ar    1  UNL1        0.0738
     10 C         -10.2625  -18.4651   20.0828 C.ar    1  UNL1        0.2631
     11 O         -11.1087  -19.2224   19.1027 O.2     1  UNL1       -0.2669
     12 N         -10.8658  -17.3594   20.8973 N.ar    1  UNL1       -0.2837
     13 C          -4.4644  -19.8591   20.7454 C.2     1  UNL1        0.0048
     14 C          -3.4056  -18.9165   20.2551 C.2     1  UNL1        0.0598
     15 C          -1.9560  -19.2650   20.4208 C.2     1  UNL1        0.2679
     16 O          -1.5462  -20.3209   21.4042 O.2     1  UNL1       -0.2681
     17 N          -0.9164  -18.5577   19.6030 N.am    1  UNL1       -0.1934
     18 O           0.5330  -18.9062   19.7686 O.3     1  UNL1       -0.2949
     19 H          -1.1854  -17.8647   18.9575 H       1  UNL1        0.1825
     20 H           0.6238  -19.6020   20.4384 H       1  UNL1        0.2414
     21 C         -12.3154  -17.0109   20.7316 C.3     1  UNL1        0.1148
     22 C         -13.3656  -17.8149   21.4392 C.3     1  UNL1        0.0510
     23 C         -13.1932  -18.1648   22.8875 C.ar    1  UNL1       -0.0202
     24 C         -14.3328  -17.9786   23.8449 C.ar    1  UNL1       -0.0042
     25 C         -14.1604  -18.3285   25.2933 C.ar    1  UNL1       -0.0003
     26 C         -12.8483  -18.8647   25.7843 C.ar    1  UNL1       -0.0000
     27 C         -11.7087  -19.0509   24.8269 C.ar    1  UNL1       -0.0003
     28 C         -11.8812  -18.7009   23.3785 C.ar    1  UNL1       -0.0042
@<TRIPOS>BOND
     1     1     2    1
     2     2     3   ar
     3     3     4   ar
     4     4     5   ar
     5     5     6   ar
     6     6    13    1
     7    13    14    2
     8    14    15    1
     9    15    16    2
    10    15    17   am
    11    17    18    1
    12     6     7   ar
    13     7     8   ar
    14     8     9   ar
    15     9    10   ar
    16    10    11    2
    17    10    12   ar
    18    12    21    1
    19    21    22    1
    20    22    23    1
    21    23    24   ar
    22    24    25   ar
    23    25    26   ar
    24    26    27   ar
    25    27    28   ar
    26    12     2   ar
    27    28    23   ar
    28     9     4   ar
    29    17    19    1
    30    18    20    1
@<TRIPOS>MOLECULE
*****
 28 30 0 0 0
SMALL
GASTEIGER

@<TRIPOS>ATOM
      1 C           8.8933   -2.4190   19.0117 C.3     1  UNL1        0.0719
      2 C           7.4459   -2.3544   19.4003 C.ar    1  UNL1        0.1229
      3 N           6.5521   -1.3137   18.7937 N.ar    1  UNL1       -0.2322
      4 C           5.1047   -1.2492   19.1822 C.ar    1  UNL1        0.0872
      5 C           4.2110   -0.2084   18.5756 C.ar    1  UNL1        0.0193
      6 C           2.7637   -0.1439   18.9642 C.ar    1  UNL1        0.0016
      7 C           2.2101   -1.1202   19.9594 C.ar    1  UNL1        0.0003
      8 C           3.1038   -2.1610   20.5660 C.ar    1  UNL1        0.0063
      9 C           4.5511   -2.2254   20.1774 C.ar    1  UNL1        0.0738
     10 C           5.4449   -3.2662   20.7841 C.ar    1  UNL1        0.2631
     11 O           4.8914   -4.2425   21.7793 O.2     1  UNL1       -0.2669
     12 N           6.8923   -3.3307   20.3955 N.ar    1  UNL1       -0.2837
     13 C           1.8698    0.8969   18.3576 C.2     1  UNL1        0.0048
     14 C           1.8447    2.2859   18.9232 C.2     1  UNL1        0.0598
     15 C           0.9508    3.3267   18.3166 C.2     1  UNL1        0.2679
     16 O           1.2971    4.7804   18.4461 O.2     1  UNL1       -0.2681
     17 N          -0.2892    2.9137   17.5806 N.am    1  UNL1       -0.1934
     18 O          -1.1829    3.9545   16.9740 O.3     1  UNL1       -0.2949
     19 H          -0.5164    1.9596   17.4956 H       1  UNL1        0.1825
     20 H          -0.8172    4.8359   17.1479 H       1  UNL1        0.2414
     21 C           7.7861   -4.3715   21.0021 C.3     1  UNL1        0.1148
     22 C           8.3335   -4.1763   22.3849 C.3     1  UNL1        0.0510
     23 C           8.2267   -5.2788   23.3964 C.ar    1  UNL1       -0.0202
     24 C           7.4694   -5.0557   24.6718 C.ar    1  UNL1       -0.0042
     25 C           7.3626   -6.1581   25.6833 C.ar    1  UNL1       -0.0003
     26 C           8.0130   -7.4838   25.4193 C.ar    1  UNL1       -0.0000
     27 C           8.7703   -7.7069   24.1439 C.ar    1  UNL1       -0.0003
     28 C           8.8771   -6.6044   23.1324 C.ar    1  UNL1       -0.0042
@<TRIPOS>BOND
     1     1     2    1
     2     2     3   ar
     3     3     4   ar
     4     4     5   ar
     5     5     6   ar
     6     6    13    1
     7    13    14    2
     8    14    15    1
     9    15    16    2
    10    15    17   am
    11    17    18    1
    12     6     7   ar
    13     7     8   ar
    14     8     9   ar
    15     9    10   ar
    16    10    11    2
    17    10    12   ar
    18    12    21    1
    19    21    22    1
    20    22    23    1
    21    23    24   ar
    22    24    25   ar
    23    25    26   ar
    24    26    27   ar
    25    27    28   ar
    26    12     2   ar
    27    28    23   ar
    28     9     4   ar
    29    17    19    1
    30    18    20    1
