@<TRIPOS>MOLECULE
*****
 26 29 0 0 0
SMALL
GASTEIGER

@<TRIPOS>ATOM
      1 C           6.5365   -1.1807   18.1114 C.ar    1  UNL1        0.1418
      2 C           5.2810   -1.9276   18.4516 C.ar    1  UNL1        0.0739
      3 C           5.1223   -2.5494   19.8074 C.ar    1  UNL1        0.1471
      4 C           6.2191   -2.4244   20.8229 C.ar    1  UNL1        0.0937
      5 C           6.0604   -3.0463   22.1787 C.ar    1  UNL1        0.2110
      6 C           4.8049   -3.7932   22.5189 C.3     1  UNL1        0.1084
      7 N           7.1573   -2.9213   23.1942 N.ar    1  UNL1       -0.1571
      8 C           8.4129   -2.1744   22.8540 C.ar    1  UNL1        0.2082
      9 C           9.5097   -2.0494   23.8695 C.3     1  UNL1        0.1083
     10 C           8.5716   -1.5525   21.4982 C.ar    1  UNL1        0.0652
     11 C           7.4747   -1.6776   20.4827 C.ar    1  UNL1        0.0169
     12 C           7.6334   -1.0557   19.1269 C.ar    1  UNL1        0.0375
     13 C           6.9986   -3.5431   24.5500 C.ar    1  UNL1        0.2304
     14 C           6.4179   -2.7437   25.6785 C.ar    1  UNL1        0.0697
     15 C           6.2592   -3.3655   27.0343 C.ar    1  UNL1        0.0061
     16 C           6.6812   -4.7869   27.2615 C.ar    1  UNL1        0.0004
     17 C           7.2619   -5.5864   26.1330 C.ar    1  UNL1        0.0057
     18 C           7.6839   -7.0077   26.3602 C.ar    1  UNL1        0.0002
     19 C           8.2647   -7.8073   25.2317 C.ar    1  UNL1        0.0000
     20 C           8.4234   -7.1854   23.8759 C.ar    1  UNL1        0.0002
     21 C           8.0013   -5.7640   23.6487 C.ar    1  UNL1        0.0059
     22 C           7.4206   -4.9645   24.7772 C.ar    1  UNL1        0.0640
     23 C           6.9755    0.9095   16.6321 C.3     1  UNL1        0.2525
     24 O           6.6952   -0.5589   16.7556 O.3     1  UNL1       -0.4713
     25 O           3.8667   -3.2963   20.1476 O.3     1  UNL1       -0.4711
     26 C           3.3135   -4.3091   19.1894 C.3     1  UNL1        0.2525
@<TRIPOS>UNITY_ATOM_ATTR
7 1
charge 1
@<TRIPOS>BOND
     1    23    24    1
     2    24     1    1
     3     1     2   ar
     4     2     3   ar
     5     3    25    1
     6    25    26    1
     7     3     4   ar
     8     4     5   ar
     9     5     6    1
    10     5     7   ar
    11     7    13    1
    12    13    14   ar
    13    14    15   ar
    14    15    16   ar
    15    16    17   ar
    16    17    18   ar
    17    18    19   ar
    18    19    20   ar
    19    20    21   ar
    20    21    22   ar
    21     7     8   ar
    22     8     9    1
    23     8    10   ar
    24    10    11   ar
    25    11    12   ar
    26    12     1   ar
    27    11     4   ar
    28    22    13   ar
    29    22    17   ar
@<TRIPOS>MOLECULE
*****
 26 29 0 0 0
SMALL
GASTEIGER

@<TRIPOS>ATOM
      1 C           0.8142    1.7264   25.5533 C.ar    1  UNL1        0.1418
      2 C           1.9606    0.8932   26.0448 C.ar    1  UNL1        0.0739
      3 C           2.7589    0.0706   25.0772 C.ar    1  UNL1        0.1471
      4 C           2.4108    0.0813   23.6182 C.ar    1  UNL1        0.0937
      5 C           3.2090   -0.7413   22.6507 C.ar    1  UNL1        0.2110
      6 C           4.3554   -1.5746   23.1421 C.3     1  UNL1        0.1084
      7 N           2.8609   -0.7307   21.1917 N.ar    1  UNL1       -0.1571
      8 C           1.7145    0.1026   20.7002 C.ar    1  UNL1        0.2082
      9 C           1.3664    0.1132   19.2412 C.3     1  UNL1        0.1083
     10 C           0.9163    0.9252   21.6677 C.ar    1  UNL1        0.0652
     11 C           1.2644    0.9145   23.1268 C.ar    1  UNL1        0.0169
     12 C           0.4661    1.7371   24.0943 C.ar    1  UNL1        0.0375
     13 C           3.6592   -1.5533   20.2242 C.ar    1  UNL1        0.2304
     14 C           3.2517   -2.9657   19.9261 C.ar    1  UNL1        0.0697
     15 C           4.0500   -3.7883   18.9585 C.ar    1  UNL1        0.0061
     16 C           5.2557   -3.1985   18.2891 C.ar    1  UNL1        0.0004
     17 C           5.6633   -1.7859   18.5872 C.ar    1  UNL1        0.0057
     18 C           6.8690   -1.1961   17.9178 C.ar    1  UNL1        0.0002
     19 C           7.2766    0.2164   18.2159 C.ar    1  UNL1        0.0000
     20 C           6.4783    1.0390   19.1834 C.ar    1  UNL1        0.0002
     21 C           5.2725    0.4491   19.8528 C.ar    1  UNL1        0.0059
     22 C           4.8650   -0.9634   19.5547 C.ar    1  UNL1        0.0640
     23 C          -0.9698    1.8844   27.4354 C.3     1  UNL1        0.2525
     24 O           0.0160    2.5490   26.5209 O.3     1  UNL1       -0.4713
     25 O           3.9053   -0.7626   25.5687 O.3     1  UNL1       -0.4711
     26 C           3.8512   -1.3819   26.9338 C.3     1  UNL1        0.2525
@<TRIPOS>UNITY_ATOM_ATTR
7 1
charge 1
@<TRIPOS>BOND
     1    23    24    1
     2    24     1    1
     3     1     2   ar
     4     2     3   ar
     5     3    25    1
     6    25    26    1
     7     3     4   ar
     8     4     5   ar
     9     5     6    1
    10     5     7   ar
    11     7    13    1
    12    13    14   ar
    13    14    15   ar
    14    15    16   ar
    15    16    17   ar
    16    17    18   ar
    17    18    19   ar
    18    19    20   ar
    19    20    21   ar
    20    21    22   ar
    21     7     8   ar
    22     8     9    1
    23     8    10   ar
    24    10    11   ar
    25    11    12   ar
    26    12     1   ar
    27    11     4   ar
    28    22    13   ar
    29    22    17   ar
@<TRIPOS>MOLECULE
*****
 26 29 0 0 0
SMALL
GASTEIGER

@<TRIPOS>ATOM
      1 C           6.8161   -5.3434   28.3520 C.ar    1  UNL1        0.1418
      2 C           7.4270   -6.3904   27.4685 C.ar    1  UNL1        0.0739
      3 C           7.6532   -6.1051   26.0134 C.ar    1  UNL1        0.1471
      4 C           7.2686   -4.7727   25.4418 C.ar    1  UNL1        0.0937
      5 C           7.4949   -4.4874   23.9866 C.ar    1  UNL1        0.2110
      6 C           8.1058   -5.5344   23.1032 C.3     1  UNL1        0.1084
      7 N           7.1103   -3.1550   23.4150 N.ar    1  UNL1       -0.1571
      8 C           6.4993   -2.1079   24.2985 C.ar    1  UNL1        0.2082
      9 C           6.1147   -0.7756   23.7268 C.3     1  UNL1        0.1083
     10 C           6.2731   -2.3933   25.7536 C.ar    1  UNL1        0.0652
     11 C           6.6577   -3.7257   26.3252 C.ar    1  UNL1        0.0169
     12 C           6.4315   -4.0111   27.7803 C.ar    1  UNL1        0.0375
     13 C           7.3365   -2.8697   21.9599 C.ar    1  UNL1        0.2304
     14 C           8.6223   -2.2419   21.5098 C.ar    1  UNL1        0.0697
     15 C           8.8486   -1.9566   20.0546 C.ar    1  UNL1        0.0061
     16 C           7.7890   -2.2990   19.0496 C.ar    1  UNL1        0.0004
     17 C           6.5032   -2.9268   19.4997 C.ar    1  UNL1        0.0057
     18 C           5.4436   -3.2691   18.4947 C.ar    1  UNL1        0.0002
     19 C           4.1577   -3.8969   18.9448 C.ar    1  UNL1        0.0000
     20 C           3.9315   -4.1823   20.3999 C.ar    1  UNL1        0.0002
     21 C           4.9911   -3.8398   21.4049 C.ar    1  UNL1        0.0059
     22 C           6.2769   -3.2121   20.9548 C.ar    1  UNL1        0.0640
     23 C           6.8970   -4.5793   30.8338 C.3     1  UNL1        0.2525
     24 O           6.5899   -5.6288   29.8071 O.3     1  UNL1       -0.4713
     25 O           8.2642   -7.1522   25.1299 O.3     1  UNL1       -0.4711
     26 C           9.3989   -7.9921   25.6367 C.3     1  UNL1        0.2525
@<TRIPOS>UNITY_ATOM_ATTR
7 1
charge 1
@<TRIPOS>BOND
     1    23    24    1
     2    24     1    1
     3     1     2   ar
     4     2     3   ar
     5     3    25    1
     6    25    26    1
     7     3     4   ar
     8     4     5   ar
     9     5     6    1
    10     5     7   ar
    11     7    13    1
    12    13    14   ar
    13    14    15   ar
    14    15    16   ar
    15    16    17   ar
    16    17    18   ar
    17    18    19   ar
    18    19    20   ar
    19    20    21   ar
    20    21    22   ar
    21     7     8   ar
    22     8     9    1
    23     8    10   ar
    24    10    11   ar
    25    11    12   ar
    26    12     1   ar
    27    11     4   ar
    28    22    13   ar
    29    22    17   ar
@<TRIPOS>MOLECULE
*****
 26 29 0 0 0
SMALL
GASTEIGER

@<TRIPOS>ATOM
      1 C           0.0056    2.4237   23.8768 C.ar    1  UNL1        0.1418
      2 C          -0.2868    2.5578   22.4118 C.ar    1  UNL1        0.0739
      3 C           0.4387    1.6972   21.4203 C.ar    1  UNL1        0.1471
      4 C           1.4567    0.7026   21.8939 C.ar    1  UNL1        0.0937
      5 C           2.1822   -0.1580   20.9024 C.ar    1  UNL1        0.2110
      6 C           1.8898   -0.0239   19.4373 C.3     1  UNL1        0.1084
      7 N           3.2002   -1.1527   21.3760 N.ar    1  UNL1       -0.1571
      8 C           3.4927   -1.2868   22.8411 C.ar    1  UNL1        0.2082
      9 C           4.5106   -2.2815   23.3147 C.3     1  UNL1        0.1083
     10 C           2.7671   -0.4262   23.8326 C.ar    1  UNL1        0.0652
     11 C           1.7491    0.5685   23.3589 C.ar    1  UNL1        0.0169
     12 C           1.0236    1.4290   24.3504 C.ar    1  UNL1        0.0375
     13 C           3.9257   -2.0132   20.3845 C.ar    1  UNL1        0.2304
     14 C           3.3304   -3.3188   19.9474 C.ar    1  UNL1        0.0697
     15 C           4.0560   -4.1794   18.9560 C.ar    1  UNL1        0.0061
     16 C           5.3768   -3.7344   18.4016 C.ar    1  UNL1        0.0004
     17 C           5.9721   -2.4288   18.8387 C.ar    1  UNL1        0.0057
     18 C           7.2930   -1.9838   18.2843 C.ar    1  UNL1        0.0002
     19 C           7.8883   -0.6781   18.7214 C.ar    1  UNL1        0.0000
     20 C           7.1628    0.1824   19.7129 C.ar    1  UNL1        0.0002
     21 C           5.8419   -0.2626   20.2672 C.ar    1  UNL1        0.0059
     22 C           5.2466   -1.5682   19.8301 C.ar    1  UNL1        0.0640
     23 C          -1.1922    2.6984   26.1658 C.3     1  UNL1        0.2525
     24 O          -0.7199    3.2843   24.8683 O.3     1  UNL1       -0.4713
     25 O           0.1462    1.8314   19.9552 O.3     1  UNL1       -0.4711
     26 C          -0.1816    3.1755   19.3758 C.3     1  UNL1        0.2525
@<TRIPOS>UNITY_ATOM_ATTR
7 1
charge 1
@<TRIPOS>BOND
     1    23    24    1
     2    24     1    1
     3     1     2   ar
     4     2     3   ar
     5     3    25    1
     6    25    26    1
     7     3     4   ar
     8     4     5   ar
     9     5     6    1
    10     5     7   ar
    11     7    13    1
    12    13    14   ar
    13    14    15   ar
    14    15    16   ar
    15    16    17   ar
    16    17    18   ar
    17    18    19   ar
    18    19    20   ar
    19    20    21   ar
    20    21    22   ar
    21     7     8   ar
    22     8     9    1
    23     8    10   ar
    24    10    11   ar
    25    11    12   ar
    26    12     1   ar
    27    11     4   ar
    28    22    13   ar
    29    22    17   ar
@<TRIPOS>MOLECULE
*****
 26 29 0 0 0
SMALL
GASTEIGER

@<TRIPOS>ATOM
      1 C           4.4028   -0.8171   27.7894 C.ar    1  UNL1        0.1418
      2 C           5.4669   -1.8604   27.6186 C.ar    1  UNL1        0.0739
      3 C           5.7129   -2.4669   26.2689 C.ar    1  UNL1        0.1471
      4 C           4.8947   -2.0302   25.0901 C.ar    1  UNL1        0.0937
      5 C           5.1406   -2.6367   23.7404 C.ar    1  UNL1        0.2110
      6 C           6.2047   -3.6799   23.5696 C.3     1  UNL1        0.1084
      7 N           4.3224   -2.2000   22.5615 N.ar    1  UNL1       -0.1571
      8 C           3.2581   -1.1567   22.7323 C.ar    1  UNL1        0.2082
      9 C           2.4399   -0.7200   21.5534 C.3     1  UNL1        0.1083
     10 C           3.0122   -0.5502   24.0820 C.ar    1  UNL1        0.0652
     11 C           3.8305   -0.9870   25.2609 C.ar    1  UNL1        0.0169
     12 C           3.5846   -0.3805   26.6106 C.ar    1  UNL1        0.0375
     13 C           4.5683   -2.8065   21.2118 C.ar    1  UNL1        0.2304
     14 C           3.8663   -4.0726   20.8193 C.ar    1  UNL1        0.0697
     15 C           4.1122   -4.6791   19.4696 C.ar    1  UNL1        0.0061
     16 C           5.0602   -4.0196   18.5125 C.ar    1  UNL1        0.0004
     17 C           5.7623   -2.7534   18.9049 C.ar    1  UNL1        0.0057
     18 C           6.7103   -2.0938   17.9478 C.ar    1  UNL1        0.0002
     19 C           7.4124   -0.8277   18.3402 C.ar    1  UNL1        0.0000
     20 C           7.1664   -0.2212   19.6899 C.ar    1  UNL1        0.0002
     21 C           6.2184   -0.8808   20.6471 C.ar    1  UNL1        0.0059
     22 C           5.5164   -2.1469   20.2546 C.ar    1  UNL1        0.0640
     23 C           2.8899   -0.5192   29.8805 C.3     1  UNL1        0.2525
     24 O           4.1569   -0.2106   29.1391 O.3     1  UNL1       -0.4713
     25 O           6.7771   -3.5101   26.0981 O.3     1  UNL1       -0.4711
     26 C           6.8429   -4.6756   27.0401 C.3     1  UNL1        0.2525
@<TRIPOS>UNITY_ATOM_ATTR
7 1
charge 1
@<TRIPOS>BOND
     1    23    24    1
     2    24     1    1
     3     1     2   ar
     4     2     3   ar
     5     3    25    1
     6    25    26    1
     7     3     4   ar
     8     4     5   ar
     9     5     6    1
    10     5     7   ar
    11     7    13    1
    12    13    14   ar
    13    14    15   ar
    14    15    16   ar
    15    16    17   ar
    16    17    18   ar
    17    18    19   ar
    18    19    20   ar
    19    20    21   ar
    20    21    22   ar
    21     7     8   ar
    22     8     9    1
    23     8    10   ar
    24    10    11   ar
    25    11    12   ar
    26    12     1   ar
    27    11     4   ar
    28    22    13   ar
    29    22    17   ar
@<TRIPOS>MOLECULE
*****
 26 29 0 0 0
SMALL
GASTEIGER

@<TRIPOS>ATOM
      1 C         -10.9210   -5.0760   18.8159 C.ar    1  UNL1        0.1418
      2 C         -12.1313   -5.8222   19.2937 C.ar    1  UNL1        0.0739
      3 C         -13.4256   -5.0945   19.5063 C.ar    1  UNL1        0.1471
      4 C         -13.5097   -3.6206   19.2410 C.ar    1  UNL1        0.0937
      5 C         -14.8040   -2.8928   19.4535 C.ar    1  UNL1        0.2110
      6 C         -16.0143   -3.6391   19.9314 C.3     1  UNL1        0.1084
      7 N         -14.8881   -1.4189   19.1882 N.ar    1  UNL1       -0.1571
      8 C         -13.6778   -0.6726   18.7103 C.ar    1  UNL1        0.2082
      9 C         -13.7618    0.8013   18.4450 C.3     1  UNL1        0.1083
     10 C         -12.3835   -1.4003   18.4978 C.ar    1  UNL1        0.0652
     11 C         -12.2994   -2.8743   18.7631 C.ar    1  UNL1        0.0169
     12 C         -11.0051   -3.6020   18.5506 C.ar    1  UNL1        0.0375
     13 C         -16.1824   -0.6912   19.4007 C.ar    1  UNL1        0.2304
     14 C         -16.4226    0.0537   20.6803 C.ar    1  UNL1        0.0697
     15 C         -17.7170    0.7814   20.8929 C.ar    1  UNL1        0.0061
     16 C         -18.7710    0.7642   19.8258 C.ar    1  UNL1        0.0004
     17 C         -18.5308    0.0192   18.5462 C.ar    1  UNL1        0.0057
     18 C         -19.5849    0.0020   17.4792 C.ar    1  UNL1        0.0002
     19 C         -19.3447   -0.7429   16.1995 C.ar    1  UNL1        0.0000
     20 C         -18.0504   -1.4706   15.9870 C.ar    1  UNL1        0.0002
     21 C         -16.9963   -1.4534   17.0541 C.ar    1  UNL1        0.0059
     22 C         -17.2365   -0.7085   18.3336 C.ar    1  UNL1        0.0640
     23 C          -9.5459   -7.2799   18.8566 C.3     1  UNL1        0.2525
     24 O          -9.6267   -5.8037   18.6033 O.3     1  UNL1       -0.4713
     25 O         -14.6359   -5.8408   19.9842 O.3     1  UNL1       -0.4711
     26 C         -15.1050   -7.0598   19.2467 C.3     1  UNL1        0.2525
@<TRIPOS>UNITY_ATOM_ATTR
7 1
charge 1
@<TRIPOS>BOND
     1    23    24    1
     2    24     1    1
     3     1     2   ar
     4     2     3   ar
     5     3    25    1
     6    25    26    1
     7     3     4   ar
     8     4     5   ar
     9     5     6    1
    10     5     7   ar
    11     7    13    1
    12    13    14   ar
    13    14    15   ar
    14    15    16   ar
    15    16    17   ar
    16    17    18   ar
    17    18    19   ar
    18    19    20   ar
    19    20    21   ar
    20    21    22   ar
    21     7     8   ar
    22     8     9    1
    23     8    10   ar
    24    10    11   ar
    25    11    12   ar
    26    12     1   ar
    27    11     4   ar
    28    22    13   ar
    29    22    17   ar
@<TRIPOS>MOLECULE
*****
 26 29 0 0 0
SMALL
GASTEIGER

@<TRIPOS>ATOM
      1 C          -0.9714    3.0567   20.9737 C.ar    1  UNL1        0.1418
      2 C          -0.5788    2.4656   22.2952 C.ar    1  UNL1        0.0739
      3 C           0.6222    1.5720   22.3900 C.ar    1  UNL1        0.1471
      4 C           1.4307    1.2695   21.1633 C.ar    1  UNL1        0.0937
      5 C           2.6317    0.3759   21.2581 C.ar    1  UNL1        0.2110
      6 C           3.0243   -0.2152   22.5796 C.3     1  UNL1        0.1084
      7 N           3.4401    0.0734   20.0314 N.ar    1  UNL1       -0.1571
      8 C           3.0476    0.6645   18.7098 C.ar    1  UNL1        0.2082
      9 C           3.8560    0.3620   17.4831 C.3     1  UNL1        0.1083
     10 C           1.8465    1.5581   18.6150 C.ar    1  UNL1        0.0652
     11 C           1.0381    1.8606   19.8418 C.ar    1  UNL1        0.0169
     12 C          -0.1630    2.7542   19.7470 C.ar    1  UNL1        0.0375
     13 C           4.6412   -0.8202   20.1262 C.ar    1  UNL1        0.2304
     14 C           5.9597   -0.2599   20.5707 C.ar    1  UNL1        0.0697
     15 C           7.1607   -1.1535   20.6655 C.ar    1  UNL1        0.0061
     16 C           7.0433   -2.6074   20.3157 C.ar    1  UNL1        0.0004
     17 C           5.7247   -3.1678   19.8712 C.ar    1  UNL1        0.0057
     18 C           5.6073   -4.6216   19.5214 C.ar    1  UNL1        0.0002
     19 C           4.2888   -5.1820   19.0768 C.ar    1  UNL1        0.0000
     20 C           3.0877   -4.2884   18.9820 C.ar    1  UNL1        0.0002
     21 C           3.2052   -2.8344   19.3318 C.ar    1  UNL1        0.0059
     22 C           4.5237   -2.2742   19.7764 C.ar    1  UNL1        0.0640
     23 C          -3.3680    3.5179   20.0829 C.3     1  UNL1        0.2525
     24 O          -2.1724    3.9503   20.8789 O.3     1  UNL1       -0.4713
     25 O           1.0148    0.9809   23.7116 O.3     1  UNL1       -0.4711
     26 C           0.2518    1.3426   24.9513 C.3     1  UNL1        0.2525
@<TRIPOS>UNITY_ATOM_ATTR
7 1
charge 1
@<TRIPOS>BOND
     1    23    24    1
     2    24     1    1
     3     1     2   ar
     4     2     3   ar
     5     3    25    1
     6    25    26    1
     7     3     4   ar
     8     4     5   ar
     9     5     6    1
    10     5     7   ar
    11     7    13    1
    12    13    14   ar
    13    14    15   ar
    14    15    16   ar
    15    16    17   ar
    16    17    18   ar
    17    18    19   ar
    18    19    20   ar
    19    20    21   ar
    20    21    22   ar
    21     7     8   ar
    22     8     9    1
    23     8    10   ar
    24    10    11   ar
    25    11    12   ar
    26    12     1   ar
    27    11     4   ar
    28    22    13   ar
    29    22    17   ar
@<TRIPOS>MOLECULE
*****
 26 29 0 0 0
SMALL
GASTEIGER

@<TRIPOS>ATOM
      1 C           1.9779    4.9271   17.9406 C.ar    1  UNL1        0.1418
      2 C           0.8033    4.1716   18.4877 C.ar    1  UNL1        0.0739
      3 C           0.9650    2.7445   18.9204 C.ar    1  UNL1        0.1471
      4 C           2.3013    2.0728   18.8059 C.ar    1  UNL1        0.0937
      5 C           2.4629    0.6457   19.2386 C.ar    1  UNL1        0.2110
      6 C           1.2883   -0.1098   19.7857 C.3     1  UNL1        0.1084
      7 N           3.7992   -0.0259   19.1241 N.ar    1  UNL1       -0.1571
      8 C           4.9740    0.7296   18.5770 C.ar    1  UNL1        0.2082
      9 C           6.3103    0.0580   18.4625 C.3     1  UNL1        0.1083
     10 C           4.8123    2.1567   18.1443 C.ar    1  UNL1        0.0652
     11 C           3.4759    2.8283   18.2588 C.ar    1  UNL1        0.0169
     12 C           3.3142    4.2555   17.8261 C.ar    1  UNL1        0.0375
     13 C           3.9609   -1.4530   19.5568 C.ar    1  UNL1        0.2304
     14 C           3.8529   -2.5590   18.5493 C.ar    1  UNL1        0.0697
     15 C           4.0146   -3.9861   18.9820 C.ar    1  UNL1        0.0061
     16 C           4.2842   -4.3072   20.4221 C.ar    1  UNL1        0.0004
     17 C           4.3923   -3.2012   21.4297 C.ar    1  UNL1        0.0057
     18 C           4.6619   -3.5224   22.8699 C.ar    1  UNL1        0.0002
     19 C           4.7699   -2.4163   23.8775 C.ar    1  UNL1        0.0000
     20 C           4.6083   -0.9892   23.4448 C.ar    1  UNL1        0.0002
     21 C           4.3386   -0.6681   22.0045 C.ar    1  UNL1        0.0059
     22 C           4.2306   -1.7741   20.9971 C.ar    1  UNL1        0.0640
     23 C           2.6894    7.4207   18.0994 C.3     1  UNL1        0.2525
     24 O           1.8163    6.3542   17.5079 O.3     1  UNL1       -0.4713
     25 O          -0.2098    1.9890   19.4675 O.3     1  UNL1       -0.4711
     26 C          -1.1210    2.6396   20.4657 C.3     1  UNL1        0.2525
@<TRIPOS>UNITY_ATOM_ATTR
7 1
charge 1
@<TRIPOS>BOND
     1    23    24    1
     2    24     1    1
     3     1     2   ar
     4     2     3   ar
     5     3    25    1
     6    25    26    1
     7     3     4   ar
     8     4     5   ar
     9     5     6    1
    10     5     7   ar
    11     7    13    1
    12    13    14   ar
    13    14    15   ar
    14    15    16   ar
    15    16    17   ar
    16    17    18   ar
    17    18    19   ar
    18    19    20   ar
    19    20    21   ar
    20    21    22   ar
    21     7     8   ar
    22     8     9    1
    23     8    10   ar
    24    10    11   ar
    25    11    12   ar
    26    12     1   ar
    27    11     4   ar
    28    22    13   ar
    29    22    17   ar
@<TRIPOS>MOLECULE
*****
 26 29 0 0 0
SMALL
GASTEIGER

@<TRIPOS>ATOM
      1 C          -0.6654    3.0307   20.5473 C.ar    1  UNL1        0.1418
      2 C          -0.3329    2.4652   21.8961 C.ar    1  UNL1        0.0739
      3 C           0.7067    1.3914   22.0237 C.ar    1  UNL1        0.1471
      4 C           1.4138    0.8833   20.8023 C.ar    1  UNL1        0.0937
      5 C           2.4535   -0.1905   20.9299 C.ar    1  UNL1        0.2110
      6 C           2.7860   -0.7560   22.2788 C.3     1  UNL1        0.1084
      7 N           3.1606   -0.6987   19.7085 N.ar    1  UNL1       -0.1571
      8 C           2.8281   -0.1331   18.3596 C.ar    1  UNL1        0.2082
      9 C           3.5352   -0.6413   17.1382 C.3     1  UNL1        0.1083
     10 C           1.7884    0.9406   18.2320 C.ar    1  UNL1        0.0652
     11 C           1.0813    1.4488   19.4535 C.ar    1  UNL1        0.0169
     12 C           0.0417    2.5225   19.3259 C.ar    1  UNL1        0.0375
     13 C           4.2002   -1.7724   19.8361 C.ar    1  UNL1        0.2304
     14 C           3.8048   -3.2155   19.7310 C.ar    1  UNL1        0.0697
     15 C           4.8444   -4.2892   19.8585 C.ar    1  UNL1        0.0061
     16 C           6.2795   -3.9198   20.0912 C.ar    1  UNL1        0.0004
     17 C           6.6750   -2.4767   20.1963 C.ar    1  UNL1        0.0057
     18 C           8.1100   -2.1073   20.4289 C.ar    1  UNL1        0.0002
     19 C           8.5055   -0.6642   20.5340 C.ar    1  UNL1        0.0000
     20 C           7.4659    0.4096   20.4065 C.ar    1  UNL1        0.0002
     21 C           6.0307    0.0401   20.1738 C.ar    1  UNL1        0.0059
     22 C           5.6353   -1.4030   20.0687 C.ar    1  UNL1        0.0640
     23 C          -3.0743    3.7658   19.9094 C.3     1  UNL1        0.2525
     24 O          -1.7051    4.1044   20.4197 O.3     1  UNL1       -0.4713
     25 O           1.0393    0.8259   23.3727 O.3     1  UNL1       -0.4711
     26 C           0.3339    1.3358   24.5943 C.3     1  UNL1        0.2525
@<TRIPOS>UNITY_ATOM_ATTR
7 1
charge 1
@<TRIPOS>BOND
     1    23    24    1
     2    24     1    1
     3     1     2   ar
     4     2     3   ar
     5     3    25    1
     6    25    26    1
     7     3     4   ar
     8     4     5   ar
     9     5     6    1
    10     5     7   ar
    11     7    13    1
    12    13    14   ar
    13    14    15   ar
    14    15    16   ar
    15    16    17   ar
    16    17    18   ar
    17    18    19   ar
    18    19    20   ar
    19    20    21   ar
    20    21    22   ar
    21     7     8   ar
    22     8     9    1
    23     8    10   ar
    24    10    11   ar
    25    11    12   ar
    26    12     1   ar
    27    11     4   ar
    28    22    13   ar
    29    22    17   ar
