@<TRIPOS>MOLECULE
*****
 36 41 0 0 0
SMALL
GASTEIGER

@<TRIPOS>ATOM
      1 C           9.4500   -8.2911   28.0594 C.3     1  UNL1        0.0298
      2 C           8.8850   -7.0383   27.4583 C.3     1  UNL1        0.1343
      3 C           8.6979   -6.9369   25.9735 C.ar    1  UNL1        0.1615
      4 N           8.9773   -7.9008   24.8586 N.ar    1  UNL1       -0.1316
      5 N           8.5849   -7.2436   23.5686 N.ar    1  UNL1       -0.1274
      6 C           8.0630   -5.8737   23.8862 C.ar    1  UNL1        0.1846
      7 N           8.1328   -5.6841   25.3725 N.ar    1  UNL1       -0.2944
      8 C           7.7549   -4.5326   26.2563 C.3     1  UNL1        0.1302
      9 C           7.9420   -4.6339   27.7412 C.3     1  UNL1        0.1186
     10 N           8.5070   -5.8867   28.3421 N.am    1  UNL1       -0.2688
     11 C           8.6941   -5.9880   29.8271 C.2     1  UNL1        0.2493
     12 O           9.2591   -7.2408   30.4280 O.2     1  UNL1       -0.2699
     13 C           8.3162   -4.8364   30.7109 C.ar    1  UNL1        0.0536
     14 C           9.3428   -3.8081   31.0829 C.ar    1  UNL1        0.0045
     15 C           8.9648   -2.6565   31.9668 C.ar    1  UNL1        0.0006
     16 C           7.5603   -2.5334   32.4785 C.ar    1  UNL1        0.0060
     17 C           6.5336   -3.5619   32.1065 C.ar    1  UNL1        0.0006
     18 C           6.9115   -4.7134   31.2227 C.ar    1  UNL1        0.0045
     19 C           7.1823   -1.3819   33.3624 C.ar    1  UNL1        0.0295
     20 C           5.7905   -1.0127   33.7826 C.ar    1  UNL1        0.0070
     21 C           5.8778    0.1999   34.6611 C.ar    1  UNL1        0.0075
     22 C           7.3236    0.5802   34.7839 C.ar    1  UNL1        0.0354
     23 S           8.1298   -0.3974   33.9812 S.2     1  UNL1       -0.0864
     24 C           7.5597   -4.8696   22.8920 C.ar    1  UNL1        0.1241
     25 C           8.3910   -4.1363   21.8814 C.ar    1  UNL1        0.0591
     26 S           7.4817   -3.2360   21.0986 S.2     1  UNL1       -0.0658
     27 C           6.0885   -3.4128   21.6254 C.ar    1  UNL1        0.1130
     28 N           6.1367   -4.4224   22.7338 N.ar    1  UNL1       -0.2352
     29 C           4.8623   -2.7044   21.1308 C.ar    1  UNL1        0.0514
     30 C           4.1120   -1.7787   22.0419 C.ar    1  UNL1        0.0066
     31 C           2.8859   -1.0703   21.5473 C.ar    1  UNL1        0.0298
     32 C           2.4100   -1.2876   20.1414 C.ar    1  UNL1        0.1424
     33 F           1.1838   -0.5792   19.6467 F       1  UNL1       -0.2041
     34 C           3.1603   -2.2133   19.2303 C.ar    1  UNL1        0.0593
     35 C           4.3864   -2.9217   19.7250 C.ar    1  UNL1        0.1443
     36 F           5.1367   -3.8474   18.8138 F       1  UNL1       -0.2040
@<TRIPOS>BOND
     1     2     1    1
     2     2     3    1
     3     3     4   ar
     4     4     5   ar
     5     5     6   ar
     6     6    24    1
     7    24    25   ar
     8    25    26   ar
     9    26    27   ar
    10    27    29    1
    11    29    30   ar
    12    30    31   ar
    13    31    32   ar
    14    32    33    1
    15    32    34   ar
    16    34    35   ar
    17    35    36    1
    18    27    28   ar
    19     6     7   ar
    20     7     8    1
    21     8     9    1
    22     9    10    1
    23    10    11   am
    24    11    12    2
    25    11    13    1
    26    13    14   ar
    27    14    15   ar
    28    15    16   ar
    29    16    19    1
    30    19    20   ar
    31    20    21   ar
    32    21    22   ar
    33    22    23   ar
    34    16    17   ar
    35    17    18   ar
    36    10     2    1
    37    18    13   ar
    38     7     3   ar
    39    23    19   ar
    40    28    24   ar
    41    35    29   ar
@<TRIPOS>MOLECULE
*****
 36 41 0 0 0
SMALL
GASTEIGER

@<TRIPOS>ATOM
      1 C           7.8094   -6.3973   29.3170 C.3     1  UNL1        0.0298
      2 C           7.2335   -5.1219   28.7768 C.3     1  UNL1        0.1343
      3 C           7.0949   -4.9295   27.2957 C.ar    1  UNL1        0.1615
      4 N           7.4368   -5.8128   26.1326 N.ar    1  UNL1       -0.1316
      5 N           7.0722   -5.0833   24.8737 N.ar    1  UNL1       -0.1274
      6 C           6.5050   -3.7491   25.2588 C.ar    1  UNL1        0.1846
      7 N           6.5190   -3.6541   26.7557 N.ar    1  UNL1       -0.2944
      8 C           6.0818   -2.5710   27.6968 C.3     1  UNL1        0.1302
      9 C           6.2205   -2.7633   29.1779 C.3     1  UNL1        0.1186
     10 N           6.7963   -4.0387   29.7179 N.am    1  UNL1       -0.2688
     11 C           6.9350   -4.2310   31.1992 C.2     1  UNL1        0.2493
     12 O           7.5108   -5.5064   31.7392 O.2     1  UNL1       -0.2699
     13 C           6.4978   -3.1479   32.1403 C.ar    1  UNL1        0.0536
     14 C           5.1098   -3.1636   32.7089 C.ar    1  UNL1        0.0045
     15 C           4.6727   -2.0804   33.6500 C.ar    1  UNL1        0.0006
     16 C           5.6233   -0.9817   34.0225 C.ar    1  UNL1        0.0060
     17 C           7.0114   -0.9660   33.4538 C.ar    1  UNL1        0.0006
     18 C           7.4486   -2.0491   32.5127 C.ar    1  UNL1        0.0045
     19 C           5.1863    0.1015   34.9636 C.ar    1  UNL1        0.0295
     20 C           4.7600   -0.0879   36.3892 C.ar    1  UNL1        0.0070
     21 C           4.4090    1.2579   36.9509 C.ar    1  UNL1        0.0075
     22 C           4.6184    2.2792   35.8724 C.ar    1  UNL1        0.0354
     23 S           5.0988    1.5645   34.6442 S.2     1  UNL1       -0.0864
     24 C           6.0106   -2.6951   24.3130 C.ar    1  UNL1        0.1241
     25 C           6.8464   -1.6347   23.6594 C.ar    1  UNL1        0.0591
     26 S           5.9459   -0.8006   22.7972 S.2     1  UNL1       -0.0658
     27 C           4.5536   -1.3455   22.9179 C.ar    1  UNL1        0.1130
     28 N           4.5936   -2.5163   23.8546 N.ar    1  UNL1       -0.2352
     29 C           3.3352   -0.8130   22.2236 C.ar    1  UNL1        0.0514
     30 C           2.5165    0.2664   22.8678 C.ar    1  UNL1        0.0066
     31 C           1.2981    0.7988   22.1736 C.ar    1  UNL1        0.0298
     32 C           0.8984    0.2520   20.8351 C.ar    1  UNL1        0.1424
     33 F          -0.3200    0.7845   20.1409 F       1  UNL1       -0.2041
     34 C           1.7171   -0.8273   20.1910 C.ar    1  UNL1        0.0593
     35 C           2.9354   -1.3597   20.8853 C.ar    1  UNL1        0.1443
     36 F           3.7541   -2.4391   20.2411 F       1  UNL1       -0.2040
@<TRIPOS>BOND
     1     2     1    1
     2     2     3    1
     3     3     4   ar
     4     4     5   ar
     5     5     6   ar
     6     6    24    1
     7    24    25   ar
     8    25    26   ar
     9    26    27   ar
    10    27    29    1
    11    29    30   ar
    12    30    31   ar
    13    31    32   ar
    14    32    33    1
    15    32    34   ar
    16    34    35   ar
    17    35    36    1
    18    27    28   ar
    19     6     7   ar
    20     7     8    1
    21     8     9    1
    22     9    10    1
    23    10    11   am
    24    11    12    2
    25    11    13    1
    26    13    14   ar
    27    14    15   ar
    28    15    16   ar
    29    16    19    1
    30    19    20   ar
    31    20    21   ar
    32    21    22   ar
    33    22    23   ar
    34    16    17   ar
    35    17    18   ar
    36    10     2    1
    37    18    13   ar
    38     7     3   ar
    39    23    19   ar
    40    28    24   ar
    41    35    29   ar
@<TRIPOS>MOLECULE
*****
 36 41 0 0 0
SMALL
GASTEIGER

@<TRIPOS>ATOM
      1 C           9.2743   -7.9634   25.7602 C.3     1  UNL1        0.0298
      2 C           8.7317   -6.6044   25.4305 C.3     1  UNL1        0.1343
      3 C           8.5025   -6.2151   24.0001 C.ar    1  UNL1        0.1615
      4 N           8.7163   -6.9538   22.7123 N.ar    1  UNL1       -0.1316
      5 N           8.3059   -6.0513   21.5866 N.ar    1  UNL1       -0.1274
      6 C           7.8384   -4.7548   22.1788 C.ar    1  UNL1        0.1846
      7 N           7.9599   -4.8561   23.6704 N.ar    1  UNL1       -0.2944
      8 C           7.6465   -3.8863   24.7711 C.3     1  UNL1        0.1302
      9 C           7.8758   -4.2756   26.2014 C.3     1  UNL1        0.1186
     10 N           8.4184   -5.6346   26.5311 N.am    1  UNL1       -0.2688
     11 C           8.6476   -6.0239   27.9615 C.2     1  UNL1        0.2493
     12 O           9.1902   -7.3829   28.2912 O.2     1  UNL1       -0.2699
     13 C           8.3343   -5.0541   29.0622 C.ar    1  UNL1        0.0536
     14 C           7.0121   -5.1216   29.7674 C.ar    1  UNL1        0.0045
     15 C           6.6988   -4.1518   30.8681 C.ar    1  UNL1        0.0006
     16 C           7.7076   -3.1147   31.2635 C.ar    1  UNL1        0.0060
     17 C           9.0299   -3.0472   30.5583 C.ar    1  UNL1        0.0006
     18 C           9.3432   -4.0169   29.4576 C.ar    1  UNL1        0.0045
     19 C           7.3944   -2.1449   32.3641 C.ar    1  UNL1        0.0295
     20 C           6.0257   -1.7960   32.8690 C.ar    1  UNL1        0.0070
     21 C           6.1805   -0.7892   33.9700 C.ar    1  UNL1        0.0075
     22 C           7.6449   -0.5159   34.1457 C.ar    1  UNL1        0.0354
     23 S           8.3951   -1.3538   33.1533 S.2     1  UNL1       -0.0864
     24 C           7.3373   -3.5659   21.4137 C.ar    1  UNL1        0.1241
     25 C           8.1800   -2.4575   20.8556 C.ar    1  UNL1        0.0591
     26 S           7.2691   -1.4833   20.1693 S.2     1  UNL1       -0.0658
     27 C           5.8634   -1.9895   20.3031 C.ar    1  UNL1        0.1130
     28 N           5.9056   -3.2767   21.0722 N.ar    1  UNL1       -0.2352
     29 C           4.6319   -1.3253   19.7628 C.ar    1  UNL1        0.0514
     30 C           4.6478   -0.7176   18.3914 C.ar    1  UNL1        0.0066
     31 C           3.4163   -0.0533   17.8511 C.ar    1  UNL1        0.0298
     32 C           2.1687    0.0033   18.6821 C.ar    1  UNL1        0.1424
     33 F           0.9371    0.6675   18.1417 F       1  UNL1       -0.2041
     34 C           2.1528   -0.6044   20.0533 C.ar    1  UNL1        0.0593
     35 C           3.3844   -1.2687   20.5937 C.ar    1  UNL1        0.1443
     36 F           3.3684   -1.8764   21.9650 F       1  UNL1       -0.2040
@<TRIPOS>BOND
     1     2     1    1
     2     2     3    1
     3     3     4   ar
     4     4     5   ar
     5     5     6   ar
     6     6    24    1
     7    24    25   ar
     8    25    26   ar
     9    26    27   ar
    10    27    29    1
    11    29    30   ar
    12    30    31   ar
    13    31    32   ar
    14    32    33    1
    15    32    34   ar
    16    34    35   ar
    17    35    36    1
    18    27    28   ar
    19     6     7   ar
    20     7     8    1
    21     8     9    1
    22     9    10    1
    23    10    11   am
    24    11    12    2
    25    11    13    1
    26    13    14   ar
    27    14    15   ar
    28    15    16   ar
    29    16    19    1
    30    19    20   ar
    31    20    21   ar
    32    21    22   ar
    33    22    23   ar
    34    16    17   ar
    35    17    18   ar
    36    10     2    1
    37    18    13   ar
    38     7     3   ar
    39    23    19   ar
    40    28    24   ar
    41    35    29   ar
@<TRIPOS>MOLECULE
*****
 36 41 0 0 0
SMALL
GASTEIGER

@<TRIPOS>ATOM
      1 C           5.4949   -4.3410   20.1107 C.3     1  UNL1        0.0298
      2 C           5.2683   -3.3820   21.2416 C.3     1  UNL1        0.1343
      3 C           5.9647   -3.5915   22.5536 C.ar    1  UNL1        0.1615
      4 N           6.9240   -4.6444   23.0238 N.ar    1  UNL1       -0.1316
      5 N           7.2902   -4.3361   24.4454 N.ar    1  UNL1       -0.1274
      6 C           6.5573   -3.0927   24.8537 C.ar    1  UNL1        0.1846
      7 N           5.7381   -2.6324   23.6845 N.ar    1  UNL1       -0.2944
      8 C           4.8150   -1.4640   23.5035 C.3     1  UNL1        0.1302
      9 C           4.1187   -1.2546   22.1915 C.3     1  UNL1        0.1186
     10 N           4.3453   -2.2135   21.0607 N.am    1  UNL1       -0.2688
     11 C           3.6488   -2.0041   19.7487 C.2     1  UNL1        0.2493
     12 O           3.8755   -2.9631   18.6178 O.2     1  UNL1       -0.2699
     13 C           2.7258   -0.8357   19.5677 C.ar    1  UNL1        0.0536
     14 C           3.1527    0.3351   18.7328 C.ar    1  UNL1        0.0045
     15 C           2.2296    1.5035   18.5518 C.ar    1  UNL1        0.0006
     16 C           0.8797    1.5012   19.2056 C.ar    1  UNL1        0.0060
     17 C           0.4528    0.3304   20.0406 C.ar    1  UNL1        0.0006
     18 C           1.3758   -0.8381   20.2216 C.ar    1  UNL1        0.0045
     19 C          -0.0434    2.6695   19.0247 C.ar    1  UNL1        0.0295
     20 C          -0.2119    3.4742   17.7701 C.ar    1  UNL1        0.0070
     21 C          -1.2328    4.5403   18.0367 C.ar    1  UNL1        0.0075
     22 C          -1.6953    4.3946   19.4562 C.ar    1  UNL1        0.0354
     23 S          -0.9602    3.2384   20.0668 S.2     1  UNL1       -0.0864
     24 C           6.6307   -2.4265   26.1956 C.ar    1  UNL1        0.1241
     25 C           7.4231   -1.1968   26.5274 C.ar    1  UNL1        0.0591
     26 S           7.2067   -0.8834   27.9782 S.2     1  UNL1       -0.0658
     27 C           6.2805   -1.9193   28.5432 C.ar    1  UNL1        0.1130
     28 N           5.9246   -2.8730   27.4415 N.ar    1  UNL1       -0.2352
     29 C           5.7955   -1.9892   29.9609 C.ar    1  UNL1        0.0514
     30 C           4.7294   -1.0471   30.4362 C.ar    1  UNL1        0.0066
     31 C           4.2444   -1.1170   31.8539 C.ar    1  UNL1        0.0298
     32 C           4.8256   -2.1291   32.7963 C.ar    1  UNL1        0.1424
     33 F           4.3406   -2.1991   34.2140 F       1  UNL1       -0.2041
     34 C           5.8916   -3.0712   32.3210 C.ar    1  UNL1        0.0593
     35 C           6.3766   -3.0012   30.9033 C.ar    1  UNL1        0.1443
     36 F           7.4428   -3.9433   30.4280 F       1  UNL1       -0.2040
@<TRIPOS>BOND
     1     2     1    1
     2     2     3    1
     3     3     4   ar
     4     4     5   ar
     5     5     6   ar
     6     6    24    1
     7    24    25   ar
     8    25    26   ar
     9    26    27   ar
    10    27    29    1
    11    29    30   ar
    12    30    31   ar
    13    31    32   ar
    14    32    33    1
    15    32    34   ar
    16    34    35   ar
    17    35    36    1
    18    27    28   ar
    19     6     7   ar
    20     7     8    1
    21     8     9    1
    22     9    10    1
    23    10    11   am
    24    11    12    2
    25    11    13    1
    26    13    14   ar
    27    14    15   ar
    28    15    16   ar
    29    16    19    1
    30    19    20   ar
    31    20    21   ar
    32    21    22   ar
    33    22    23   ar
    34    16    17   ar
    35    17    18   ar
    36    10     2    1
    37    18    13   ar
    38     7     3   ar
    39    23    19   ar
    40    28    24   ar
    41    35    29   ar
@<TRIPOS>MOLECULE
*****
 36 41 0 0 0
SMALL
GASTEIGER

@<TRIPOS>ATOM
      1 C           8.8670   -5.8096   29.2435 C.3     1  UNL1        0.0298
      2 C           7.9211   -4.7662   28.7270 C.3     1  UNL1        0.1343
      3 C           7.6313   -4.6777   27.2580 C.ar    1  UNL1        0.1615
      4 N           8.1247   -5.4760   26.0878 N.ar    1  UNL1       -0.1316
      5 N           7.4838   -4.9259   24.8482 N.ar    1  UNL1       -0.1274
      6 C           6.5942   -3.7877   25.2522 C.ar    1  UNL1        0.1846
      7 N           6.6854   -3.6343   26.7416 N.ar    1  UNL1       -0.2944
      8 C           6.0293   -2.6794   27.6943 C.3     1  UNL1        0.1302
      9 C           6.3191   -2.7679   29.1633 C.3     1  UNL1        0.1186
     10 N           7.2649   -3.8112   29.6797 N.am    1  UNL1       -0.2688
     11 C           7.5547   -3.8996   31.1489 C.2     1  UNL1        0.2493
     12 O           8.5006   -4.9430   31.6652 O.2     1  UNL1       -0.2699
     13 C           6.8987   -2.9447   32.1016 C.ar    1  UNL1        0.0536
     14 C           7.6646   -1.7688   32.6311 C.ar    1  UNL1        0.0045
     15 C           7.0084   -0.8138   33.5839 C.ar    1  UNL1        0.0006
     16 C           5.5865   -1.0348   34.0069 C.ar    1  UNL1        0.0060
     17 C           4.8205   -2.2109   33.4773 C.ar    1  UNL1        0.0006
     18 C           5.4766   -3.1658   32.5246 C.ar    1  UNL1        0.0045
     19 C           4.9303   -0.0800   34.9596 C.ar    1  UNL1        0.0295
     20 C           5.0212   -0.1254   36.4562 C.ar    1  UNL1        0.0070
     21 C           4.2150    1.0145   37.0044 C.ar    1  UNL1        0.0075
     22 C           3.6258    1.7645   35.8466 C.ar    1  UNL1        0.0354
     23 S           4.0679    1.0881   34.5829 S.2     1  UNL1       -0.0864
     24 C           5.7600   -2.9500   24.3290 C.ar    1  UNL1        0.1241
     25 C           4.7560   -1.9151   24.7427 C.ar    1  UNL1        0.0591
     26 S           4.1589   -1.3257   23.4993 S.2     1  UNL1       -0.0658
     27 C           4.7937   -1.9962   22.3172 C.ar    1  UNL1        0.1130
     28 N           5.7833   -3.0001   22.8300 N.ar    1  UNL1       -0.2352
     29 C           4.4920   -1.7126   20.8755 C.ar    1  UNL1        0.0514
     30 C           4.5758   -0.3087   20.3538 C.ar    1  UNL1        0.0066
     31 C           4.2741   -0.0252   18.9121 C.ar    1  UNL1        0.0298
     32 C           3.8886   -1.1455   17.9921 C.ar    1  UNL1        0.1424
     33 F           3.5869   -0.8620   16.5503 F       1  UNL1       -0.2041
     34 C           3.8048   -2.5493   18.5138 C.ar    1  UNL1        0.0593
     35 C           4.1065   -2.8329   19.9555 C.ar    1  UNL1        0.1443
     36 F           4.0227   -4.2368   20.4773 F       1  UNL1       -0.2040
@<TRIPOS>BOND
     1     2     1    1
     2     2     3    1
     3     3     4   ar
     4     4     5   ar
     5     5     6   ar
     6     6    24    1
     7    24    25   ar
     8    25    26   ar
     9    26    27   ar
    10    27    29    1
    11    29    30   ar
    12    30    31   ar
    13    31    32   ar
    14    32    33    1
    15    32    34   ar
    16    34    35   ar
    17    35    36    1
    18    27    28   ar
    19     6     7   ar
    20     7     8    1
    21     8     9    1
    22     9    10    1
    23    10    11   am
    24    11    12    2
    25    11    13    1
    26    13    14   ar
    27    14    15   ar
    28    15    16   ar
    29    16    19    1
    30    19    20   ar
    31    20    21   ar
    32    21    22   ar
    33    22    23   ar
    34    16    17   ar
    35    17    18   ar
    36    10     2    1
    37    18    13   ar
    38     7     3   ar
    39    23    19   ar
    40    28    24   ar
    41    35    29   ar
@<TRIPOS>MOLECULE
*****
 36 41 0 0 0
SMALL
GASTEIGER

@<TRIPOS>ATOM
      1 C           0.9625    0.1629   19.7523 C.3     1  UNL1        0.0298
      2 C           2.0015   -0.2865   20.7364 C.3     1  UNL1        0.1343
      3 C           3.0776   -1.2397   20.3082 C.ar    1  UNL1        0.1615
      4 N           3.3677   -1.9009   18.9934 N.ar    1  UNL1       -0.1316
      5 N           4.5861   -2.7589   19.1650 N.ar    1  UNL1       -0.1274
      6 C           5.0489   -2.6280   20.5858 C.ar    1  UNL1        0.1846
      7 N           4.1166   -1.6891   21.2923 N.ar    1  UNL1       -0.2944
      8 C           4.0795   -1.1853   22.7047 C.3     1  UNL1        0.1302
      9 C           3.0034   -0.2321   23.1329 C.3     1  UNL1        0.1186
     10 N           1.9645    0.2173   22.1488 N.am    1  UNL1       -0.2688
     11 C           0.8883    1.1706   22.5771 C.2     1  UNL1        0.2493
     12 O          -0.1507    1.6200   21.5929 O.2     1  UNL1       -0.2699
     13 C           0.8513    1.6744   23.9894 C.ar    1  UNL1        0.0536
     14 C           0.0093    0.9733   25.0139 C.ar    1  UNL1        0.0045
     15 C          -0.0277    1.4773   26.4264 C.ar    1  UNL1        0.0006
     16 C           0.7771    2.6821   26.8142 C.ar    1  UNL1        0.0060
     17 C           1.6191    3.3832   25.7896 C.ar    1  UNL1        0.0006
     18 C           1.6562    2.8794   24.3772 C.ar    1  UNL1        0.0045
     19 C           0.7401    3.1860   28.2265 C.ar    1  UNL1        0.0295
     20 C           0.9162    2.3564   29.4637 C.ar    1  UNL1        0.0070
     21 C           0.8054    3.2658   30.6513 C.ar    1  UNL1        0.0075
     22 C           0.5609    4.6576   30.1482 C.ar    1  UNL1        0.0354
     23 S           0.5205    4.6083   28.6496 S.2     1  UNL1       -0.0864
     24 C           6.2357   -3.3154   21.1933 C.ar    1  UNL1        0.1241
     25 C           7.6707   -3.0951   20.8163 C.ar    1  UNL1        0.0591
     26 S           8.5177   -3.9873   21.6746 S.2     1  UNL1       -0.0658
     27 C           7.6061   -4.7591   22.5820 C.ar    1  UNL1        0.1130
     28 N           6.1958   -4.3438   22.2845 N.ar    1  UNL1       -0.2352
     29 C           8.0304   -5.7689   23.6068 C.ar    1  UNL1        0.0514
     30 C           9.0253   -6.8318   23.2454 C.ar    1  UNL1        0.0066
     31 C           9.4496   -7.8415   24.2703 C.ar    1  UNL1        0.0298
     32 C           8.8790   -7.7884   25.6566 C.ar    1  UNL1        0.1424
     33 F           9.3033   -8.7981   26.6815 F       1  UNL1       -0.2041
     34 C           7.8842   -6.7255   26.0179 C.ar    1  UNL1        0.0593
     35 C           7.4599   -5.7158   24.9930 C.ar    1  UNL1        0.1443
     36 F           6.4650   -4.6529   25.3544 F       1  UNL1       -0.2040
@<TRIPOS>BOND
     1     2     1    1
     2     2     3    1
     3     3     4   ar
     4     4     5   ar
     5     5     6   ar
     6     6    24    1
     7    24    25   ar
     8    25    26   ar
     9    26    27   ar
    10    27    29    1
    11    29    30   ar
    12    30    31   ar
    13    31    32   ar
    14    32    33    1
    15    32    34   ar
    16    34    35   ar
    17    35    36    1
    18    27    28   ar
    19     6     7   ar
    20     7     8    1
    21     8     9    1
    22     9    10    1
    23    10    11   am
    24    11    12    2
    25    11    13    1
    26    13    14   ar
    27    14    15   ar
    28    15    16   ar
    29    16    19    1
    30    19    20   ar
    31    20    21   ar
    32    21    22   ar
    33    22    23   ar
    34    16    17   ar
    35    17    18   ar
    36    10     2    1
    37    18    13   ar
    38     7     3   ar
    39    23    19   ar
    40    28    24   ar
    41    35    29   ar
@<TRIPOS>MOLECULE
*****
 36 41 0 0 0
SMALL
GASTEIGER

@<TRIPOS>ATOM
      1 C          -3.8114    4.1338   24.5345 C.3     1  UNL1        0.0298
      2 C          -2.4858    3.5761   24.1079 C.3     1  UNL1        0.1343
      3 C          -2.1099    3.5628   22.6559 C.ar    1  UNL1        0.1615
      4 N          -2.8345    4.0266   21.4272 N.ar    1  UNL1       -0.1316
      5 N          -1.9568    3.7557   20.2414 N.ar    1  UNL1       -0.1274
      6 C          -0.6897    3.1244   20.7372 C.ar    1  UNL1        0.1846
      7 N          -0.7842    3.0052   22.2295 N.ar    1  UNL1       -0.2944
      8 C           0.1654    2.4609   23.2551 C.3     1  UNL1        0.1302
      9 C          -0.2105    2.4743   24.7071 C.3     1  UNL1        0.1186
     10 N          -1.5361    3.0318   25.1336 N.am    1  UNL1       -0.2688
     11 C          -1.9120    3.0452   26.5857 C.2     1  UNL1        0.2493
     12 O          -3.2376    3.6028   27.0121 O.2     1  UNL1       -0.2699
     13 C          -0.9624    2.5009   27.6113 C.ar    1  UNL1        0.0536
     14 C          -1.0682    1.0693   28.0464 C.ar    1  UNL1        0.0045
     15 C          -0.1184    0.5251   29.0721 C.ar    1  UNL1        0.0006
     16 C           0.9369    1.4124   29.6626 C.ar    1  UNL1        0.0060
     17 C           1.0427    2.8440   29.2274 C.ar    1  UNL1        0.0006
     18 C           0.0931    3.3883   28.2018 C.ar    1  UNL1        0.0045
     19 C           1.8867    0.8682   30.6882 C.ar    1  UNL1        0.0295
     20 C           2.1417    1.4465   32.0485 C.ar    1  UNL1        0.0070
     21 C           3.1608    0.5859   32.7345 C.ar    1  UNL1        0.0075
     22 C           3.5356   -0.5245   31.7982 C.ar    1  UNL1        0.0354
     23 S           2.7482   -0.3500   30.5335 S.2     1  UNL1       -0.0864
     24 C           0.4687    2.6888   19.8896 C.ar    1  UNL1        0.1241
     25 C           1.1340    3.5032   18.8199 C.ar    1  UNL1        0.0591
     26 S           2.2416    2.6800   18.2321 S.2     1  UNL1       -0.0658
     27 C           2.2608    1.3568   18.9383 C.ar    1  UNL1        0.1130
     28 N           1.1651    1.3623   19.9627 N.ar    1  UNL1       -0.2352
     29 C           3.2092    0.2267   18.6677 C.ar    1  UNL1        0.0514
     30 C           4.4209    0.4528   17.8127 C.ar    1  UNL1        0.0066
     31 C           5.3693   -0.6774   17.5421 C.ar    1  UNL1        0.0298
     32 C           5.1061   -2.0336   18.1265 C.ar    1  UNL1        0.1424
     33 F           6.0545   -3.1638   17.8559 F       1  UNL1       -0.2041
     34 C           3.8945   -2.2597   18.9814 C.ar    1  UNL1        0.0593
     35 C           2.9461   -1.1295   19.2520 C.ar    1  UNL1        0.1443
     36 F           1.7344   -1.3556   20.1069 F       1  UNL1       -0.2040
@<TRIPOS>BOND
     1     2     1    1
     2     2     3    1
     3     3     4   ar
     4     4     5   ar
     5     5     6   ar
     6     6    24    1
     7    24    25   ar
     8    25    26   ar
     9    26    27   ar
    10    27    29    1
    11    29    30   ar
    12    30    31   ar
    13    31    32   ar
    14    32    33    1
    15    32    34   ar
    16    34    35   ar
    17    35    36    1
    18    27    28   ar
    19     6     7   ar
    20     7     8    1
    21     8     9    1
    22     9    10    1
    23    10    11   am
    24    11    12    2
    25    11    13    1
    26    13    14   ar
    27    14    15   ar
    28    15    16   ar
    29    16    19    1
    30    19    20   ar
    31    20    21   ar
    32    21    22   ar
    33    22    23   ar
    34    16    17   ar
    35    17    18   ar
    36    10     2    1
    37    18    13   ar
    38     7     3   ar
    39    23    19   ar
    40    28    24   ar
    41    35    29   ar
@<TRIPOS>MOLECULE
*****
 36 41 0 0 0
SMALL
GASTEIGER

@<TRIPOS>ATOM
      1 C           5.9438   -2.9421   18.7338 C.3     1  UNL1        0.0298
      2 C           5.6047   -2.8426   20.1916 C.3     1  UNL1        0.1343
      3 C           6.3560   -3.6671   21.1944 C.ar    1  UNL1        0.1615
      4 N           7.4720   -4.6582   21.0448 N.ar    1  UNL1       -0.1316
      5 N           7.8226   -5.1710   22.4101 N.ar    1  UNL1       -0.1274
      6 C           6.9233   -4.4970   23.4035 C.ar    1  UNL1        0.1846
      7 N           6.0168   -3.5675   22.6522 N.ar    1  UNL1       -0.2944
      8 C           4.9265   -2.6433   23.1071 C.3     1  UNL1        0.1302
      9 C           4.1753   -1.8187   22.1043 C.3     1  UNL1        0.1186
     10 N           4.5143   -1.9183   20.6466 N.am    1  UNL1       -0.2688
     11 C           3.7630   -1.0937   19.6437 C.2     1  UNL1        0.2493
     12 O           4.1022   -1.1933   18.1859 O.2     1  UNL1       -0.2699
     13 C           2.6727   -0.1695   20.0986 C.ar    1  UNL1        0.0536
     14 C           1.2455   -0.6309   20.0879 C.ar    1  UNL1        0.0045
     15 C           0.1551    0.2934   20.5429 C.ar    1  UNL1        0.0006
     16 C           0.4920    1.6789   21.0085 C.ar    1  UNL1        0.0060
     17 C           1.9193    2.1402   21.0192 C.ar    1  UNL1        0.0006
     18 C           3.0097    1.2160   20.5642 C.ar    1  UNL1        0.0045
     19 C          -0.5983    2.6032   21.4634 C.ar    1  UNL1        0.0295
     20 C          -0.7727    3.1455   22.8510 C.ar    1  UNL1        0.0070
     21 C          -1.9878    4.0249   22.8557 C.ar    1  UNL1        0.0075
     22 C          -2.5644    4.0262   21.4709 C.ar    1  UNL1        0.0354
     23 S          -1.7056    3.1475   20.6105 S.2     1  UNL1       -0.0864
     24 C           6.9293   -4.7143   24.8877 C.ar    1  UNL1        0.1241
     25 C           7.2514   -6.0004   25.5892 C.ar    1  UNL1        0.0591
     26 S           7.1355   -5.7645   27.0660 S.2     1  UNL1       -0.0658
     27 C           6.7418   -4.3326   27.2772 C.ar    1  UNL1        0.1130
     28 N           6.6144   -3.6835   25.9310 N.ar    1  UNL1       -0.2352
     29 C           6.5154   -3.6667   28.6021 C.ar    1  UNL1        0.0514
     30 C           6.8476   -4.3919   29.8725 C.ar    1  UNL1        0.0066
     31 C           6.6211   -3.7260   31.1974 C.ar    1  UNL1        0.0298
     32 C           6.0624   -2.3349   31.2518 C.ar    1  UNL1        0.1424
     33 F           5.8359   -1.6690   32.5767 F       1  UNL1       -0.2041
     34 C           5.7303   -1.6098   29.9815 C.ar    1  UNL1        0.0593
     35 C           5.9567   -2.2757   28.6566 C.ar    1  UNL1        0.1443
     36 F           5.6245   -1.5506   27.3862 F       1  UNL1       -0.2040
@<TRIPOS>BOND
     1     2     1    1
     2     2     3    1
     3     3     4   ar
     4     4     5   ar
     5     5     6   ar
     6     6    24    1
     7    24    25   ar
     8    25    26   ar
     9    26    27   ar
    10    27    29    1
    11    29    30   ar
    12    30    31   ar
    13    31    32   ar
    14    32    33    1
    15    32    34   ar
    16    34    35   ar
    17    35    36    1
    18    27    28   ar
    19     6     7   ar
    20     7     8    1
    21     8     9    1
    22     9    10    1
    23    10    11   am
    24    11    12    2
    25    11    13    1
    26    13    14   ar
    27    14    15   ar
    28    15    16   ar
    29    16    19    1
    30    19    20   ar
    31    20    21   ar
    32    21    22   ar
    33    22    23   ar
    34    16    17   ar
    35    17    18   ar
    36    10     2    1
    37    18    13   ar
    38     7     3   ar
    39    23    19   ar
    40    28    24   ar
    41    35    29   ar
@<TRIPOS>MOLECULE
*****
 36 41 0 0 0
SMALL
GASTEIGER

@<TRIPOS>ATOM
      1 C           8.8100   -7.4956   29.0394 C.3     1  UNL1        0.0298
      2 C           8.2626   -6.2681   28.3733 C.3     1  UNL1        0.1343
      3 C           8.1214   -6.2245   26.8806 C.ar    1  UNL1        0.1615
      4 N           8.4361   -7.2299   25.8129 N.ar    1  UNL1       -0.1316
      5 N           8.0832   -6.6238   24.4870 N.ar    1  UNL1       -0.1274
      6 C           7.5504   -5.2437   24.7353 C.ar    1  UNL1        0.1846
      7 N           7.5741   -4.9969   26.2146 N.ar    1  UNL1       -0.2944
      8 C           7.1679   -3.8130   27.0413 C.3     1  UNL1        0.1302
      9 C           7.3091   -3.8567   28.5340 C.3     1  UNL1        0.1186
     10 N           7.8564   -5.0841   29.2000 N.am    1  UNL1       -0.2688
     11 C           7.9976   -5.1277   30.6928 C.2     1  UNL1        0.2493
     12 O           8.5450   -6.3552   31.3588 O.2     1  UNL1       -0.2699
     13 C           7.5914   -3.9438   31.5194 C.ar    1  UNL1        0.0536
     14 C           6.1611   -3.7777   31.9396 C.ar    1  UNL1        0.0045
     15 C           5.7550   -2.5938   32.7664 C.ar    1  UNL1        0.0006
     16 C           6.7791   -1.5760   33.1728 C.ar    1  UNL1        0.0060
     17 C           8.2095   -1.7421   32.7525 C.ar    1  UNL1        0.0006
     18 C           8.6157   -2.9260   31.9259 C.ar    1  UNL1        0.0045
     19 C           6.3730   -0.3921   33.9995 C.ar    1  UNL1        0.0295
     20 C           5.5078   -0.4268   35.2242 C.ar    1  UNL1        0.0070
     21 C           5.3611    0.9784   35.7281 C.ar    1  UNL1        0.0075
     22 C           6.1356    1.8816   34.8147 C.ar    1  UNL1        0.0354
     23 S           6.7610    1.0346   33.7463 S.2     1  UNL1       -0.0864
     24 C           7.0772   -4.2798   23.6880 C.ar    1  UNL1        0.1241
     25 C           7.9440   -3.5497   22.7054 C.ar    1  UNL1        0.0591
     26 S           7.0565   -2.6954   21.8496 S.2     1  UNL1       -0.0658
     27 C           5.6411   -2.8974   22.3033 C.ar    1  UNL1        0.1130
     28 N           5.6539   -3.8766   23.4395 N.ar    1  UNL1       -0.2352
     29 C           4.4262   -2.2363   21.7227 C.ar    1  UNL1        0.0514
     30 C           4.0113   -2.5355   20.3125 C.ar    1  UNL1        0.0066
     31 C           2.7964   -1.8744   19.7320 C.ar    1  UNL1        0.0298
     32 C           1.9965   -0.9141   20.5615 C.ar    1  UNL1        0.1424
     33 F           0.7816   -0.2531   19.9810 F       1  UNL1       -0.2041
     34 C           2.4114   -0.6150   21.9716 C.ar    1  UNL1        0.0593
     35 C           3.6263   -1.2761   22.5522 C.ar    1  UNL1        0.1443
     36 F           4.0412   -0.9769   23.9623 F       1  UNL1       -0.2040
@<TRIPOS>BOND
     1     2     1    1
     2     2     3    1
     3     3     4   ar
     4     4     5   ar
     5     5     6   ar
     6     6    24    1
     7    24    25   ar
     8    25    26   ar
     9    26    27   ar
    10    27    29    1
    11    29    30   ar
    12    30    31   ar
    13    31    32   ar
    14    32    33    1
    15    32    34   ar
    16    34    35   ar
    17    35    36    1
    18    27    28   ar
    19     6     7   ar
    20     7     8    1
    21     8     9    1
    22     9    10    1
    23    10    11   am
    24    11    12    2
    25    11    13    1
    26    13    14   ar
    27    14    15   ar
    28    15    16   ar
    29    16    19    1
    30    19    20   ar
    31    20    21   ar
    32    21    22   ar
    33    22    23   ar
    34    16    17   ar
    35    17    18   ar
    36    10     2    1
    37    18    13   ar
    38     7     3   ar
    39    23    19   ar
    40    28    24   ar
    41    35    29   ar
