@<TRIPOS>MOLECULE
*****
 29 32 0 0 0
SMALL
GASTEIGER

@<TRIPOS>ATOM
      1 C         -15.9282   -5.3340   19.2781 C.ar    1  UNL1        0.0858
      2 C         -17.1539   -6.1962   19.2135 C.ar    1  UNL1        0.0399
      3 C         -17.0205   -7.6746   18.9979 C.ar    1  UNL1        0.1032
      4 N         -18.2462   -8.5368   18.9332 N.ar    1  UNL1       -0.2405
      5 C         -18.1126  -10.0152   18.7176 C.ar    1  UNL1        0.1195
      6 C         -16.7534  -10.6314   18.5666 C.ar    1  UNL1        0.1196
      7 N         -15.5277   -9.7692   18.6313 N.ar    1  UNL1       -0.2379
      8 C         -15.6612   -8.2908   18.8469 C.ar    1  UNL1        0.1302
      9 C         -14.4355   -7.4286   18.9115 C.ar    1  UNL1        0.1478
     10 N         -14.5690   -5.9502   19.1272 N.ar    1  UNL1       -0.2292
     11 C         -16.3287   -0.8988   19.9250 C.ar    1  UNL1        0.1318
     12 C         -14.9689   -1.5170   19.7884 C.ar    1  UNL1        0.0344
     13 C         -14.8354   -2.9954   19.5728 C.ar    1  UNL1        0.0059
     14 C         -16.0617   -3.8555   19.4938 C.ar    1  UNL1        0.0370
     15 C         -17.4215   -3.2373   19.6304 C.ar    1  UNL1        0.1018
     16 N         -17.5550   -1.7589   19.8460 N.ar    1  UNL1       -0.2291
     17 C         -15.6235    1.5328   19.3418 C.3     1  UNL1        0.1136
     18 N         -16.4622    0.5797   20.1406 N.pl3   1  UNL1       -0.2897
     19 C         -17.4344    1.1049   21.1550 C.3     1  UNL1        0.1136
     20 N         -13.0762   -8.0448   18.7606 N.pl3   1  UNL1       -0.3148
     21 H         -12.8209   -8.8160   19.3166 H       1  UNL1        0.1483
     22 C         -12.1061   -7.4859   17.7624 C.3     1  UNL1        0.1195
     23 C         -11.4351   -6.1701   18.0242 C.3     1  UNL1        0.1504
     24 C         -10.3405   -6.0764   19.0455 C.3     1  UNL1        0.1003
     25 N          -9.6696   -4.7606   19.3073 N.3     1  UNL1       -0.2933
     26 C         -10.0933   -3.5385   18.5478 C.3     1  UNL1        0.1011
     27 C         -11.1880   -3.6321   17.5265 C.3     1  UNL1        0.1592
     28 O         -11.8589   -4.9479   17.2647 O.3     1  UNL1       -0.3516
     29 H          -8.6760   -4.8942   19.1195 H       1  UNL1        0.1234
@<TRIPOS>BOND
     1    17    18    1
     2    18    19    1
     3    18    11    1
     4    11    12   ar
     5    12    13   ar
     6    13    14   ar
     7    14     1    1
     8     1     2   ar
     9     2     3   ar
    10     3     4   ar
    11     4     5   ar
    12     5     6   ar
    13     6     7   ar
    14     7     8   ar
    15     8     9   ar
    16     9    20    1
    17    20    22    1
    18    23    22    1
    19    23    24    1
    20    24    25    1
    21    25    26    1
    22    26    27    1
    23    27    28    1
    24     9    10   ar
    25    14    15   ar
    26    15    16   ar
    27    16    11   ar
    28    10     1   ar
    29     8     3   ar
    30    28    23    1
    31    20    21    1
    32    25    29    1
@<TRIPOS>MOLECULE
*****
 29 32 0 0 0
SMALL
GASTEIGER

@<TRIPOS>ATOM
      1 C         -14.2770   -4.4555   19.0188 C.ar    1  UNL1        0.0858
      2 C         -12.8233   -4.2307   19.3125 C.ar    1  UNL1        0.0399
      3 C         -11.8184   -5.2949   18.9843 C.ar    1  UNL1        0.1032
      4 N         -10.3648   -5.0701   19.2780 N.ar    1  UNL1       -0.2405
      5 C          -9.3600   -6.1343   18.9498 C.ar    1  UNL1        0.1195
      6 C          -9.8088   -7.4233   18.3277 C.ar    1  UNL1        0.1196
      7 N         -11.2624   -7.6482   18.0340 N.ar    1  UNL1       -0.2379
      8 C         -12.2672   -6.5840   18.3622 C.ar    1  UNL1        0.1302
      9 C         -13.7210   -6.8088   18.0685 C.ar    1  UNL1        0.1478
     10 N         -14.7258   -5.7446   18.3967 N.ar    1  UNL1       -0.2292
     11 C         -17.2916   -1.2631   20.0035 C.ar    1  UNL1        0.1318
     12 C         -15.8365   -0.9141   19.8994 C.ar    1  UNL1        0.0344
     13 C         -14.8316   -1.9782   19.5712 C.ar    1  UNL1        0.0059
     14 C         -15.2819   -3.3913   19.3470 C.ar    1  UNL1        0.0370
     15 C         -16.7370   -3.7403   19.4511 C.ar    1  UNL1        0.1018
     16 N         -17.7418   -2.6762   19.7794 N.ar    1  UNL1       -0.2291
     17 C         -19.7615   -0.5205   20.3173 C.3     1  UNL1        0.1136
     18 N         -18.2965   -0.1988   20.3318 N.pl3   1  UNL1       -0.2897
     19 C         -17.8363    1.1871   20.6746 C.3     1  UNL1        0.1136
     20 N         -14.1698   -8.0978   17.4465 N.pl3   1  UNL1       -0.3148
     21 H         -14.0319   -8.2544   16.4843 H       1  UNL1        0.1483
     22 C         -14.8288   -9.1483   18.2903 C.3     1  UNL1        0.1195
     23 C         -16.2741   -9.4863   18.0741 C.3     1  UNL1        0.1504
     24 C         -16.8026  -10.8251   18.4961 C.3     1  UNL1        0.1003
     25 N         -18.2479  -11.1631   18.2799 N.3     1  UNL1       -0.2933
     26 C         -19.1648  -10.1621   17.6417 C.3     1  UNL1        0.1011
     27 C         -18.6364   -8.8231   17.2197 C.3     1  UNL1        0.1592
     28 O         -17.1911   -8.4852   17.4359 O.3     1  UNL1       -0.3516
     29 H         -18.6400  -11.3792   19.1964 H       1  UNL1        0.1234
@<TRIPOS>BOND
     1    17    18    1
     2    18    19    1
     3    18    11    1
     4    11    12   ar
     5    12    13   ar
     6    13    14   ar
     7    14     1    1
     8     1     2   ar
     9     2     3   ar
    10     3     4   ar
    11     4     5   ar
    12     5     6   ar
    13     6     7   ar
    14     7     8   ar
    15     8     9   ar
    16     9    20    1
    17    20    22    1
    18    23    22    1
    19    23    24    1
    20    24    25    1
    21    25    26    1
    22    26    27    1
    23    27    28    1
    24     9    10   ar
    25    14    15   ar
    26    15    16   ar
    27    16    11   ar
    28    10     1   ar
    29     8     3   ar
    30    28    23    1
    31    20    21    1
    32    25    29    1
@<TRIPOS>MOLECULE
*****
 29 32 0 0 0
SMALL
GASTEIGER

@<TRIPOS>ATOM
      1 C         -12.9313   -2.8882   18.4184 C.ar    1  UNL1        0.0858
      2 C         -11.5633   -3.2096   18.9430 C.ar    1  UNL1        0.0399
      3 C         -11.0226   -4.6037   18.8235 C.ar    1  UNL1        0.1032
      4 N          -9.6546   -4.9250   19.3481 N.ar    1  UNL1       -0.2405
      5 C          -9.1139   -6.3191   19.2286 C.ar    1  UNL1        0.1195
      6 C          -9.9413   -7.3917   18.5844 C.ar    1  UNL1        0.1196
      7 N         -11.3092   -7.0703   18.0598 N.ar    1  UNL1       -0.2379
      8 C         -11.8499   -5.6763   18.1793 C.ar    1  UNL1        0.1302
      9 C         -13.2179   -5.3549   17.6547 C.ar    1  UNL1        0.1478
     10 N         -13.7586   -3.9609   17.7742 N.ar    1  UNL1       -0.2292
     11 C         -14.5533    1.2940   18.7769 C.ar    1  UNL1        0.1318
     12 C         -15.4497    0.1178   19.0277 C.ar    1  UNL1        0.0344
     13 C         -14.9091   -1.2763   18.9082 C.ar    1  UNL1        0.0059
     14 C         -13.4720   -1.4941   18.5379 C.ar    1  UNL1        0.0370
     15 C         -12.5755   -0.3179   18.2870 C.ar    1  UNL1        0.1018
     16 N         -13.1162    1.0761   18.4065 N.ar    1  UNL1       -0.2291
     17 C         -15.8106    3.1101   20.1447 C.3     1  UNL1        0.1136
     18 N         -15.0940    2.6880   18.8964 N.pl3   1  UNL1       -0.2897
     19 C         -14.9181    3.6600   17.7675 C.3     1  UNL1        0.1136
     20 N         -14.0453   -6.4275   17.0105 N.pl3   1  UNL1       -0.3148
     21 H         -13.6235   -7.0745   16.3999 H       1  UNL1        0.1483
     22 C         -15.5151   -6.5145   17.2967 C.3     1  UNL1        0.1195
     23 C         -16.0668   -7.6984   18.0344 C.3     1  UNL1        0.1504
     24 C         -15.4960   -8.0845   19.3666 C.3     1  UNL1        0.1003
     25 N         -16.0477   -9.2684   20.1043 N.3     1  UNL1       -0.2933
     26 C         -17.1702  -10.0660   19.5097 C.3     1  UNL1        0.1011
     27 C         -17.7411   -9.6799   18.1774 C.3     1  UNL1        0.1592
     28 O         -17.1894   -8.4961   17.4397 O.3     1  UNL1       -0.3516
     29 H         -16.3759   -8.9258   21.0073 H       1  UNL1        0.1234
@<TRIPOS>BOND
     1    17    18    1
     2    18    19    1
     3    18    11    1
     4    11    12   ar
     5    12    13   ar
     6    13    14   ar
     7    14     1    1
     8     1     2   ar
     9     2     3   ar
    10     3     4   ar
    11     4     5   ar
    12     5     6   ar
    13     6     7   ar
    14     7     8   ar
    15     8     9   ar
    16     9    20    1
    17    20    22    1
    18    23    22    1
    19    23    24    1
    20    24    25    1
    21    25    26    1
    22    26    27    1
    23    27    28    1
    24     9    10   ar
    25    14    15   ar
    26    15    16   ar
    27    16    11   ar
    28    10     1   ar
    29     8     3   ar
    30    28    23    1
    31    20    21    1
    32    25    29    1
@<TRIPOS>MOLECULE
*****
 29 32 0 0 0
SMALL
GASTEIGER

@<TRIPOS>ATOM
      1 C          -7.8947  -18.5402   22.6674 C.ar    1  UNL1        0.0858
      2 C          -7.4262  -19.6228   21.7409 C.ar    1  UNL1        0.0399
      3 C          -5.9903  -19.6713   21.3094 C.ar    1  UNL1        0.1032
      4 N          -5.5218  -20.7539   20.3830 N.ar    1  UNL1       -0.2405
      5 C          -4.0860  -20.8023   19.9515 C.ar    1  UNL1        0.1195
      6 C          -3.1188  -19.7682   20.4465 C.ar    1  UNL1        0.1196
      7 N          -3.5874  -18.6855   21.3730 N.ar    1  UNL1       -0.2379
      8 C          -5.0232  -18.6371   21.8044 C.ar    1  UNL1        0.1302
      9 C          -5.4918  -17.5545   22.7309 C.ar    1  UNL1        0.1478
     10 N          -6.9276  -17.5060   23.1623 N.ar    1  UNL1       -0.2292
     11 C         -12.2021  -18.3948   23.9617 C.ar    1  UNL1        0.1318
     12 C         -11.2379  -19.3034   24.6651 C.ar    1  UNL1        0.0344
     13 C          -9.8021  -19.3519   24.2337 C.ar    1  UNL1        0.0059
     14 C          -9.3306  -18.4918   23.0989 C.ar    1  UNL1        0.0370
     15 C         -10.2948  -17.5831   22.3955 C.ar    1  UNL1        0.1018
     16 N         -11.7306  -17.5346   22.8270 N.ar    1  UNL1       -0.2291
     17 C         -13.9913  -18.5039   25.8425 C.3     1  UNL1        0.1136
     18 N         -13.6379  -18.3463   24.3932 N.pl3   1  UNL1       -0.2897
     19 C         -14.7204  -18.1402   23.3755 C.3     1  UNL1        0.1136
     20 N          -4.5246  -16.5203   23.2259 N.pl3   1  UNL1       -0.3148
     21 H          -3.5558  -16.6657   23.1285 H       1  UNL1        0.1483
     22 C          -5.0335  -15.2645   23.8692 C.3     1  UNL1        0.1195
     23 C          -6.0877  -15.3411   24.9336 C.3     1  UNL1        0.1504
     24 C          -5.7052  -15.6733   26.3454 C.3     1  UNL1        0.1003
     25 N          -6.7594  -15.7499   27.4098 N.3     1  UNL1       -0.2933
     26 C          -8.1960  -15.4943   27.0623 C.3     1  UNL1        0.1011
     27 C          -8.5785  -15.1620   25.6504 C.3     1  UNL1        0.1592
     28 O          -7.5243  -15.0854   24.5861 O.3     1  UNL1       -0.3516
     29 H          -6.5043  -15.0702   28.1263 H       1  UNL1        0.1234
@<TRIPOS>BOND
     1    17    18    1
     2    18    19    1
     3    18    11    1
     4    11    12   ar
     5    12    13   ar
     6    13    14   ar
     7    14     1    1
     8     1     2   ar
     9     2     3   ar
    10     3     4   ar
    11     4     5   ar
    12     5     6   ar
    13     6     7   ar
    14     7     8   ar
    15     8     9   ar
    16     9    20    1
    17    20    22    1
    18    23    22    1
    19    23    24    1
    20    24    25    1
    21    25    26    1
    22    26    27    1
    23    27    28    1
    24     9    10   ar
    25    14    15   ar
    26    15    16   ar
    27    16    11   ar
    28    10     1   ar
    29     8     3   ar
    30    28    23    1
    31    20    21    1
    32    25    29    1
@<TRIPOS>MOLECULE
*****
 29 32 0 0 0
SMALL
GASTEIGER

@<TRIPOS>ATOM
      1 C           2.7787    0.2578   31.5978 C.ar    1  UNL1        0.0858
      2 C           2.9288    1.2060   32.7504 C.ar    1  UNL1        0.0399
      3 C           3.7204    0.7993   33.9579 C.ar    1  UNL1        0.1032
      4 N           3.8705    1.7475   35.1105 N.ar    1  UNL1       -0.2405
      5 C           4.6620    1.3409   36.3179 C.ar    1  UNL1        0.1195
      6 C           5.3035   -0.0139   36.3729 C.ar    1  UNL1        0.1196
      7 N           5.1534   -0.9621   35.2203 N.ar    1  UNL1       -0.2379
      8 C           4.3619   -0.5555   34.0128 C.ar    1  UNL1        0.1302
      9 C           4.2117   -1.5037   32.8602 C.ar    1  UNL1        0.1478
     10 N           3.4202   -1.0970   31.6527 N.ar    1  UNL1       -0.2292
     11 C           0.4040    1.4775   27.9752 C.ar    1  UNL1        0.1318
     12 C           0.7125    2.4842   29.0436 C.ar    1  UNL1        0.0344
     13 C           1.5041    2.0776   30.2511 C.ar    1  UNL1        0.0059
     14 C           1.9871    0.6644   30.3903 C.ar    1  UNL1        0.0370
     15 C           1.6786   -0.3423   29.3219 C.ar    1  UNL1        0.1018
     16 N           0.8871    0.0643   28.1144 N.ar    1  UNL1       -0.2291
     17 C          -0.0420    1.3226   25.4204 C.3     1  UNL1        0.1136
     18 N          -0.3876    1.8841   26.7677 N.pl3   1  UNL1       -0.2897
     19 C          -1.5247    2.8523   26.9075 C.3     1  UNL1        0.1136
     20 N           4.8532   -2.8585   32.9151 N.pl3   1  UNL1       -0.3148
     21 H           4.3596   -3.6218   33.2933 H       1  UNL1        0.1483
     22 C           6.2466   -3.0502   32.3940 C.3     1  UNL1        0.1195
     23 C           6.4800   -3.8749   31.1630 C.3     1  UNL1        0.1504
     24 C           6.8587   -5.3208   31.2895 C.3     1  UNL1        0.1003
     25 N           7.0922   -6.1454   30.0584 N.3     1  UNL1       -0.2933
     26 C           6.9469   -5.5242   28.7009 C.3     1  UNL1        0.1011
     27 C           6.5682   -4.0783   28.5743 C.3     1  UNL1        0.1592
     28 O           6.3348   -3.2536   29.8054 O.3     1  UNL1       -0.3516
     29 H           6.4355   -6.9249   30.0973 H       1  UNL1        0.1234
@<TRIPOS>BOND
     1    17    18    1
     2    18    19    1
     3    18    11    1
     4    11    12   ar
     5    12    13   ar
     6    13    14   ar
     7    14     1    1
     8     1     2   ar
     9     2     3   ar
    10     3     4   ar
    11     4     5   ar
    12     5     6   ar
    13     6     7   ar
    14     7     8   ar
    15     8     9   ar
    16     9    20    1
    17    20    22    1
    18    23    22    1
    19    23    24    1
    20    24    25    1
    21    25    26    1
    22    26    27    1
    23    27    28    1
    24     9    10   ar
    25    14    15   ar
    26    15    16   ar
    27    16    11   ar
    28    10     1   ar
    29     8     3   ar
    30    28    23    1
    31    20    21    1
    32    25    29    1
@<TRIPOS>MOLECULE
*****
 29 32 0 0 0
SMALL
GASTEIGER

@<TRIPOS>ATOM
      1 C           2.4027   -0.6927   20.9480 C.ar    1  UNL1        0.0858
      2 C           3.0511   -0.7174   22.3003 C.ar    1  UNL1        0.0399
      3 C           4.0206   -1.8082   22.6475 C.ar    1  UNL1        0.1032
      4 N           4.6691   -1.8329   23.9998 N.ar    1  UNL1       -0.2405
      5 C           5.6384   -2.9236   24.3469 C.ar    1  UNL1        0.1195
      6 C           5.9594   -3.9897   23.3416 C.ar    1  UNL1        0.1196
      7 N           5.3109   -3.9650   21.9893 N.ar    1  UNL1       -0.2379
      8 C           4.3415   -2.8743   21.6422 C.ar    1  UNL1        0.1302
      9 C           3.6930   -2.8495   20.2899 C.ar    1  UNL1        0.1478
     10 N           2.7236   -1.7588   19.9428 N.ar    1  UNL1       -0.2292
     11 C          -0.5056    2.5795   19.9067 C.ar    1  UNL1        0.1318
     12 C           0.4173    2.0344   18.8574 C.ar    1  UNL1        0.0344
     13 C           1.3867    0.9437   19.2044 C.ar    1  UNL1        0.0059
     14 C           1.4332    0.3981   20.6009 C.ar    1  UNL1        0.0370
     15 C           0.5103    0.9432   21.6502 C.ar    1  UNL1        0.1018
     16 N          -0.4591    2.0339   21.3032 N.ar    1  UNL1       -0.2291
     17 C          -2.9084    3.5643   19.9886 C.3     1  UNL1        0.1136
     18 N          -1.4750    3.6703   19.5596 N.pl3   1  UNL1       -0.2897
     19 C          -1.0110    4.8671   18.7834 C.3     1  UNL1        0.1136
     20 N           4.0139   -3.9156   19.2846 N.pl3   1  UNL1       -0.3148
     21 H           3.4422   -4.7140   19.2143 H       1  UNL1        0.1483
     22 C           5.2058   -3.7652   18.3865 C.3     1  UNL1        0.1195
     23 C           5.7147   -2.3979   18.0382 C.3     1  UNL1        0.1504
     24 C           7.0993   -1.9872   18.4434 C.3     1  UNL1        0.1003
     25 N           7.6082   -0.6198   18.0950 N.3     1  UNL1       -0.2933
     26 C           6.7325    0.3369   17.3416 C.3     1  UNL1        0.1011
     27 C           5.3478   -0.0737   16.9364 C.3     1  UNL1        0.1592
     28 O           4.8389   -1.4411   17.2847 O.3     1  UNL1       -0.3516
     29 H           8.4497   -0.7529   17.5342 H       1  UNL1        0.1234
@<TRIPOS>BOND
     1    17    18    1
     2    18    19    1
     3    18    11    1
     4    11    12   ar
     5    12    13   ar
     6    13    14   ar
     7    14     1    1
     8     1     2   ar
     9     2     3   ar
    10     3     4   ar
    11     4     5   ar
    12     5     6   ar
    13     6     7   ar
    14     7     8   ar
    15     8     9   ar
    16     9    20    1
    17    20    22    1
    18    23    22    1
    19    23    24    1
    20    24    25    1
    21    25    26    1
    22    26    27    1
    23    27    28    1
    24     9    10   ar
    25    14    15   ar
    26    15    16   ar
    27    16    11   ar
    28    10     1   ar
    29     8     3   ar
    30    28    23    1
    31    20    21    1
    32    25    29    1
@<TRIPOS>MOLECULE
*****
 29 32 0 0 0
SMALL
GASTEIGER

@<TRIPOS>ATOM
      1 C           0.1406    1.9813   19.3378 C.ar    1  UNL1        0.0858
      2 C           0.1297    2.9891   18.2269 C.ar    1  UNL1        0.0399
      3 C          -0.8916    4.0877   18.2208 C.ar    1  UNL1        0.1032
      4 N          -0.9025    5.0954   17.1098 N.ar    1  UNL1       -0.2405
      5 C          -1.9238    6.1940   17.1038 C.ar    1  UNL1        0.1195
      6 C          -2.9343    6.2847   18.2086 C.ar    1  UNL1        0.1196
      7 N          -2.9234    5.2770   19.3196 N.ar    1  UNL1       -0.2379
      8 C          -1.9021    4.1784   19.3256 C.ar    1  UNL1        0.1302
      9 C          -1.8912    3.1706   20.4366 C.ar    1  UNL1        0.1478
     10 N          -0.8699    2.0720   20.4427 N.ar    1  UNL1       -0.2292
     11 C           3.2045   -1.3144   19.3560 C.ar    1  UNL1        0.1318
     12 C           2.1669   -1.2490   20.4373 C.ar    1  UNL1        0.0344
     13 C           1.1456   -0.1505   20.4312 C.ar    1  UNL1        0.0059
     14 C           1.1619    0.8827   19.3439 C.ar    1  UNL1        0.0370
     15 C           2.1995    0.8173   18.2627 C.ar    1  UNL1        0.1018
     16 N           3.2208   -0.2813   18.2687 N.ar    1  UNL1       -0.2291
     17 C           4.3086   -3.3537   20.5276 C.3     1  UNL1        0.1136
     18 N           4.2259   -2.4130   19.3621 N.pl3   1  UNL1       -0.2897
     19 C           5.1645   -2.5709   18.2028 C.3     1  UNL1        0.1136
     20 N          -2.9017    3.2613   21.5415 N.pl3   1  UNL1       -0.3148
     21 H          -2.6126    3.4840   22.4558 H       1  UNL1        0.1483
     22 C          -4.3525    3.0128   21.2532 C.3     1  UNL1        0.1195
     23 C          -5.4075    3.6796   22.0853 C.3     1  UNL1        0.1504
     24 C          -6.6125    4.2825   21.4264 C.3     1  UNL1        0.1003
     25 N          -7.6675    4.9493   22.2586 N.3     1  UNL1       -0.2933
     26 C          -7.5174    5.0131   23.7496 C.3     1  UNL1        0.1011
     27 C          -6.3123    4.4101   24.4087 C.3     1  UNL1        0.1592
     28 O          -5.2574    3.7433   23.5765 O.3     1  UNL1       -0.3516
     29 H          -8.5429    4.4603   22.0714 H       1  UNL1        0.1234
@<TRIPOS>BOND
     1    17    18    1
     2    18    19    1
     3    18    11    1
     4    11    12   ar
     5    12    13   ar
     6    13    14   ar
     7    14     1    1
     8     1     2   ar
     9     2     3   ar
    10     3     4   ar
    11     4     5   ar
    12     5     6   ar
    13     6     7   ar
    14     7     8   ar
    15     8     9   ar
    16     9    20    1
    17    20    22    1
    18    23    22    1
    19    23    24    1
    20    24    25    1
    21    25    26    1
    22    26    27    1
    23    27    28    1
    24     9    10   ar
    25    14    15   ar
    26    15    16   ar
    27    16    11   ar
    28    10     1   ar
    29     8     3   ar
    30    28    23    1
    31    20    21    1
    32    25    29    1
@<TRIPOS>MOLECULE
*****
 29 32 0 0 0
SMALL
GASTEIGER

@<TRIPOS>ATOM
      1 C          -5.2930  -16.3786   23.4129 C.ar    1  UNL1        0.0858
      2 C          -5.0842  -16.2015   24.8877 C.ar    1  UNL1        0.0399
      3 C          -6.2389  -15.8272   25.7691 C.ar    1  UNL1        0.1032
      4 N          -6.0301  -15.6502   27.2438 N.ar    1  UNL1       -0.2405
      5 C          -7.1848  -15.2759   28.1251 C.ar    1  UNL1        0.1195
      6 C          -8.5481  -15.0786   27.5316 C.ar    1  UNL1        0.1196
      7 N          -8.7569  -15.2557   26.0568 N.ar    1  UNL1       -0.2379
      8 C          -7.6023  -15.6300   25.1756 C.ar    1  UNL1        0.1302
      9 C          -7.8110  -15.8070   23.7007 C.ar    1  UNL1        0.1478
     10 N          -6.6564  -16.1813   22.8194 N.ar    1  UNL1       -0.2292
     11 C          -1.8292  -17.5016   20.7689 C.ar    1  UNL1        0.1318
     12 C          -1.8629  -16.1552   21.4294 C.ar    1  UNL1        0.0344
     13 C          -3.0175  -15.7809   22.3107 C.ar    1  UNL1        0.0059
     14 C          -4.1384  -16.7529   22.5315 C.ar    1  UNL1        0.0370
     15 C          -4.1047  -18.0992   21.8710 C.ar    1  UNL1        0.1018
     16 N          -2.9501  -18.4735   20.9897 N.ar    1  UNL1       -0.2291
     17 C          -0.9010  -18.1475   18.4298 C.3     1  UNL1        0.1136
     18 N          -0.6746  -17.8759   19.8875 N.pl3   1  UNL1       -0.2897
     19 C           0.7065  -17.9785   20.4639 C.3     1  UNL1        0.1136
     20 N          -9.1744  -15.6098   23.1072 N.pl3   1  UNL1       -0.3148
     21 H          -9.5777  -14.7118   23.0878 H       1  UNL1        0.1483
     22 C          -9.9235  -16.7806   22.5432 C.3     1  UNL1        0.1195
     23 C          -9.9198  -18.0934   23.2688 C.3     1  UNL1        0.1504
     24 C         -10.8790  -18.3290   24.3977 C.3     1  UNL1        0.1003
     25 N         -10.8753  -19.6418   25.1234 N.3     1  UNL1       -0.2933
     26 C          -9.9125  -20.7189   24.7201 C.3     1  UNL1        0.1011
     27 C          -8.9532  -20.4833   23.5912 C.3     1  UNL1        0.1592
     28 O          -8.9569  -19.1705   22.8656 O.3     1  UNL1       -0.3516
     29 H         -11.8122  -20.0336   25.0280 H       1  UNL1        0.1234
@<TRIPOS>BOND
     1    17    18    1
     2    18    19    1
     3    18    11    1
     4    11    12   ar
     5    12    13   ar
     6    13    14   ar
     7    14     1    1
     8     1     2   ar
     9     2     3   ar
    10     3     4   ar
    11     4     5   ar
    12     5     6   ar
    13     6     7   ar
    14     7     8   ar
    15     8     9   ar
    16     9    20    1
    17    20    22    1
    18    23    22    1
    19    23    24    1
    20    24    25    1
    21    25    26    1
    22    26    27    1
    23    27    28    1
    24     9    10   ar
    25    14    15   ar
    26    15    16   ar
    27    16    11   ar
    28    10     1   ar
    29     8     3   ar
    30    28    23    1
    31    20    21    1
    32    25    29    1
@<TRIPOS>MOLECULE
*****
 29 32 0 0 0
SMALL
GASTEIGER

@<TRIPOS>ATOM
      1 C          -5.3616  -16.5617   23.4541 C.ar    1  UNL1        0.0858
      2 C          -5.0854  -15.9332   24.7878 C.ar    1  UNL1        0.0399
      3 C          -6.2180  -15.6324   25.7242 C.ar    1  UNL1        0.1032
      4 N          -5.9418  -15.0040   27.0578 N.ar    1  UNL1       -0.2405
      5 C          -7.0743  -14.7032   27.9942 C.ar    1  UNL1        0.1195
      6 C          -8.4832  -15.0309   27.5968 C.ar    1  UNL1        0.1196
      7 N          -8.7594  -15.6594   26.2632 N.ar    1  UNL1       -0.2379
      8 C          -7.6268  -15.9602   25.3269 C.ar    1  UNL1        0.1302
      9 C          -7.9030  -16.5887   23.9931 C.ar    1  UNL1        0.1478
     10 N          -6.7704  -16.8894   23.0568 N.ar    1  UNL1       -0.2292
     11 C          -1.9640  -17.4641   20.6449 C.ar    1  UNL1        0.1318
     12 C          -1.9318  -16.2229   21.4866 C.ar    1  UNL1        0.0344
     13 C          -3.0643  -15.9221   22.4230 C.ar    1  UNL1        0.0059
     14 C          -4.2290  -16.8625   22.5177 C.ar    1  UNL1        0.0370
     15 C          -4.2612  -18.1037   21.6760 C.ar    1  UNL1        0.1018
     16 N          -3.1287  -18.4045   20.7396 N.ar    1  UNL1       -0.2291
     17 C           0.5784  -17.7894   20.2201 C.3     1  UNL1        0.1136
     18 N          -0.8314  -17.7649   19.7085 N.pl3   1  UNL1       -0.2897
     19 C          -1.1087  -18.0411   18.2605 C.3     1  UNL1        0.1136
     20 N          -9.3118  -16.9164   23.5958 N.pl3   1  UNL1       -0.3148
     21 H          -9.9352  -17.2929   24.2583 H       1  UNL1        0.1483
     22 C          -9.7709  -16.6705   22.1892 C.3     1  UNL1        0.1195
     23 C          -9.6541  -17.7567   21.1613 C.3     1  UNL1        0.1504
     24 C         -10.8762  -18.2391   20.4377 C.3     1  UNL1        0.1003
     25 N         -10.7594  -19.3253   19.4099 N.3     1  UNL1       -0.2933
     26 C          -9.4205  -19.9292   19.1057 C.3     1  UNL1        0.1011
     27 C          -8.1983  -19.4469   19.8294 C.3     1  UNL1        0.1592
     28 O          -8.3151  -18.3606   20.8572 O.3     1  UNL1       -0.3516
     29 H         -11.1151  -18.9417   18.5343 H       1  UNL1        0.1234
@<TRIPOS>BOND
     1    17    18    1
     2    18    19    1
     3    18    11    1
     4    11    12   ar
     5    12    13   ar
     6    13    14   ar
     7    14     1    1
     8     1     2   ar
     9     2     3   ar
    10     3     4   ar
    11     4     5   ar
    12     5     6   ar
    13     6     7   ar
    14     7     8   ar
    15     8     9   ar
    16     9    20    1
    17    20    22    1
    18    23    22    1
    19    23    24    1
    20    24    25    1
    21    25    26    1
    22    26    27    1
    23    27    28    1
    24     9    10   ar
    25    14    15   ar
    26    15    16   ar
    27    16    11   ar
    28    10     1   ar
    29     8     3   ar
    30    28    23    1
    31    20    21    1
    32    25    29    1
