@<TRIPOS>MOLECULE
*****
 16 17 0 0 0
SMALL
GASTEIGER

@<TRIPOS>ATOM
      1 C          -8.1253  -18.6555   21.4586 C.ar    1  UNL1        0.1461
      2 C          -7.6414  -19.7930   22.3083 C.ar    1  UNL1        0.0403
      3 C          -6.2575  -20.1536   21.8557 C.ar    1  UNL1        0.0375
      4 C          -5.8862  -19.2389   20.7262 C.ar    1  UNL1        0.1385
      5 O          -7.0406  -18.3131   20.4808 O.2     1  UNL1       -0.4563
      6 C         -10.3378  -19.3896   19.5701 C.3     1  UNL1        0.0312
      7 C         -10.5660  -18.3462   20.6233 C.ar    1  UNL1       -0.0159
      8 C         -11.9004  -17.6699   20.7323 C.ar    1  UNL1        0.0165
      9 C         -12.1286  -16.6265   21.7855 C.ar    1  UNL1        0.0986
     10 N         -11.0224  -16.2595   22.7298 N.ar    1  UNL1       -0.2422
     11 C          -9.6880  -16.9358   22.6208 C.ar    1  UNL1        0.1016
     12 C          -9.4598  -17.9792   21.5676 C.ar    1  UNL1        0.0498
     13 C          -4.5884  -19.2485   19.9742 C.3     1  UNL1        0.1307
     14 N          -4.1587  -18.0349   19.2043 N.3     1  UNL1       -0.3148
     15 H          -4.8036  -17.8777   18.4299 H       1  UNL1        0.1192
     16 H          -3.2175  -18.1797   18.8389 H       1  UNL1        0.1192
@<TRIPOS>BOND
     1     6     7    1
     2     7     8   ar
     3     8     9   ar
     4     9    10   ar
     5    10    11   ar
     6    11    12   ar
     7    12     1    1
     8     1     2   ar
     9     2     3   ar
    10     3     4   ar
    11     4    13    1
    12    13    14    1
    13     4     5   ar
    14    12     7   ar
    15     5     1   ar
    16    14    15    1
    17    14    16    1
@<TRIPOS>MOLECULE
*****
 16 17 0 0 0
SMALL
GASTEIGER

@<TRIPOS>ATOM
      1 C          -6.7764  -19.5173   20.5288 C.ar    1  UNL1        0.1461
      2 C          -6.0431  -20.8243   20.5922 C.ar    1  UNL1        0.0403
      3 C          -4.6304  -20.5853   20.1481 C.ar    1  UNL1        0.0375
      4 C          -4.4906  -19.1305   19.8101 C.ar    1  UNL1        0.1385
      5 O          -5.8169  -18.4705   20.0454 O.2     1  UNL1       -0.4563
      6 C          -8.9311  -20.1697   18.5460 C.3     1  UNL1        0.0312
      7 C          -9.2937  -19.6222   19.8946 C.ar    1  UNL1       -0.0159
      8 C         -10.7336  -19.4008   20.2518 C.ar    1  UNL1        0.0165
      9 C         -11.0961  -18.8533   21.6004 C.ar    1  UNL1        0.0986
     10 N         -10.0188  -18.5271   22.5918 N.ar    1  UNL1       -0.2422
     11 C          -8.5789  -18.7485   22.2346 C.ar    1  UNL1        0.1016
     12 C          -8.2163  -19.2960   20.8860 C.ar    1  UNL1        0.0498
     13 C          -3.2436  -18.4545   19.3224 C.3     1  UNL1        0.1307
     14 N          -3.3199  -17.0810   18.7245 N.3     1  UNL1       -0.3148
     15 H          -3.8460  -17.1190   17.8514 H       1  UNL1        0.1192
     16 H          -2.3773  -16.7381   18.5388 H       1  UNL1        0.1192
@<TRIPOS>BOND
     1     6     7    1
     2     7     8   ar
     3     8     9   ar
     4     9    10   ar
     5    10    11   ar
     6    11    12   ar
     7    12     1    1
     8     1     2   ar
     9     2     3   ar
    10     3     4   ar
    11     4    13    1
    12    13    14    1
    13     4     5   ar
    14    12     7   ar
    15     5     1   ar
    16    14    15    1
    17    14    16    1
@<TRIPOS>MOLECULE
*****
 16 17 0 0 0
SMALL
GASTEIGER

@<TRIPOS>ATOM
      1 C          -6.7475  -18.8000   21.8058 C.ar    1  UNL1        0.1461
      2 C          -7.7492  -19.6668   22.5095 C.ar    1  UNL1        0.0403
      3 C          -9.0525  -18.9257   22.5552 C.ar    1  UNL1        0.0375
      4 C          -8.8563  -17.6008   21.8796 C.ar    1  UNL1        0.1385
      5 O          -7.4317  -17.5232   21.4164 O.2     1  UNL1       -0.4563
      6 C          -4.5655  -17.5095   23.4100 C.3     1  UNL1        0.0312
      7 C          -4.2223  -18.5035   22.3404 C.ar    1  UNL1       -0.0159
      8 C          -2.7882  -18.8523   22.0728 C.ar    1  UNL1        0.0165
      9 C          -2.4451  -19.8464   21.0032 C.ar    1  UNL1        0.0986
     10 N          -3.5360  -20.4917   20.2011 N.ar    1  UNL1       -0.2422
     11 C          -4.9701  -20.1429   20.4687 C.ar    1  UNL1        0.1016
     12 C          -5.3133  -19.1488   21.5383 C.ar    1  UNL1        0.0498
     13 C          -9.9012  -16.5400   21.6989 C.3     1  UNL1        0.1307
     14 N          -9.5248  -15.2067   21.1240 N.3     1  UNL1       -0.3148
     15 H          -8.8998  -14.7227   21.7686 H       1  UNL1        0.1192
     16 H         -10.3661  -14.6478   20.9820 H       1  UNL1        0.1192
@<TRIPOS>BOND
     1     6     7    1
     2     7     8   ar
     3     8     9   ar
     4     9    10   ar
     5    10    11   ar
     6    11    12   ar
     7    12     1    1
     8     1     2   ar
     9     2     3   ar
    10     3     4   ar
    11     4    13    1
    12    13    14    1
    13     4     5   ar
    14    12     7   ar
    15     5     1   ar
    16    14    15    1
    17    14    16    1
@<TRIPOS>MOLECULE
*****
 16 17 0 0 0
SMALL
GASTEIGER

@<TRIPOS>ATOM
      1 C          -6.8695  -19.1661   22.2270 C.ar    1  UNL1        0.1461
      2 C          -7.6442  -17.8872   22.1071 C.ar    1  UNL1        0.0403
      3 C          -9.0076  -18.1149   22.6895 C.ar    1  UNL1        0.0375
      4 C          -9.0757  -19.5345   23.1693 C.ar    1  UNL1        0.1385
      5 O          -7.7542  -20.1841   22.8835 O.2     1  UNL1       -0.4563
      6 C          -6.3189  -20.9072   19.8467 C.3     1  UNL1        0.0312
      7 C          -5.1827  -20.2586   20.5804 C.ar    1  UNL1       -0.0159
      8 C          -3.7711  -20.4805   20.1240 C.ar    1  UNL1        0.0165
      9 C          -2.6349  -19.8318   20.8577 C.ar    1  UNL1        0.0986
     10 N          -2.9102  -18.9613   22.0478 N.ar    1  UNL1       -0.2422
     11 C          -4.3217  -18.7394   22.5042 C.ar    1  UNL1        0.1016
     12 C          -5.4580  -19.3880   21.7705 C.ar    1  UNL1        0.0498
     13 C         -10.2576  -20.1893   23.8206 C.3     1  UNL1        0.1307
     14 N         -10.2873  -20.3733   25.3090 N.3     1  UNL1       -0.3148
     15 H          -9.5556  -21.0281   25.5853 H       1  UNL1        0.1192
     16 H         -11.1965  -20.7420   25.5879 H       1  UNL1        0.1192
@<TRIPOS>BOND
     1     6     7    1
     2     7     8   ar
     3     8     9   ar
     4     9    10   ar
     5    10    11   ar
     6    11    12   ar
     7    12     1    1
     8     1     2   ar
     9     2     3   ar
    10     3     4   ar
    11     4    13    1
    12    13    14    1
    13     4     5   ar
    14    12     7   ar
    15     5     1   ar
    16    14    15    1
    17    14    16    1
@<TRIPOS>MOLECULE
*****
 16 17 0 0 0
SMALL
GASTEIGER

@<TRIPOS>ATOM
      1 C          -8.9293  -16.3128   23.6588 C.ar    1  UNL1        0.1461
      2 C          -8.8190  -15.5722   24.9585 C.ar    1  UNL1        0.0403
      3 C          -7.3659  -15.3066   25.2188 C.ar    1  UNL1        0.0375
      4 C          -6.5780  -15.8831   24.0800 C.ar    1  UNL1        0.1385
      5 O          -7.5443  -16.5049   23.1158 O.2     1  UNL1       -0.4563
      6 C         -10.4077  -18.6655   24.7898 C.3     1  UNL1        0.0312
      7 C         -10.9405  -17.9557   23.5806 C.ar    1  UNL1       -0.0159
      8 C         -12.2124  -18.4222   22.9368 C.ar    1  UNL1        0.0165
      9 C         -12.7452  -17.7125   21.7275 C.ar    1  UNL1        0.0986
     10 N         -12.0060  -16.5361   21.1620 N.ar    1  UNL1       -0.2422
     11 C         -10.7341  -16.0696   21.8058 C.ar    1  UNL1        0.1016
     12 C         -10.2013  -16.7794   23.0151 C.ar    1  UNL1        0.0498
     13 C          -5.0859  -15.8445   23.9313 C.3     1  UNL1        0.1307
     14 N          -4.3819  -16.9155   23.1521 N.3     1  UNL1       -0.3148
     15 H          -4.4823  -17.8086   23.6344 H       1  UNL1        0.1192
     16 H          -3.3922  -16.6822   23.0711 H       1  UNL1        0.1192
@<TRIPOS>BOND
     1     6     7    1
     2     7     8   ar
     3     8     9   ar
     4     9    10   ar
     5    10    11   ar
     6    11    12   ar
     7    12     1    1
     8     1     2   ar
     9     2     3   ar
    10     3     4   ar
    11     4    13    1
    12    13    14    1
    13     4     5   ar
    14    12     7   ar
    15     5     1   ar
    16    14    15    1
    17    14    16    1
@<TRIPOS>MOLECULE
*****
 16 17 0 0 0
SMALL
GASTEIGER

@<TRIPOS>ATOM
      1 C          -8.8481  -16.5402   23.8941 C.ar    1  UNL1        0.1461
      2 C          -7.6814  -16.6437   22.9570 C.ar    1  UNL1        0.0403
      3 C          -6.4641  -16.1410   23.6752 C.ar    1  UNL1        0.0375
      4 C          -6.8785  -15.7270   25.0561 C.ar    1  UNL1        0.1385
      5 O          -8.3519  -15.9737   25.1914 O.2     1  UNL1       -0.4563
      6 C         -10.0070  -19.0299   25.1018 C.3     1  UNL1        0.0312
      7 C         -10.8421  -18.1790   24.1916 C.ar    1  UNL1       -0.0159
      8 C         -12.2566  -18.5729   23.8852 C.ar    1  UNL1        0.0165
      9 C         -13.0917  -17.7220   22.9749 C.ar    1  UNL1        0.0986
     10 N         -12.5123  -16.4772   22.3710 N.ar    1  UNL1       -0.2422
     11 C         -11.0978  -16.0833   22.6774 C.ar    1  UNL1        0.1016
     12 C         -10.2627  -16.9342   23.5877 C.ar    1  UNL1        0.0498
     13 C          -5.9778  -15.1649   26.1156 C.3     1  UNL1        0.1307
     14 N          -6.5584  -14.6605   27.4034 N.3     1  UNL1       -0.3148
     15 H          -7.1360  -13.8405   27.2178 H       1  UNL1        0.1192
     16 H          -5.8033  -14.4073   28.0407 H       1  UNL1        0.1192
@<TRIPOS>BOND
     1     6     7    1
     2     7     8   ar
     3     8     9   ar
     4     9    10   ar
     5    10    11   ar
     6    11    12   ar
     7    12     1    1
     8     1     2   ar
     9     2     3   ar
    10     3     4   ar
    11     4    13    1
    12    13    14    1
    13     4     5   ar
    14    12     7   ar
    15     5     1   ar
    16    14    15    1
    17    14    16    1
@<TRIPOS>MOLECULE
*****
 16 17 0 0 0
SMALL
GASTEIGER

@<TRIPOS>ATOM
      1 C          -8.7681  -16.2815   23.1802 C.ar    1  UNL1        0.1461
      2 C          -7.5178  -15.4581   23.0869 C.ar    1  UNL1        0.0403
      3 C          -7.1298  -15.0456   24.4759 C.ar    1  UNL1        0.0375
      4 C          -8.1403  -15.6140   25.4276 C.ar    1  UNL1        0.1385
      5 O          -9.1528  -16.3779   24.6268 O.2     1  UNL1       -0.4563
      6 C          -8.4879  -19.2160   22.6229 C.3     1  UNL1        0.0312
      7 C          -9.3643  -18.3672   21.7503 C.ar    1  UNL1       -0.0159
      8 C         -10.1007  -18.9856   20.5991 C.ar    1  UNL1        0.0165
      9 C         -10.9771  -18.1368   19.7265 C.ar    1  UNL1        0.0986
     10 N         -11.1172  -16.6696   20.0051 N.ar    1  UNL1       -0.2422
     11 C         -10.3808  -16.0512   21.1563 C.ar    1  UNL1        0.1016
     12 C          -9.5044  -16.9000   22.0289 C.ar    1  UNL1        0.0498
     13 C          -8.1386  -15.4478   26.9184 C.3     1  UNL1        0.1307
     14 N          -7.0259  -14.6972   27.5880 N.3     1  UNL1       -0.3148
     15 H          -6.1519  -15.2102   27.4724 H       1  UNL1        0.1192
     16 H          -7.2328  -14.5976   28.5818 H       1  UNL1        0.1192
@<TRIPOS>BOND
     1     6     7    1
     2     7     8   ar
     3     8     9   ar
     4     9    10   ar
     5    10    11   ar
     6    11    12   ar
     7    12     1    1
     8     1     2   ar
     9     2     3   ar
    10     3     4   ar
    11     4    13    1
    12    13    14    1
    13     4     5   ar
    14    12     7   ar
    15     5     1   ar
    16    14    15    1
    17    14    16    1
@<TRIPOS>MOLECULE
*****
 16 17 0 0 0
SMALL
GASTEIGER

@<TRIPOS>ATOM
      1 C          -8.9010  -16.7945   24.0735 C.ar    1  UNL1        0.1461
      2 C         -10.1879  -16.1086   23.7223 C.ar    1  UNL1        0.0403
      3 C         -11.1103  -17.1305   23.1265 C.ar    1  UNL1        0.0375
      4 C         -10.3934  -18.4481   23.1095 C.ar    1  UNL1        0.1385
      5 O          -9.0280  -18.2404   23.6947 O.2     1  UNL1       -0.4563
      6 C          -8.6372  -16.6724   27.0594 C.3     1  UNL1        0.0312
      7 C          -7.5663  -16.0871   26.1873 C.ar    1  UNL1       -0.0159
      8 C          -6.3635  -15.4407   26.8082 C.ar    1  UNL1        0.0165
      9 C          -5.2926  -14.8554   25.9361 C.ar    1  UNL1        0.0986
     10 N          -5.4245  -14.9164   24.4432 N.ar    1  UNL1       -0.2422
     11 C          -6.6272  -15.5628   23.8223 C.ar    1  UNL1        0.1016
     12 C          -7.6982  -16.1481   24.6944 C.ar    1  UNL1        0.0498
     13 C         -10.9451  -19.7454   22.5972 C.3     1  UNL1        0.1307
     14 N         -10.9635  -20.0226   21.1231 N.3     1  UNL1       -0.3148
     15 H         -11.6006  -19.3725   20.6628 H       1  UNL1        0.1192
     16 H         -11.2780  -20.9792   20.9609 H       1  UNL1        0.1192
@<TRIPOS>BOND
     1     6     7    1
     2     7     8   ar
     3     8     9   ar
     4     9    10   ar
     5    10    11   ar
     6    11    12   ar
     7    12     1    1
     8     1     2   ar
     9     2     3   ar
    10     3     4   ar
    11     4    13    1
    12    13    14    1
    13     4     5   ar
    14    12     7   ar
    15     5     1   ar
    16    14    15    1
    17    14    16    1
@<TRIPOS>MOLECULE
*****
 16 17 0 0 0
SMALL
GASTEIGER

@<TRIPOS>ATOM
      1 C          -4.4079  -18.7544   21.5628 C.ar    1  UNL1        0.1461
      2 C          -3.4008  -19.5526   22.3364 C.ar    1  UNL1        0.0403
      3 C          -2.0562  -19.3363   21.7077 C.ar    1  UNL1        0.0375
      4 C          -2.2323  -18.4044   20.5456 C.ar    1  UNL1        0.1385
      5 O          -3.6858  -18.0447   20.4560 O.2     1  UNL1       -0.4563
      6 C          -6.2805  -20.7346   20.3088 C.3     1  UNL1        0.0312
      7 C          -6.8153  -19.6691   21.2192 C.ar    1  UNL1       -0.0159
      8 C          -8.2863  -19.5936   21.5026 C.ar    1  UNL1        0.0165
      9 C          -8.8211  -18.5281   22.4129 C.ar    1  UNL1        0.0986
     10 N          -7.8848  -17.5381   23.0399 N.ar    1  UNL1       -0.2422
     11 C          -6.4138  -17.6135   22.7565 C.ar    1  UNL1        0.1016
     12 C          -5.8791  -18.6790   21.8461 C.ar    1  UNL1        0.0498
     13 C          -1.1457  -17.9176   19.6332 C.3     1  UNL1        0.1307
     14 N          -1.3777  -17.8644   18.1522 N.3     1  UNL1       -0.3148
     15 H          -1.4917  -18.8117   17.7917 H       1  UNL1        0.1192
     16 H          -0.5786  -17.4218   17.6986 H       1  UNL1        0.1192
@<TRIPOS>BOND
     1     6     7    1
     2     7     8   ar
     3     8     9   ar
     4     9    10   ar
     5    10    11   ar
     6    11    12   ar
     7    12     1    1
     8     1     2   ar
     9     2     3   ar
    10     3     4   ar
    11     4    13    1
    12    13    14    1
    13     4     5   ar
    14    12     7   ar
    15     5     1   ar
    16    14    15    1
    17    14    16    1
