@<TRIPOS>MOLECULE
*****
 31 34 0 0 0
SMALL
GASTEIGER

@<TRIPOS>ATOM
      1 C          -8.0753  -16.0988   24.1493 C.ar    1  UNL1        0.1311
      2 C          -7.5316  -17.0053   23.0851 C.ar    1  UNL1        0.0339
      3 C          -6.0538  -17.2415   22.9844 C.ar    1  UNL1        0.0027
      4 C          -5.1197  -16.5712   23.9477 C.ar    1  UNL1        0.0283
      5 C          -5.6634  -15.6646   25.0119 C.ar    1  UNL1        0.2196
      6 F          -4.7293  -14.9943   25.9753 F       1  UNL1       -0.1835
      7 N          -7.1412  -15.4284   25.1127 N.ar    1  UNL1       -0.2035
      8 N          -9.5532  -15.8625   24.2501 N.pl3   1  UNL1       -0.3143
      9 H          -9.8924  -14.9923   24.5613 H       1  UNL1        0.1485
     10 C         -10.5142  -16.9522   23.8770 C.3     1  UNL1        0.1178
     11 C         -10.8810  -18.2904   20.1589 C.ar    1  UNL1        0.2248
     12 C         -10.4123  -18.1571   21.5776 C.ar    1  UNL1        0.0573
     13 C         -10.9829  -17.0854   22.4584 C.ar    1  UNL1        0.0311
     14 C         -12.0222  -16.1470   21.9206 C.ar    1  UNL1        0.1570
     15 F         -12.5928  -15.0753   22.8014 F       1  UNL1       -0.2028
     16 C         -12.4909  -16.2803   20.5020 C.ar    1  UNL1        0.1313
     17 N         -11.9203  -17.3520   19.6211 N.ar    1  UNL1       -0.2078
     18 C          -8.8366  -19.6403   19.2940 C.3     1  UNL1        0.2542
     19 O         -10.3105  -19.3622   19.2780 O.3     1  UNL1       -0.4561
     20 C          -3.6418  -16.8074   23.8469 C.3     1  UNL1        0.0582
     21 C          -3.0079  -17.0320   22.5061 C.ar    1  UNL1        0.0044
     22 C          -1.9119  -16.2068   21.8997 C.ar    1  UNL1        0.0966
     23 N          -1.5854  -16.7861   20.5551 N.ar    1  UNL1       -0.2273
     24 C          -2.4797  -17.9693   20.3306 C.ar    1  UNL1        0.1402
     25 N          -2.6070  -18.9279   19.1839 N.ar    1  UNL1       -0.3377
     26 C          -3.6135  -20.0385   19.2431 C.ar    1  UNL1        0.0691
     27 C          -4.4926  -20.1905   20.4489 C.ar    1  UNL1       -0.0047
     28 C          -5.4992  -21.3011   20.5081 C.3     1  UNL1        0.0326
     29 C          -4.3653  -19.2318   21.5956 C.ar    1  UNL1       -0.0001
     30 C          -3.3588  -18.1213   21.5364 C.ar    1  UNL1        0.0315
     31 H          -2.0299  -18.8282   18.3925 H       1  UNL1        0.1674
@<TRIPOS>BOND
     1    18    19    1
     2    19    11    1
     3    11    12   ar
     4    12    13   ar
     5    13    10    1
     6    10     8    1
     7     8     1    1
     8     1     2   ar
     9     2     3   ar
    10     3     4   ar
    11     4    20    1
    12    20    21    1
    13    21    22   ar
    14    22    23   ar
    15    23    24   ar
    16    24    25   ar
    17    25    26   ar
    18    26    27   ar
    19    27    28    1
    20    27    29   ar
    21    29    30   ar
    22     4     5   ar
    23     5     6    1
    24     5     7   ar
    25    13    14   ar
    26    14    15    1
    27    14    16   ar
    28    16    17   ar
    29    17    11   ar
    30     7     1   ar
    31    30    21   ar
    32    30    24    1
    33     8     9    1
    34    25    31    1
@<TRIPOS>MOLECULE
*****
 31 34 0 0 0
SMALL
GASTEIGER

@<TRIPOS>ATOM
      1 C          -9.6873  -19.2922   22.1101 C.ar    1  UNL1        0.1311
      2 C          -8.7947  -20.0165   23.0737 C.ar    1  UNL1        0.0339
      3 C          -7.4711  -20.5510   22.6132 C.ar    1  UNL1        0.0027
      4 C          -7.0400  -20.3613   21.1891 C.ar    1  UNL1        0.0283
      5 C          -7.9326  -19.6370   20.2254 C.ar    1  UNL1        0.2196
      6 F          -7.5015  -19.4472   18.8013 F       1  UNL1       -0.1835
      7 N          -9.2563  -19.1024   20.6860 N.ar    1  UNL1       -0.2035
      8 N         -11.0110  -18.7576   22.5706 N.pl3   1  UNL1       -0.3143
      9 H         -11.8359  -19.2640   22.3905 H       1  UNL1        0.1485
     10 C         -11.0780  -17.4516   23.3054 C.3     1  UNL1        0.1178
     11 C          -7.9525  -15.6100   24.9145 C.ar    1  UNL1        0.2248
     12 C          -9.1824  -16.4577   24.7780 C.ar    1  UNL1        0.0573
     13 C          -9.8481  -16.6039   23.4417 C.ar    1  UNL1        0.0311
     14 C          -9.2838  -15.9023   22.2420 C.ar    1  UNL1        0.1570
     15 F          -9.9495  -16.0485   20.9057 F       1  UNL1       -0.2028
     16 C          -8.0539  -15.0546   22.3785 C.ar    1  UNL1        0.1313
     17 N          -7.3882  -14.9084   23.7147 N.ar    1  UNL1       -0.2078
     18 C          -8.0197  -15.8527   27.5003 C.3     1  UNL1        0.2542
     19 O          -7.2867  -15.4638   26.2507 O.3     1  UNL1       -0.4561
     20 C          -5.7162  -20.8959   20.7285 C.3     1  UNL1        0.0582
     21 C          -4.5894  -19.9521   20.4290 C.ar    1  UNL1        0.0044
     22 C          -3.7284  -19.9686   19.2009 C.ar    1  UNL1        0.0966
     23 N          -2.7327  -18.8529   19.3179 N.ar    1  UNL1       -0.2273
     24 C          -2.9783  -18.1469   20.6184 C.ar    1  UNL1        0.1402
     25 N          -2.3054  -16.9731   21.2659 N.ar    1  UNL1       -0.3377
     26 C          -2.7800  -16.4787   22.6002 C.ar    1  UNL1        0.0691
     27 C          -3.9275  -17.1581   23.2869 C.ar    1  UNL1       -0.0047
     28 C          -4.4021  -16.6637   24.6212 C.3     1  UNL1        0.0326
     29 C          -4.6005  -18.3319   22.6393 C.ar    1  UNL1       -0.0001
     30 C          -4.1259  -18.8262   21.3051 C.ar    1  UNL1        0.0315
     31 H          -1.5522  -16.5272   20.8152 H       1  UNL1        0.1674
@<TRIPOS>BOND
     1    18    19    1
     2    19    11    1
     3    11    12   ar
     4    12    13   ar
     5    13    10    1
     6    10     8    1
     7     8     1    1
     8     1     2   ar
     9     2     3   ar
    10     3     4   ar
    11     4    20    1
    12    20    21    1
    13    21    22   ar
    14    22    23   ar
    15    23    24   ar
    16    24    25   ar
    17    25    26   ar
    18    26    27   ar
    19    27    28    1
    20    27    29   ar
    21    29    30   ar
    22     4     5   ar
    23     5     6    1
    24     5     7   ar
    25    13    14   ar
    26    14    15    1
    27    14    16   ar
    28    16    17   ar
    29    17    11   ar
    30     7     1   ar
    31    30    21   ar
    32    30    24    1
    33     8     9    1
    34    25    31    1
@<TRIPOS>MOLECULE
*****
 31 34 0 0 0
SMALL
GASTEIGER

@<TRIPOS>ATOM
      1 C          -9.8169  -19.2609   21.0459 C.ar    1  UNL1        0.1311
      2 C          -9.1113  -18.9215   19.7664 C.ar    1  UNL1        0.0339
      3 C          -7.6677  -19.2869   19.5864 C.ar    1  UNL1        0.0027
      4 C          -6.9297  -19.9916   20.6858 C.ar    1  UNL1        0.0283
      5 C          -7.6353  -20.3310   21.9653 C.ar    1  UNL1        0.2196
      6 F          -6.8972  -21.0357   23.0646 F       1  UNL1       -0.1835
      7 N          -9.0789  -19.9656   22.1453 N.ar    1  UNL1       -0.2035
      8 N         -11.2605  -18.8955   21.2260 N.pl3   1  UNL1       -0.3143
      9 H         -11.9464  -19.2992   20.6465 H       1  UNL1        0.1485
     10 C         -11.6592  -17.9150   22.2890 C.3     1  UNL1        0.1178
     11 C          -8.8224  -16.0843   24.3748 C.ar    1  UNL1        0.2248
     12 C          -9.7752  -16.4156   23.2646 C.ar    1  UNL1        0.0573
     13 C         -10.7064  -17.5838   23.3991 C.ar    1  UNL1        0.0311
     14 C         -10.6848  -18.4207   24.6437 C.ar    1  UNL1        0.1570
     15 F         -11.6160  -19.5890   24.7782 F       1  UNL1       -0.2028
     16 C          -9.7320  -18.0894   25.7538 C.ar    1  UNL1        0.1313
     17 N          -8.8008  -16.9212   25.6194 N.ar    1  UNL1       -0.2078
     18 C          -6.4418  -15.1443   23.9284 C.3     1  UNL1        0.2542
     19 O          -7.8911  -14.9160   24.2404 O.3     1  UNL1       -0.4561
     20 C          -5.4860  -20.3570   20.5057 C.3     1  UNL1        0.0582
     21 C          -4.4182  -19.5524   21.1858 C.ar    1  UNL1        0.0044
     22 C          -4.2854  -19.3344   22.6639 C.ar    1  UNL1        0.0966
     23 N          -3.0809  -18.4718   22.8988 N.ar    1  UNL1       -0.2273
     24 C          -2.4693  -18.1568   21.5658 C.ar    1  UNL1        0.1402
     25 N          -1.2666  -17.3480   21.1793 N.ar    1  UNL1       -0.3377
     26 C          -0.8904  -17.2072   19.7341 C.ar    1  UNL1        0.0691
     27 C          -1.7170  -17.8751   18.6755 C.ar    1  UNL1       -0.0047
     28 C          -1.3407  -17.7342   17.2302 C.3     1  UNL1        0.0326
     29 C          -2.9197  -18.6838   19.0620 C.ar    1  UNL1       -0.0001
     30 C          -3.2958  -18.8246   20.5071 C.ar    1  UNL1        0.0315
     31 H          -0.7242  -16.9097   21.8742 H       1  UNL1        0.1674
@<TRIPOS>BOND
     1    18    19    1
     2    19    11    1
     3    11    12   ar
     4    12    13   ar
     5    13    10    1
     6    10     8    1
     7     8     1    1
     8     1     2   ar
     9     2     3   ar
    10     3     4   ar
    11     4    20    1
    12    20    21    1
    13    21    22   ar
    14    22    23   ar
    15    23    24   ar
    16    24    25   ar
    17    25    26   ar
    18    26    27   ar
    19    27    28    1
    20    27    29   ar
    21    29    30   ar
    22     4     5   ar
    23     5     6    1
    24     5     7   ar
    25    13    14   ar
    26    14    15    1
    27    14    16   ar
    28    16    17   ar
    29    17    11   ar
    30     7     1   ar
    31    30    21   ar
    32    30    24    1
    33     8     9    1
    34    25    31    1
@<TRIPOS>MOLECULE
*****
 31 34 0 0 0
SMALL
GASTEIGER

@<TRIPOS>ATOM
      1 C          -9.4326  -19.0261   21.0540 C.ar    1  UNL1        0.1311
      2 C          -8.8612  -18.9485   19.6692 C.ar    1  UNL1        0.0339
      3 C          -7.5106  -19.5340   19.3813 C.ar    1  UNL1        0.0027
      4 C          -6.7313  -20.1971   20.4782 C.ar    1  UNL1        0.0283
      5 C          -7.3027  -20.2747   21.8629 C.ar    1  UNL1        0.2196
      6 F          -6.5234  -20.9378   22.9597 F       1  UNL1       -0.1835
      7 N          -8.6533  -19.6892   22.1508 N.ar    1  UNL1       -0.2035
      8 N         -10.7832  -18.4406   21.3419 N.pl3   1  UNL1       -0.3143
      9 H         -11.5866  -18.8274   20.9245 H       1  UNL1        0.1485
     10 C         -10.9100  -17.2656   22.2658 C.3     1  UNL1        0.1178
     11 C          -8.6265  -16.2603   25.3520 C.ar    1  UNL1        0.2248
     12 C          -9.2804  -16.2272   24.0024 C.ar    1  UNL1        0.0573
     13 C         -10.2561  -17.2987   23.6153 C.ar    1  UNL1        0.0311
     14 C         -10.5780  -18.4033   24.5778 C.ar    1  UNL1        0.1570
     15 F         -11.5537  -19.4748   24.1907 F       1  UNL1       -0.2028
     16 C          -9.9241  -18.4363   25.9273 C.ar    1  UNL1        0.1313
     17 N          -8.9484  -17.3648   26.3144 N.ar    1  UNL1       -0.2078
     18 C          -6.8376  -15.3320   26.9914 C.3     1  UNL1        0.2542
     19 O          -7.6508  -15.1888   25.7392 O.3     1  UNL1       -0.4561
     20 C          -5.3806  -20.7827   20.1902 C.3     1  UNL1        0.0582
     21 C          -4.1745  -19.8928   20.1311 C.ar    1  UNL1        0.0044
     22 C          -3.1130  -19.9157   19.0716 C.ar    1  UNL1        0.0966
     23 N          -2.1007  -18.8609   19.4068 N.ar    1  UNL1       -0.2273
     24 C          -2.5365  -18.1860   20.6736 C.ar    1  UNL1        0.1402
     25 N          -1.9319  -17.0731   21.4772 N.ar    1  UNL1       -0.3377
     26 C          -2.6090  -16.5980   22.7285 C.ar    1  UNL1        0.0691
     27 C          -3.8908  -17.2358   23.1761 C.ar    1  UNL1       -0.0047
     28 C          -4.5679  -16.7607   24.4275 C.3     1  UNL1        0.0326
     29 C          -4.4954  -18.3487   22.3725 C.ar    1  UNL1       -0.0001
     30 C          -3.8183  -18.8238   21.1212 C.ar    1  UNL1        0.0315
     31 H          -1.0906  -16.6545   21.1834 H       1  UNL1        0.1674
@<TRIPOS>BOND
     1    18    19    1
     2    19    11    1
     3    11    12   ar
     4    12    13   ar
     5    13    10    1
     6    10     8    1
     7     8     1    1
     8     1     2   ar
     9     2     3   ar
    10     3     4   ar
    11     4    20    1
    12    20    21    1
    13    21    22   ar
    14    22    23   ar
    15    23    24   ar
    16    24    25   ar
    17    25    26   ar
    18    26    27   ar
    19    27    28    1
    20    27    29   ar
    21    29    30   ar
    22     4     5   ar
    23     5     6    1
    24     5     7   ar
    25    13    14   ar
    26    14    15    1
    27    14    16   ar
    28    16    17   ar
    29    17    11   ar
    30     7     1   ar
    31    30    21   ar
    32    30    24    1
    33     8     9    1
    34    25    31    1
@<TRIPOS>MOLECULE
*****
 31 34 0 0 0
SMALL
GASTEIGER

@<TRIPOS>ATOM
      1 C          -9.3625  -19.5156   21.6660 C.ar    1  UNL1        0.1311
      2 C          -8.9904  -19.3296   20.2248 C.ar    1  UNL1        0.0339
      3 C          -7.6383  -19.7594   19.7379 C.ar    1  UNL1        0.0027
      4 C          -6.6584  -20.3751   20.6921 C.ar    1  UNL1        0.0283
      5 C          -7.0305  -20.5610   22.1333 C.ar    1  UNL1        0.2196
      6 F          -6.0505  -21.1767   23.0875 F       1  UNL1       -0.1835
      7 N          -8.3825  -20.1313   22.6202 N.ar    1  UNL1       -0.2035
      8 N         -10.7146  -19.0858   22.1529 N.pl3   1  UNL1       -0.3143
      9 H         -11.5211  -19.5626   21.8505 H       1  UNL1        0.1485
     10 C         -10.8380  -17.9297   23.1007 C.3     1  UNL1        0.1178
     11 C          -8.2114  -15.1451   22.0535 C.ar    1  UNL1        0.2248
     12 C          -9.3103  -16.1622   21.9642 C.ar    1  UNL1        0.0573
     13 C          -9.7391  -16.9127   23.1901 C.ar    1  UNL1        0.0311
     14 C          -9.0690  -16.6461   24.5054 C.ar    1  UNL1        0.1570
     15 F          -9.4978  -17.3966   25.7313 F       1  UNL1       -0.2028
     16 C          -7.9701  -15.6290   24.5947 C.ar    1  UNL1        0.1313
     17 N          -7.5413  -14.8785   23.3687 N.ar    1  UNL1       -0.2078
     18 C          -8.8011  -13.6741   19.9947 C.3     1  UNL1        0.2542
     19 O          -7.7826  -14.3946   20.8275 O.3     1  UNL1       -0.4561
     20 C          -5.3062  -20.8049   20.2051 C.3     1  UNL1        0.0582
     21 C          -4.2052  -19.7962   20.0617 C.ar    1  UNL1        0.0044
     22 C          -3.2529  -19.6886   18.9078 C.ar    1  UNL1        0.0966
     23 N          -2.3225  -18.5440   19.1800 N.ar    1  UNL1       -0.2273
     24 C          -2.6997  -17.9442   20.5021 C.ar    1  UNL1        0.1402
     25 N          -2.1339  -16.7934   21.2802 N.ar    1  UNL1       -0.3377
     26 C          -2.7318  -16.4165   22.6032 C.ar    1  UNL1        0.0691
     27 C          -3.8955  -17.1904   23.1481 C.ar    1  UNL1       -0.0047
     28 C          -4.4934  -16.8135   24.4712 C.3     1  UNL1        0.0326
     29 C          -4.4612  -18.3413   22.3701 C.ar    1  UNL1       -0.0001
     30 C          -3.8633  -18.7182   21.0471 C.ar    1  UNL1        0.0315
     31 H          -1.3702  -16.2854   20.9225 H       1  UNL1        0.1674
@<TRIPOS>BOND
     1    18    19    1
     2    19    11    1
     3    11    12   ar
     4    12    13   ar
     5    13    10    1
     6    10     8    1
     7     8     1    1
     8     1     2   ar
     9     2     3   ar
    10     3     4   ar
    11     4    20    1
    12    20    21    1
    13    21    22   ar
    14    22    23   ar
    15    23    24   ar
    16    24    25   ar
    17    25    26   ar
    18    26    27   ar
    19    27    28    1
    20    27    29   ar
    21    29    30   ar
    22     4     5   ar
    23     5     6    1
    24     5     7   ar
    25    13    14   ar
    26    14    15    1
    27    14    16   ar
    28    16    17   ar
    29    17    11   ar
    30     7     1   ar
    31    30    21   ar
    32    30    24    1
    33     8     9    1
    34    25    31    1
@<TRIPOS>MOLECULE
*****
 31 34 0 0 0
SMALL
GASTEIGER

@<TRIPOS>ATOM
      1 C          -9.8924  -19.3468   20.6323 C.ar    1  UNL1        0.1311
      2 C          -9.1930  -19.4681   19.3109 C.ar    1  UNL1        0.0339
      3 C          -7.7831  -19.9766   19.2526 C.ar    1  UNL1        0.0027
      4 C          -7.0726  -20.3638   20.5156 C.ar    1  UNL1        0.0283
      5 C          -7.7720  -20.2426   21.8370 C.ar    1  UNL1        0.2196
      6 F          -7.0615  -20.6298   23.1000 F       1  UNL1       -0.1835
      7 N          -9.1819  -19.7340   21.8953 N.ar    1  UNL1       -0.2035
      8 N         -11.3024  -18.8383   20.6907 N.pl3   1  UNL1       -0.3143
      9 H         -12.0452  -19.4119   20.3934 H       1  UNL1        0.1485
     10 C         -11.5806  -17.4557   21.2019 C.3     1  UNL1        0.1178
     11 C          -8.3584  -15.2455   21.8959 C.ar    1  UNL1        0.2248
     12 C          -9.3972  -16.3189   22.0326 C.ar    1  UNL1        0.0573
     13 C         -10.5418  -16.3824   21.0652 C.ar    1  UNL1        0.0311
     14 C         -10.6475  -15.3726   19.9610 C.ar    1  UNL1        0.1570
     15 F         -11.7921  -15.4361   18.9936 F       1  UNL1       -0.2028
     16 C          -9.6086  -14.2993   19.8243 C.ar    1  UNL1        0.1313
     17 N          -8.4641  -14.2357   20.7918 N.ar    1  UNL1       -0.2078
     18 C          -7.4736  -14.9125   24.3159 C.3     1  UNL1        0.2542
     19 O          -7.2137  -15.1819   22.8634 O.3     1  UNL1       -0.4561
     20 C          -5.6625  -20.8724   20.4572 C.3     1  UNL1        0.0582
     21 C          -4.5265  -19.9125   20.2620 C.ar    1  UNL1        0.0044
     22 C          -3.6050  -19.8659   19.0794 C.ar    1  UNL1        0.0966
     23 N          -2.6216  -18.7553   19.3016 N.ar    1  UNL1       -0.2273
     24 C          -2.9353  -18.1155   20.6215 C.ar    1  UNL1        0.1402
     25 N          -2.3010  -16.9741   21.3597 N.ar    1  UNL1       -0.3377
     26 C          -2.8441  -16.5479   22.6913 C.ar    1  UNL1        0.0691
     27 C          -4.0215  -17.2631   23.2849 C.ar    1  UNL1       -0.0047
     28 C          -4.5646  -16.8369   24.6166 C.3     1  UNL1        0.0326
     29 C          -4.6558  -18.4045   22.5468 C.ar    1  UNL1       -0.0001
     30 C          -4.1127  -18.8307   21.2151 C.ar    1  UNL1        0.0315
     31 H          -1.5283  -16.5047   20.9701 H       1  UNL1        0.1674
@<TRIPOS>BOND
     1    18    19    1
     2    19    11    1
     3    11    12   ar
     4    12    13   ar
     5    13    10    1
     6    10     8    1
     7     8     1    1
     8     1     2   ar
     9     2     3   ar
    10     3     4   ar
    11     4    20    1
    12    20    21    1
    13    21    22   ar
    14    22    23   ar
    15    23    24   ar
    16    24    25   ar
    17    25    26   ar
    18    26    27   ar
    19    27    28    1
    20    27    29   ar
    21    29    30   ar
    22     4     5   ar
    23     5     6    1
    24     5     7   ar
    25    13    14   ar
    26    14    15    1
    27    14    16   ar
    28    16    17   ar
    29    17    11   ar
    30     7     1   ar
    31    30    21   ar
    32    30    24    1
    33     8     9    1
    34    25    31    1
@<TRIPOS>MOLECULE
*****
 31 34 0 0 0
SMALL
GASTEIGER

@<TRIPOS>ATOM
      1 C          -6.3294  -15.1967   24.3885 C.ar    1  UNL1        0.1311
      2 C          -5.9393  -16.3346   25.2846 C.ar    1  UNL1        0.0339
      3 C          -4.6771  -17.1001   25.0183 C.ar    1  UNL1        0.0027
      4 C          -3.8051  -16.7277   23.8560 C.ar    1  UNL1        0.0283
      5 C          -4.1953  -15.5898   22.9599 C.ar    1  UNL1        0.2196
      6 F          -3.3233  -15.2174   21.7976 F       1  UNL1       -0.1835
      7 N          -5.4574  -14.8243   23.2262 N.ar    1  UNL1       -0.2035
      8 N          -7.5916  -14.4311   24.6547 N.pl3   1  UNL1       -0.3143
      9 H          -7.6011  -13.4508   24.5640 H       1  UNL1        0.1485
     10 C          -8.8392  -15.1590   25.0592 C.3     1  UNL1        0.1178
     11 C         -10.1142  -17.2368   21.9276 C.ar    1  UNL1        0.2248
     12 C          -9.6066  -16.0980   22.7616 C.ar    1  UNL1        0.0573
     13 C          -9.3468  -16.2979   24.2253 C.ar    1  UNL1        0.0311
     14 C          -9.5946  -17.6365   24.8551 C.ar    1  UNL1        0.1570
     15 F          -9.3348  -17.8363   26.3189 F       1  UNL1       -0.2028
     16 C         -10.1022  -18.7753   24.0212 C.ar    1  UNL1        0.1313
     17 N         -10.3620  -18.5754   22.5574 N.ar    1  UNL1       -0.2078
     18 C         -11.5089  -16.1645   20.0158 C.3     1  UNL1        0.2542
     19 O         -10.3740  -17.0371   20.4638 O.3     1  UNL1       -0.4561
     20 C          -2.5429  -17.4933   23.5897 C.3     1  UNL1        0.0582
     21 C          -2.4590  -18.4136   22.4083 C.ar    1  UNL1        0.0044
     22 C          -1.2221  -18.7240   21.6185 C.ar    1  UNL1        0.0966
     23 N          -1.5961  -19.6874   20.5313 N.ar    1  UNL1       -0.2273
     24 C          -3.0640  -19.9725   20.6491 C.ar    1  UNL1        0.1402
     25 N          -3.9839  -20.8471   19.8500 N.ar    1  UNL1       -0.3377
     26 C          -5.4372  -20.9345   20.2109 C.ar    1  UNL1        0.0691
     27 C          -5.9706  -20.1473   21.3710 C.ar    1  UNL1       -0.0047
     28 C          -7.4239  -20.2347   21.7319 C.3     1  UNL1        0.0326
     29 C          -5.0506  -19.2726   22.1701 C.ar    1  UNL1       -0.0001
     30 C          -3.5974  -19.1852   21.8092 C.ar    1  UNL1        0.0315
     31 H          -3.6339  -21.3638   19.0886 H       1  UNL1        0.1674
@<TRIPOS>BOND
     1    18    19    1
     2    19    11    1
     3    11    12   ar
     4    12    13   ar
     5    13    10    1
     6    10     8    1
     7     8     1    1
     8     1     2   ar
     9     2     3   ar
    10     3     4   ar
    11     4    20    1
    12    20    21    1
    13    21    22   ar
    14    22    23   ar
    15    23    24   ar
    16    24    25   ar
    17    25    26   ar
    18    26    27   ar
    19    27    28    1
    20    27    29   ar
    21    29    30   ar
    22     4     5   ar
    23     5     6    1
    24     5     7   ar
    25    13    14   ar
    26    14    15    1
    27    14    16   ar
    28    16    17   ar
    29    17    11   ar
    30     7     1   ar
    31    30    21   ar
    32    30    24    1
    33     8     9    1
    34    25    31    1
@<TRIPOS>MOLECULE
*****
 31 34 0 0 0
SMALL
GASTEIGER

@<TRIPOS>ATOM
      1 C          -0.8274    2.5468   20.3714 C.ar    1  UNL1        0.1311
      2 C          -0.0424    3.2403   19.2977 C.ar    1  UNL1        0.0339
      3 C           1.0307    2.4997   18.5562 C.ar    1  UNL1        0.0027
      4 C           1.3188    1.0656   18.8884 C.ar    1  UNL1        0.0283
      5 C           0.5339    0.3721   19.9621 C.ar    1  UNL1        0.2196
      6 F           0.8220   -1.0620   20.2943 F       1  UNL1       -0.1835
      7 N          -0.5392    1.1128   20.7036 N.ar    1  UNL1       -0.2035
      8 N          -1.9005    3.2874   21.1130 N.pl3   1  UNL1       -0.3143
      9 H          -1.6720    3.8154   21.9119 H       1  UNL1        0.1485
     10 C          -3.3217    3.2236   20.6374 C.3     1  UNL1        0.1178
     11 C          -5.4134    3.6743   23.9797 C.ar    1  UNL1        0.2248
     12 C          -4.2934    3.3262   23.0446 C.ar    1  UNL1        0.0573
     13 C          -4.4418    3.5717   21.5723 C.ar    1  UNL1        0.0311
     14 C          -5.7103    4.1651   21.0350 C.ar    1  UNL1        0.1570
     15 F          -5.8587    4.4106   19.5627 F       1  UNL1       -0.2028
     16 C          -6.8304    4.5132   21.9700 C.ar    1  UNL1        0.1313
     17 N          -6.6819    4.2677   23.4424 N.ar    1  UNL1       -0.2078
     18 C          -4.1164    4.0361   26.2015 C.3     1  UNL1        0.2542
     19 O          -5.2651    3.4288   25.4520 O.3     1  UNL1       -0.4561
     20 C           2.3920    0.3249   18.1468 C.3     1  UNL1        0.0582
     21 C           3.6932    0.0126   18.8246 C.ar    1  UNL1        0.0044
     22 C           4.7664    1.0016   19.1713 C.ar    1  UNL1        0.0966
     23 N           5.8860    0.2566   19.8357 N.ar    1  UNL1       -0.2273
     24 C           5.5048   -1.1928   19.8996 C.ar    1  UNL1        0.1402
     25 N           6.2167   -2.3947   20.4461 N.ar    1  UNL1       -0.3377
     26 C           5.5732   -3.7474   20.3676 C.ar    1  UNL1        0.0691
     27 C           4.2180   -3.8981   19.7427 C.ar    1  UNL1       -0.0047
     28 C           3.5746   -5.2509   19.6643 C.3     1  UNL1        0.0326
     29 C           3.5061   -2.6963   19.1963 C.ar    1  UNL1       -0.0001
     30 C           4.1495   -1.3436   19.2747 C.ar    1  UNL1        0.0315
     31 H           7.1062   -2.2957   20.8562 H       1  UNL1        0.1674
@<TRIPOS>BOND
     1    18    19    1
     2    19    11    1
     3    11    12   ar
     4    12    13   ar
     5    13    10    1
     6    10     8    1
     7     8     1    1
     8     1     2   ar
     9     2     3   ar
    10     3     4   ar
    11     4    20    1
    12    20    21    1
    13    21    22   ar
    14    22    23   ar
    15    23    24   ar
    16    24    25   ar
    17    25    26   ar
    18    26    27   ar
    19    27    28    1
    20    27    29   ar
    21    29    30   ar
    22     4     5   ar
    23     5     6    1
    24     5     7   ar
    25    13    14   ar
    26    14    15    1
    27    14    16   ar
    28    16    17   ar
    29    17    11   ar
    30     7     1   ar
    31    30    21   ar
    32    30    24    1
    33     8     9    1
    34    25    31    1
@<TRIPOS>MOLECULE
*****
 31 34 0 0 0
SMALL
GASTEIGER

@<TRIPOS>ATOM
      1 C          -5.6305  -15.8083   26.0591 C.ar    1  UNL1        0.1311
      2 C          -4.8478  -17.0869   26.0086 C.ar    1  UNL1        0.0339
      3 C          -4.0000  -17.4004   24.8116 C.ar    1  UNL1        0.0027
      4 C          -3.9349  -16.4354   23.6651 C.ar    1  UNL1        0.0283
      5 C          -4.7176  -15.1568   23.7156 C.ar    1  UNL1        0.2196
      6 F          -4.6526  -14.1918   22.5690 F       1  UNL1       -0.1835
      7 N          -5.5654  -14.8433   24.9126 N.ar    1  UNL1       -0.2035
      8 N          -6.4783  -15.4948   27.2561 N.pl3   1  UNL1       -0.3143
      9 H          -6.0540  -15.2302   28.1042 H       1  UNL1        0.1485
     10 C          -7.9727  -15.5842   27.1611 C.3     1  UNL1        0.1178
     11 C          -9.6946  -18.4765   25.0589 C.ar    1  UNL1        0.2248
     12 C          -9.0584  -17.7401   26.2004 C.ar    1  UNL1        0.0573
     13 C          -8.6089  -16.3205   26.0196 C.ar    1  UNL1        0.0311
     14 C          -8.7955  -15.6373   24.6973 C.ar    1  UNL1        0.1570
     15 F          -8.3460  -14.2177   24.5165 F       1  UNL1       -0.2028
     16 C          -9.4317  -16.3737   23.5558 C.ar    1  UNL1        0.1313
     17 N          -9.8813  -17.7933   23.7367 N.ar    1  UNL1       -0.2078
     18 C          -9.5095  -20.9919   24.4356 C.3     1  UNL1        0.2542
     19 O         -10.1442  -19.8961   25.2396 O.3     1  UNL1       -0.4561
     20 C          -3.0870  -16.7490   22.4680 C.3     1  UNL1        0.0582
     21 C          -3.0710  -18.1387   21.9036 C.ar    1  UNL1        0.0044
     22 C          -1.8595  -19.0059   21.7301 C.ar    1  UNL1        0.0966
     23 N          -2.3034  -20.3082   21.1328 N.ar    1  UNL1       -0.2273
     24 C          -3.7893  -20.2459   20.9371 C.ar    1  UNL1        0.1402
     25 N          -4.7716  -21.2369   20.3868 N.ar    1  UNL1       -0.3377
     26 C          -6.2283  -20.8870   20.3128 C.ar    1  UNL1        0.0691
     27 C          -6.7027  -19.5461   20.7891 C.ar    1  UNL1       -0.0047
     28 C          -8.1595  -19.1962   20.7151 C.3     1  UNL1        0.0326
     29 C          -5.7204  -18.5551   21.3395 C.ar    1  UNL1       -0.0001
     30 C          -4.2637  -18.9050   21.4135 C.ar    1  UNL1        0.0315
     31 H          -4.4603  -22.1170   20.0741 H       1  UNL1        0.1674
@<TRIPOS>BOND
     1    18    19    1
     2    19    11    1
     3    11    12   ar
     4    12    13   ar
     5    13    10    1
     6    10     8    1
     7     8     1    1
     8     1     2   ar
     9     2     3   ar
    10     3     4   ar
    11     4    20    1
    12    20    21    1
    13    21    22   ar
    14    22    23   ar
    15    23    24   ar
    16    24    25   ar
    17    25    26   ar
    18    26    27   ar
    19    27    28    1
    20    27    29   ar
    21    29    30   ar
    22     4     5   ar
    23     5     6    1
    24     5     7   ar
    25    13    14   ar
    26    14    15    1
    27    14    16   ar
    28    16    17   ar
    29    17    11   ar
    30     7     1   ar
    31    30    21   ar
    32    30    24    1
    33     8     9    1
    34    25    31    1
