@<TRIPOS>MOLECULE
*****
 18 19 0 0 0
SMALL
GASTEIGER

@<TRIPOS>ATOM
      1 C          -9.3031  -17.2986   21.5731 C.2     1  UNL1        0.1535
      2 N          -8.0542  -16.4729   21.6659 N.2     1  UNL1       -0.2470
      3 C          -7.8223  -16.1439   23.1109 C.3     1  UNL1        0.1720
      4 C          -6.7472  -15.3581   23.8013 C.3     1  UNL1        0.1652
      5 O          -5.6417  -14.7358   23.0010 O.3     1  UNL1       -0.3798
      6 C          -6.7777  -15.1946   25.2921 C.3     1  UNL1        0.1662
      7 O          -5.7027  -14.4087   25.9825 O.3     1  UNL1       -0.3795
      8 C          -7.8832  -15.8169   26.0924 C.3     1  UNL1        0.1456
      9 C          -7.9137  -15.6534   27.5831 C.3     1  UNL1        0.0348
     10 O          -8.9583  -16.6027   25.4019 O.3     1  UNL1       -0.3428
     11 C          -8.9278  -16.7662   23.9112 C.3     1  UNL1        0.1937
     12 S          -9.8430  -17.4798   22.9608 S.3     1  UNL1       -0.0497
     13 H          -5.0357  -14.2674   23.5962 H       1  UNL1        0.2105
     14 H          -5.0711  -14.0778   25.3249 H       1  UNL1        0.2105
     15 N          -9.9062  -17.8467   20.3138 N.pl3   1  UNL1       -0.3135
     16 H          -9.3942  -18.4761   19.7562 H       1  UNL1        0.1487
     17 C         -11.6081  -15.9861   19.6879 C.3     1  UNL1        0.0230
     18 C         -11.2894  -17.4358   19.9041 C.3     1  UNL1        0.0887
@<TRIPOS>BOND
     1    17    18    1
     2    18    15    1
     3    15     1    1
     4     1     2    2
     5     3     2    1
     6     3     4    1
     7     4     5    1
     8     4     6    1
     9     6     7    1
    10     6     8    1
    11     8     9    1
    12     8    10    1
    13    11    10    1
    14    11    12    1
    15    12     1    1
    16    11     3    1
    17    15    16    1
    18     5    13    1
    19     7    14    1
@<TRIPOS>MOLECULE
*****
 18 19 0 0 0
SMALL
GASTEIGER

@<TRIPOS>ATOM
      1 C          -7.2833  -15.5328   23.0248 C.2     1  UNL1        0.1535
      2 N          -8.0504  -15.3283   21.7522 N.2     1  UNL1       -0.2470
      3 C          -9.4166  -15.9202   21.9341 C.3     1  UNL1        0.1720
      4 C         -10.6002  -16.0136   21.0174 C.3     1  UNL1        0.1652
      5 O         -10.5229  -15.4432   19.6323 O.3     1  UNL1       -0.3798
      6 C         -11.8612  -16.6773   21.4859 C.3     1  UNL1        0.1662
      7 O         -13.0448  -16.7706   20.5693 O.3     1  UNL1       -0.3795
      8 C         -11.9385  -17.2477   22.8711 C.3     1  UNL1        0.1456
      9 C         -13.1994  -17.9114   23.3396 C.3     1  UNL1        0.0348
     10 O         -10.7548  -17.1544   23.7878 O.3     1  UNL1       -0.3428
     11 C          -9.4939  -16.4906   23.3193 C.3     1  UNL1        0.1937
     12 S          -8.1754  -16.2512   23.9933 S.3     1  UNL1       -0.0497
     13 H         -11.3668  -15.5867   19.1760 H       1  UNL1        0.2105
     14 H         -12.8289  -16.3563   19.7192 H       1  UNL1        0.2105
     15 N          -5.8719  -15.0957   23.2836 N.pl3   1  UNL1       -0.3135
     16 H          -5.5497  -14.2362   22.9277 H       1  UNL1        0.1487
     17 C          -4.3358  -17.1838   23.4574 C.3     1  UNL1        0.0230
     18 C          -4.9515  -15.9682   24.0845 C.3     1  UNL1        0.0887
@<TRIPOS>BOND
     1    17    18    1
     2    18    15    1
     3    15     1    1
     4     1     2    2
     5     3     2    1
     6     3     4    1
     7     4     5    1
     8     4     6    1
     9     6     7    1
    10     6     8    1
    11     8     9    1
    12     8    10    1
    13    11    10    1
    14    11    12    1
    15    12     1    1
    16    11     3    1
    17    15    16    1
    18     5    13    1
    19     7    14    1
@<TRIPOS>MOLECULE
*****
 18 19 0 0 0
SMALL
GASTEIGER

@<TRIPOS>ATOM
      1 C          -6.7011  -18.9760   21.6172 C.2     1  UNL1        0.1535
      2 N          -7.2331  -17.6018   21.3366 N.2     1  UNL1       -0.2470
      3 C          -8.6212  -17.5184   21.8990 C.3     1  UNL1        0.1720
      4 C          -9.6305  -16.4090   21.9203 C.3     1  UNL1        0.1652
      5 O          -9.3046  -15.0864   21.2921 O.3     1  UNL1       -0.3798
      6 C         -10.9658  -16.6222   22.5697 C.3     1  UNL1        0.1662
      7 O         -11.9751  -15.5128   22.5910 O.3     1  UNL1       -0.3795
      8 C         -11.2917  -17.9447   23.1979 C.3     1  UNL1        0.1456
      9 C         -12.6268  -18.1579   23.8473 C.3     1  UNL1        0.0348
     10 O         -10.2823  -19.0542   23.1766 O.3     1  UNL1       -0.3428
     11 C          -8.9471  -18.8410   22.5272 C.3     1  UNL1        0.1937
     12 S          -7.7604  -19.7418   22.3530 S.3     1  UNL1       -0.0497
     13 H         -10.0597  -14.4859   21.3928 H       1  UNL1        0.2105
     14 H         -11.6079  -14.7331   22.1459 H       1  UNL1        0.2105
     15 N          -5.3475  -19.4934   21.2300 N.pl3   1  UNL1       -0.3135
     16 H          -5.2294  -19.9752   20.3796 H       1  UNL1        0.1487
     17 C          -2.7946  -19.6543   21.6849 C.3     1  UNL1        0.0230
     18 C          -4.1737  -19.2767   22.1384 C.3     1  UNL1        0.0887
@<TRIPOS>BOND
     1    17    18    1
     2    18    15    1
     3    15     1    1
     4     1     2    2
     5     3     2    1
     6     3     4    1
     7     4     5    1
     8     4     6    1
     9     6     7    1
    10     6     8    1
    11     8     9    1
    12     8    10    1
    13    11    10    1
    14    11    12    1
    15    12     1    1
    16    11     3    1
    17    15    16    1
    18     5    13    1
    19     7    14    1
@<TRIPOS>MOLECULE
*****
 18 19 0 0 0
SMALL
GASTEIGER

@<TRIPOS>ATOM
      1 C          -7.4454  -15.8567   24.1599 C.2     1  UNL1        0.1535
      2 N          -6.7784  -16.4375   22.9484 N.2     1  UNL1       -0.2470
      3 C          -7.7405  -17.3891   22.3011 C.3     1  UNL1        0.1720
      4 C          -7.6307  -18.2499   21.0776 C.3     1  UNL1        0.1652
      5 O          -6.3692  -18.2427   20.2662 O.3     1  UNL1       -0.3798
      6 C          -8.7826  -19.1180   20.6655 C.3     1  UNL1        0.1662
      7 O          -8.6728  -19.9788   19.4420 O.3     1  UNL1       -0.3795
      8 C         -10.0441  -19.1252   21.4769 C.3     1  UNL1        0.1456
      9 C         -11.1959  -19.9932   21.0649 C.3     1  UNL1        0.0348
     10 O         -10.1538  -18.2644   22.7005 O.3     1  UNL1       -0.3428
     11 C          -9.0020  -17.3963   23.1125 C.3     1  UNL1        0.1937
     12 S          -8.8196  -16.4492   24.2613 S.3     1  UNL1       -0.0497
     13 H          -6.4640  -18.8497   19.5155 H       1  UNL1        0.2105
     14 H          -7.7996  -19.8562   19.0377 H       1  UNL1        0.2105
     15 N          -6.8438  -14.8585   25.1042 N.pl3   1  UNL1       -0.3135
     16 H          -6.9073  -13.8957   24.9089 H       1  UNL1        0.1487
     17 C          -6.9383  -15.9118   27.4773 C.3     1  UNL1        0.0230
     18 C          -6.1453  -15.3273   26.3461 C.3     1  UNL1        0.0887
@<TRIPOS>BOND
     1    17    18    1
     2    18    15    1
     3    15     1    1
     4     1     2    2
     5     3     2    1
     6     3     4    1
     7     4     5    1
     8     4     6    1
     9     6     7    1
    10     6     8    1
    11     8     9    1
    12     8    10    1
    13    11    10    1
    14    11    12    1
    15    12     1    1
    16    11     3    1
    17    15    16    1
    18     5    13    1
    19     7    14    1
@<TRIPOS>MOLECULE
*****
 18 19 0 0 0
SMALL
GASTEIGER

@<TRIPOS>ATOM
      1 C          -7.7759  -16.0173   24.4773 C.2     1  UNL1        0.1535
      2 N          -9.0159  -16.8414   24.6592 N.2     1  UNL1       -0.2470
      3 C          -9.8254  -16.7451   23.4000 C.3     1  UNL1        0.1720
      4 C         -11.1406  -17.3478   23.0037 C.3     1  UNL1        0.1652
      5 O         -11.8803  -18.2315   23.9639 O.3     1  UNL1       -0.3798
      6 C         -11.7160  -17.0669   21.6472 C.3     1  UNL1        0.1662
      7 O         -13.0311  -17.6697   21.2509 O.3     1  UNL1       -0.3795
      8 C         -10.9762  -16.1833   20.6871 C.3     1  UNL1        0.1456
      9 C         -11.5515  -15.9024   19.3306 C.3     1  UNL1        0.0348
     10 O          -9.6610  -15.5805   21.0834 O.3     1  UNL1       -0.3428
     11 C          -9.0856  -15.8614   22.4399 C.3     1  UNL1        0.1937
     12 S          -7.8190  -15.4117   23.1057 S.3     1  UNL1       -0.0497
     13 H         -12.7053  -18.5352   23.5539 H       1  UNL1        0.2105
     14 H         -13.3724  -18.2095   21.9809 H       1  UNL1        0.2105
     15 N          -6.6844  -15.8315   25.4893 N.pl3   1  UNL1       -0.3135
     16 H          -5.7545  -15.7034   25.1924 H       1  UNL1        0.1487
     17 C          -8.2621  -15.1799   27.4479 C.3     1  UNL1        0.0230
     18 C          -7.0097  -15.8410   26.9535 C.3     1  UNL1        0.0887
@<TRIPOS>BOND
     1    17    18    1
     2    18    15    1
     3    15     1    1
     4     1     2    2
     5     3     2    1
     6     3     4    1
     7     4     5    1
     8     4     6    1
     9     6     7    1
    10     6     8    1
    11     8     9    1
    12     8    10    1
    13    11    10    1
    14    11    12    1
    15    12     1    1
    16    11     3    1
    17    15    16    1
    18     5    13    1
    19     7    14    1
@<TRIPOS>MOLECULE
*****
 18 19 0 0 0
SMALL
GASTEIGER

@<TRIPOS>ATOM
      1 C         -13.3208   -7.6747   18.5996 C.2     1  UNL1        0.1535
      2 N         -13.3342   -6.3564   19.3151 N.2     1  UNL1       -0.2470
      3 C         -12.3032   -5.4726   18.6780 C.3     1  UNL1        0.1720
      4 C         -11.8727   -4.0646   18.9647 C.3     1  UNL1        0.1652
      5 O         -12.5233   -3.2926   20.0741 O.3     1  UNL1       -0.3798
      6 C         -10.7917   -3.4285   18.1420 C.3     1  UNL1        0.1662
      7 O         -10.3612   -2.0205   18.4287 O.3     1  UNL1       -0.3795
      8 C         -10.1411   -4.2005   17.0326 C.3     1  UNL1        0.1456
      9 C          -9.0601   -3.5646   16.2099 C.3     1  UNL1        0.0348
     10 O         -10.5716   -5.6086   16.7459 O.3     1  UNL1       -0.3428
     11 C         -11.6526   -6.2446   17.5686 C.3     1  UNL1        0.1937
     12 S         -12.2815   -7.6055   17.5202 S.3     1  UNL1       -0.0497
     13 H         -12.1315   -2.4067   20.1245 H       1  UNL1        0.2105
     14 H         -10.8780   -1.6692   19.1705 H       1  UNL1        0.2105
     15 N         -14.1934   -8.8548   18.9090 N.pl3   1  UNL1       -0.3135
     16 H         -13.7870   -9.7118   19.1730 H       1  UNL1        0.1487
     17 C         -16.5283   -8.8775   20.0482 C.3     1  UNL1        0.0230
     18 C         -15.6853   -8.7292   18.8164 C.3     1  UNL1        0.0887
@<TRIPOS>BOND
     1    17    18    1
     2    18    15    1
     3    15     1    1
     4     1     2    2
     5     3     2    1
     6     3     4    1
     7     4     5    1
     8     4     6    1
     9     6     7    1
    10     6     8    1
    11     8     9    1
    12     8    10    1
    13    11    10    1
    14    11    12    1
    15    12     1    1
    16    11     3    1
    17    15    16    1
    18     5    13    1
    19     7    14    1
@<TRIPOS>MOLECULE
*****
 18 19 0 0 0
SMALL
GASTEIGER

@<TRIPOS>ATOM
      1 C          -8.0326  -15.7864   24.7637 C.2     1  UNL1        0.1535
      2 N          -8.9698  -16.8978   25.1332 N.2     1  UNL1       -0.2470
      3 C          -9.3352  -17.6327   23.8777 C.3     1  UNL1        0.1720
      4 C         -10.2237  -18.8155   23.6295 C.3     1  UNL1        0.1652
      5 O         -10.9351  -19.4726   24.7750 O.3     1  UNL1       -0.3798
      6 C         -10.4009  -19.3411   22.2358 C.3     1  UNL1        0.1662
      7 O         -11.2894  -20.5238   21.9876 O.3     1  UNL1       -0.3795
      8 C          -9.6895  -18.6840   21.0903 C.3     1  UNL1        0.1456
      9 C          -9.8667  -19.2096   19.6967 C.3     1  UNL1        0.0348
     10 O          -8.8009  -17.5012   21.3386 O.3     1  UNL1       -0.3428
     11 C          -8.6238  -16.9756   22.7322 C.3     1  UNL1        0.1937
     12 S          -7.8188  -15.8345   23.2798 S.3     1  UNL1       -0.0497
     13 H         -11.4635  -20.2156   24.4440 H       1  UNL1        0.2105
     14 H         -11.6690  -20.8251   22.8279 H       1  UNL1        0.2105
     15 N          -7.4173  -14.8001   25.7117 N.pl3   1  UNL1       -0.3135
     16 H          -7.7840  -13.8890   25.7807 H       1  UNL1        0.1487
     17 C          -5.0585  -15.8689   25.9209 C.3     1  UNL1        0.0230
     18 C          -6.2433  -15.2018   26.5544 C.3     1  UNL1        0.0887
@<TRIPOS>BOND
     1    17    18    1
     2    18    15    1
     3    15     1    1
     4     1     2    2
     5     3     2    1
     6     3     4    1
     7     4     5    1
     8     4     6    1
     9     6     7    1
    10     6     8    1
    11     8     9    1
    12     8    10    1
    13    11    10    1
    14    11    12    1
    15    12     1    1
    16    11     3    1
    17    15    16    1
    18     5    13    1
    19     7    14    1
@<TRIPOS>MOLECULE
*****
 18 19 0 0 0
SMALL
GASTEIGER

@<TRIPOS>ATOM
      1 C         -14.2066   -8.3937   18.3655 C.2     1  UNL1        0.1535
      2 N         -14.8468   -9.6759   18.8081 N.2     1  UNL1       -0.2470
      3 C         -16.2534   -9.6957   18.2875 C.3     1  UNL1        0.1720
      4 C         -17.3551  -10.7061   18.4107 C.3     1  UNL1        0.1652
      5 O         -17.1260  -11.9761   19.1751 O.3     1  UNL1       -0.3798
      6 C         -18.6861  -10.4464   17.7694 C.3     1  UNL1        0.1662
      7 O         -19.7878  -11.4568   17.8926 O.3     1  UNL1       -0.3795
      8 C         -18.9152   -9.1763   17.0049 C.3     1  UNL1        0.1456
      9 C         -20.2461   -8.9166   16.3637 C.3     1  UNL1        0.0348
     10 O         -17.8134   -8.1659   16.8817 O.3     1  UNL1       -0.3428
     11 C         -16.4825   -8.4256   17.5230 C.3     1  UNL1        0.1937
     12 S         -15.2175   -7.6209   17.5712 S.3     1  UNL1       -0.0497
     13 H         -17.9329  -12.5142   19.1576 H       1  UNL1        0.2105
     14 H         -19.4762  -12.2130   18.4140 H       1  UNL1        0.2105
     15 N         -12.8020   -7.9603   18.6646 N.pl3   1  UNL1       -0.3135
     16 H         -12.1546   -8.6062   19.0292 H       1  UNL1        0.1487
     17 C         -12.5791   -5.4997   19.4684 C.3     1  UNL1        0.0230
     18 C         -12.3839   -6.5428   18.4082 C.3     1  UNL1        0.0887
@<TRIPOS>BOND
     1    17    18    1
     2    18    15    1
     3    15     1    1
     4     1     2    2
     5     3     2    1
     6     3     4    1
     7     4     5    1
     8     4     6    1
     9     6     7    1
    10     6     8    1
    11     8     9    1
    12     8    10    1
    13    11    10    1
    14    11    12    1
    15    12     1    1
    16    11     3    1
    17    15    16    1
    18     5    13    1
    19     7    14    1
@<TRIPOS>MOLECULE
*****
 18 19 0 0 0
SMALL
GASTEIGER

@<TRIPOS>ATOM
      1 C          -9.0624  -18.2553   21.9013 C.2     1  UNL1        0.1535
      2 N          -8.2986  -19.3607   21.2345 N.2     1  UNL1       -0.2470
      3 C          -6.8422  -19.1651   21.5357 C.3     1  UNL1        0.1720
      4 C          -5.6226  -19.9452   21.1434 C.3     1  UNL1        0.1652
      5 O          -5.7588  -21.1715   20.2905 O.3     1  UNL1       -0.3798
      6 C          -4.2665  -19.4989   21.6041 C.3     1  UNL1        0.1662
      7 O          -3.0469  -20.2790   21.2119 O.3     1  UNL1       -0.3795
      8 C          -4.1302  -18.2725   22.4570 C.3     1  UNL1        0.1456
      9 C          -2.7743  -17.8263   22.9177 C.3     1  UNL1        0.0348
     10 O          -5.3500  -17.4924   22.8492 O.3     1  UNL1       -0.3428
     11 C          -6.7059  -17.9387   22.3886 C.3     1  UNL1        0.1937
     12 S          -8.0781  -17.3765   22.6145 S.3     1  UNL1       -0.0497
     13 H          -4.8816  -21.5534   20.1308 H       1  UNL1        0.2105
     14 H          -3.3093  -21.0359   20.6649 H       1  UNL1        0.2105
     15 N         -10.5494  -18.0626   21.8618 N.pl3   1  UNL1       -0.3135
     16 H         -11.0409  -18.1960   21.0192 H       1  UNL1        0.1487
     17 C         -12.7793  -17.8115   23.1713 C.3     1  UNL1        0.0230
     18 C         -11.2877  -17.6666   23.1060 C.3     1  UNL1        0.0887
@<TRIPOS>BOND
     1    17    18    1
     2    18    15    1
     3    15     1    1
     4     1     2    2
     5     3     2    1
     6     3     4    1
     7     4     5    1
     8     4     6    1
     9     6     7    1
    10     6     8    1
    11     8     9    1
    12     8    10    1
    13    11    10    1
    14    11    12    1
    15    12     1    1
    16    11     3    1
    17    15    16    1
    18     5    13    1
    19     7    14    1
