@<TRIPOS>MOLECULE
*****
 51 55 0 0 0
SMALL
GASTEIGER

@<TRIPOS>ATOM
      1 N           2.7453    0.6005   29.3351 N.am    1  UNL1       -0.2724
      2 C           3.6498    0.3285   30.5004 C.2     1  UNL1        0.2491
      3 O           5.0979    0.7133   30.4317 O.2     1  UNL1       -0.2727
      4 C           3.2889    1.2574   28.1011 C.3     1  UNL1        0.1202
      5 C           3.4649    0.4602   26.8426 C.ar    1  UNL1       -0.0023
      6 C           4.5419   -0.5804   26.7585 C.ar    1  UNL1       -0.0026
      7 C           4.7178   -1.3775   25.5001 C.ar    1  UNL1       -0.0003
      8 C           3.8168   -1.1340   24.3258 C.ar    1  UNL1       -0.0000
      9 C           2.7398   -0.0933   24.4100 C.ar    1  UNL1       -0.0003
     10 C           2.5639    0.7038   25.6684 C.ar    1  UNL1       -0.0026
     11 C           3.9928   -1.9312   23.0674 C.ar    1  UNL1       -0.0000
     12 C           3.4172   -1.4306   21.7758 C.ar    1  UNL1       -0.0001
     13 C           3.5932   -2.2278   20.5174 C.ar    1  UNL1        0.0039
     14 C           4.3448   -3.5255   20.5506 C.ar    1  UNL1        0.0714
     15 C           4.9204   -4.0260   21.8422 C.ar    1  UNL1        0.0039
     16 C           4.7444   -3.2288   23.1006 C.ar    1  UNL1       -0.0001
     17 C           4.5208   -4.3226   19.2922 C.3     1  UNL1        0.4186
     18 F           4.6968   -5.1198   18.0339 F       1  UNL1       -0.1659
     19 F           3.2053   -5.0003   19.5375 F       1  UNL1       -0.1659
     20 F           5.8363   -3.6450   19.0469 F       1  UNL1       -0.1659
     21 C           1.2971    0.2156   29.4040 C.3     1  UNL1        0.1111
     22 C           0.2525    1.2656   29.6413 C.3     1  UNL1        0.0939
     23 N           0.6572    2.6377   30.0923 N.3     1  UNL1       -0.2712
     24 C           0.3552    3.9339   32.3236 C.3     1  UNL1        0.0188
     25 C           1.0480    2.8726   31.5213 C.3     1  UNL1        0.0722
     26 C           0.6711    3.7749   29.1142 C.3     1  UNL1        0.0722
     27 C           0.4441    3.5120   27.6550 C.3     1  UNL1        0.0188
     28 C           3.1060   -0.3284   31.7345 C.3     1  UNL1        0.1934
     29 N           3.7851   -0.1208   33.0558 N.ar    1  UNL1       -0.2979
     30 C           3.5461    1.1405   33.8318 C.ar    1  UNL1        0.0786
     31 C           4.2251    1.3482   35.1531 C.ar    1  UNL1        0.0574
     32 C           5.1431    0.2945   35.6984 C.ar    1  UNL1        0.2786
     33 O           5.8221    0.5022   37.0197 O.2     1  UNL1       -0.2654
     34 N           5.3820   -0.9667   34.9224 N.ar    1  UNL1       -0.1847
     35 C           4.7030   -1.1743   33.6011 C.ar    1  UNL1        0.1750
     36 C           3.9862    2.6094   35.9291 C.3     1  UNL1        0.0622
     37 C           2.8538    2.6832   36.9102 C.ar    1  UNL1        0.0220
     38 C           1.7980    3.7476   36.9595 C.ar    1  UNL1        0.1177
     39 N           0.8702    3.4278   38.0939 N.ar    1  UNL1       -0.1679
     40 N           1.3526    2.1659   38.7458 N.ar    1  UNL1       -0.2477
     41 C           0.7201    1.4839   39.9225 C.3     1  UNL1        0.1537
     42 C           2.5785    1.7057   38.0142 C.ar    1  UNL1        0.0927
     43 S           4.9419   -2.4355   32.8251 S.3     1  UNL1       -0.0724
     44 C           6.3183   -2.7580   32.3232 C.3     1  UNL1        0.0913
     45 C           6.4904   -3.5093   31.0364 C.ar    1  UNL1       -0.0108
     46 C           6.2616   -2.8153   29.7265 C.ar    1  UNL1       -0.0011
     47 C           6.4338   -3.5665   28.4396 C.ar    1  UNL1        0.0293
     48 C           6.8348   -5.0117   28.4627 C.ar    1  UNL1        0.1401
     49 F           7.0070   -5.7630   27.1759 F       1  UNL1       -0.2042
     50 C           7.0636   -5.7057   29.7727 C.ar    1  UNL1        0.0293
     51 C           6.8914   -4.9545   31.0595 C.ar    1  UNL1       -0.0011
@<TRIPOS>BOND
     1    24    25    1
     2    25    23    1
     3    23    26    1
     4    26    27    1
     5    23    22    1
     6    22    21    1
     7    21     1    1
     8     1     4    1
     9     4     5    1
    10     5     6   ar
    11     6     7   ar
    12     7     8   ar
    13     8    11    1
    14    11    12   ar
    15    12    13   ar
    16    13    14   ar
    17    14    17    1
    18    17    18    1
    19    17    19    1
    20    17    20    1
    21    14    15   ar
    22    15    16   ar
    23     8     9   ar
    24     9    10   ar
    25     1     2   am
    26     2     3    2
    27     2    28    1
    28    28    29    1
    29    29    30   ar
    30    30    31   ar
    31    31    36    1
    32    36    37    1
    33    37    38   ar
    34    38    39   ar
    35    39    40   ar
    36    40    41    1
    37    40    42   ar
    38    31    32   ar
    39    32    33    2
    40    32    34   ar
    41    34    35   ar
    42    35    43    1
    43    43    44    1
    44    44    45    1
    45    45    46   ar
    46    46    47   ar
    47    47    48   ar
    48    48    49    1
    49    48    50   ar
    50    50    51   ar
    51    10     5   ar
    52    35    29   ar
    53    51    45   ar
    54    16    11   ar
    55    42    37   ar
@<TRIPOS>MOLECULE
*****
 51 55 0 0 0
SMALL
GASTEIGER

@<TRIPOS>ATOM
      1 N           3.7265    0.5005   26.7660 N.am    1  UNL1       -0.2724
      2 C           4.3918   -0.2452   25.6474 C.2     1  UNL1        0.2491
      3 O           4.6858    0.4517   24.3521 O.2     1  UNL1       -0.2727
      4 C           3.3553    1.9430   26.5894 C.3     1  UNL1        0.1202
      5 C           1.9328    2.3215   26.3006 C.ar    1  UNL1       -0.0023
      6 C           1.1274    1.5198   25.3216 C.ar    1  UNL1       -0.0026
      7 C          -0.2950    1.8983   25.0328 C.ar    1  UNL1       -0.0003
      8 C          -0.9120    3.0785   25.7230 C.ar    1  UNL1       -0.0000
      9 C          -0.1065    3.8803   26.7020 C.ar    1  UNL1       -0.0003
     10 C           1.3159    3.5018   26.9908 C.ar    1  UNL1       -0.0026
     11 C          -2.3345    3.4570   25.4342 C.ar    1  UNL1       -0.0000
     12 C          -2.8345    3.4711   24.0200 C.ar    1  UNL1       -0.0001
     13 C          -4.2570    3.8496   23.7312 C.ar    1  UNL1        0.0039
     14 C          -5.1794    4.2140   24.8565 C.ar    1  UNL1        0.0714
     15 C          -4.6793    4.1999   26.2707 C.ar    1  UNL1        0.0039
     16 C          -3.2569    3.8215   26.5595 C.ar    1  UNL1       -0.0001
     17 C          -6.6018    4.5925   24.5678 C.3     1  UNL1        0.4186
     18 F          -8.0242    4.9710   24.2790 F       1  UNL1       -0.1659
     19 F          -6.5357    3.8485   23.2670 F       1  UNL1       -0.1659
     20 F          -6.6679    5.3365   25.8685 F       1  UNL1       -0.1659
     21 C           3.4324   -0.1965   28.0614 C.3     1  UNL1        0.1111
     22 C           2.0225   -0.5745   28.4064 C.3     1  UNL1        0.0939
     23 N           1.1219    0.4204   29.0766 N.3     1  UNL1       -0.2712
     24 C          -1.2638   -0.5737   28.8112 C.3     1  UNL1        0.0188
     25 C          -0.3026    0.5633   28.6289 C.3     1  UNL1        0.0722
     26 C           1.6458    1.2723   30.1945 C.3     1  UNL1        0.0722
     27 C           0.6952    2.0639   31.0431 C.3     1  UNL1        0.0188
     28 C           4.7629   -1.6878   25.8241 C.3     1  UNL1        0.1934
     29 N           5.4009   -2.4418   24.6951 N.ar    1  UNL1       -0.2979
     30 C           4.5928   -2.8055   23.4848 C.ar    1  UNL1        0.0786
     31 C           5.2308   -3.5594   22.3559 C.ar    1  UNL1        0.0574
     32 C           6.6769   -3.9497   22.4372 C.ar    1  UNL1        0.2786
     33 O           7.3149   -4.7036   21.3083 O.2     1  UNL1       -0.2654
     34 N           7.4850   -3.5860   23.6475 N.ar    1  UNL1       -0.1847
     35 C           6.8470   -2.8320   24.7764 C.ar    1  UNL1        0.1750
     36 C           4.4228   -3.9231   21.1456 C.3     1  UNL1        0.0622
     37 C           4.4787   -3.0607   19.9195 C.ar    1  UNL1        0.0220
     38 C           5.3376   -3.2982   18.7129 C.ar    1  UNL1        0.1177
     39 N           5.0753   -2.1936   17.7325 N.ar    1  UNL1       -0.1679
     40 N           4.0543   -1.2734   18.3332 N.ar    1  UNL1       -0.2477
     41 C           3.4994   -0.0349   17.6944 C.3     1  UNL1        0.1537
     42 C           3.6856   -1.8093   19.6848 C.ar    1  UNL1        0.0927
     43 S           7.6550   -2.4684   25.9867 S.3     1  UNL1       -0.0724
     44 C           8.2708   -3.5461   26.8290 C.3     1  UNL1        0.0913
     45 C           7.7928   -3.7652   28.2338 C.ar    1  UNL1       -0.0108
     46 C           7.7126   -2.6102   29.1874 C.ar    1  UNL1       -0.0011
     47 C           7.2346   -2.8292   30.5923 C.ar    1  UNL1        0.0293
     48 C           6.8368   -4.2034   31.0434 C.ar    1  UNL1        0.1401
     49 F           6.3588   -4.4224   32.4482 F       1  UNL1       -0.2042
     50 C           6.9170   -5.3584   30.0897 C.ar    1  UNL1        0.0293
     51 C           7.3950   -5.1393   28.6849 C.ar    1  UNL1       -0.0011
@<TRIPOS>BOND
     1    24    25    1
     2    25    23    1
     3    23    26    1
     4    26    27    1
     5    23    22    1
     6    22    21    1
     7    21     1    1
     8     1     4    1
     9     4     5    1
    10     5     6   ar
    11     6     7   ar
    12     7     8   ar
    13     8    11    1
    14    11    12   ar
    15    12    13   ar
    16    13    14   ar
    17    14    17    1
    18    17    18    1
    19    17    19    1
    20    17    20    1
    21    14    15   ar
    22    15    16   ar
    23     8     9   ar
    24     9    10   ar
    25     1     2   am
    26     2     3    2
    27     2    28    1
    28    28    29    1
    29    29    30   ar
    30    30    31   ar
    31    31    36    1
    32    36    37    1
    33    37    38   ar
    34    38    39   ar
    35    39    40   ar
    36    40    41    1
    37    40    42   ar
    38    31    32   ar
    39    32    33    2
    40    32    34   ar
    41    34    35   ar
    42    35    43    1
    43    43    44    1
    44    44    45    1
    45    45    46   ar
    46    46    47   ar
    47    47    48   ar
    48    48    49    1
    49    48    50   ar
    50    50    51   ar
    51    10     5   ar
    52    35    29   ar
    53    51    45   ar
    54    16    11   ar
    55    42    37   ar
@<TRIPOS>MOLECULE
*****
 51 55 0 0 0
SMALL
GASTEIGER

@<TRIPOS>ATOM
      1 N           4.4069    1.2251   25.3694 N.am    1  UNL1       -0.2724
      2 C           4.5129   -0.1983   24.9080 C.2     1  UNL1        0.2491
      3 O           3.7227   -1.2709   25.5971 O.2     1  UNL1       -0.2727
      4 C           3.5106    1.5757   26.5199 C.3     1  UNL1        0.1202
      5 C           2.0988    2.0137   26.2645 C.ar    1  UNL1       -0.0023
      6 C           1.6679    3.4041   26.6262 C.ar    1  UNL1       -0.0026
      7 C           0.2562    3.8421   26.3708 C.ar    1  UNL1       -0.0003
      8 C          -0.7246    2.8895   25.7537 C.ar    1  UNL1       -0.0000
      9 C          -0.2936    1.4991   25.3919 C.ar    1  UNL1       -0.0003
     10 C           1.1181    1.0612   25.6473 C.ar    1  UNL1       -0.0026
     11 C          -2.1363    3.3275   25.4982 C.ar    1  UNL1       -0.0000
     12 C          -2.6431    3.4420   24.0911 C.ar    1  UNL1       -0.0001
     13 C          -4.0549    3.8800   23.8357 C.ar    1  UNL1        0.0039
     14 C          -4.9598    4.2035   24.9875 C.ar    1  UNL1        0.0714
     15 C          -4.4529    4.0890   26.3946 C.ar    1  UNL1        0.0039
     16 C          -3.0412    3.6510   26.6500 C.ar    1  UNL1       -0.0001
     17 C          -6.3715    4.6414   24.7321 C.3     1  UNL1        0.4186
     18 F          -7.7832    5.0794   24.4767 F       1  UNL1       -0.1659
     19 F          -6.3776    5.3823   26.0363 F       1  UNL1       -0.1659
     20 F          -6.3654    3.9006   23.4279 F       1  UNL1       -0.1659
     21 C           5.1972    2.2978   24.6803 C.3     1  UNL1        0.1111
     22 C           4.4919    3.3501   23.8771 C.3     1  UNL1        0.0939
     23 N           3.9200    3.0098   22.5328 N.3     1  UNL1       -0.2712
     24 C           1.3571    3.4241   22.6329 C.3     1  UNL1        0.0188
     25 C           2.5155    2.4944   22.4239 C.3     1  UNL1        0.0722
     26 C           4.7526    3.1849   21.2974 C.3     1  UNL1        0.0722
     27 C           4.0956    3.5230   19.9920 C.3     1  UNL1        0.0188
     28 C           5.4092   -0.5489   23.7574 C.3     1  UNL1        0.1934
     29 N           4.8932   -1.4041   22.6383 N.ar    1  UNL1       -0.2979
     30 C           4.1259   -0.7805   21.5103 C.ar    1  UNL1        0.0786
     31 C           3.6100   -1.6357   20.3912 C.ar    1  UNL1        0.0574
     32 C           3.8613   -3.1145   20.4001 C.ar    1  UNL1        0.2786
     33 O           3.3453   -3.9697   19.2810 O.2     1  UNL1       -0.2654
     34 N           4.6286   -3.7380   21.5281 N.ar    1  UNL1       -0.1847
     35 C           5.1445   -2.8828   22.6472 C.ar    1  UNL1        0.1750
     36 C           2.8427   -1.0122   19.2632 C.3     1  UNL1        0.0622
     37 C           1.7247   -0.0556   19.5550 C.ar    1  UNL1        0.0220
     38 C           0.6256   -0.2626   20.5545 C.ar    1  UNL1        0.1177
     39 N          -0.2688    0.9410   20.5159 N.ar    1  UNL1       -0.1679
     40 N           0.2775    1.8918   19.4924 N.ar    1  UNL1       -0.2477
     41 C          -0.3058    3.2246   19.1269 C.3     1  UNL1        0.1537
     42 C           1.5096    1.2759   18.8986 C.ar    1  UNL1        0.0927
     43 S           5.9118   -3.5064   23.7752 S.3     1  UNL1       -0.0724
     44 C           7.1956   -4.2314   23.4986 C.3     1  UNL1        0.0913
     45 C           7.5736   -5.4274   24.3211 C.ar    1  UNL1       -0.0108
     46 C           8.4662   -6.4844   23.7414 C.ar    1  UNL1       -0.0011
     47 C           8.8444   -7.6805   24.5639 C.ar    1  UNL1        0.0293
     48 C           8.3299   -7.8196   25.9660 C.ar    1  UNL1        0.1401
     49 F           8.7079   -9.0156   26.7885 F       1  UNL1       -0.2042
     50 C           7.4372   -6.7626   26.5457 C.ar    1  UNL1        0.0293
     51 C           7.0591   -5.5665   25.7232 C.ar    1  UNL1       -0.0011
@<TRIPOS>BOND
     1    24    25    1
     2    25    23    1
     3    23    26    1
     4    26    27    1
     5    23    22    1
     6    22    21    1
     7    21     1    1
     8     1     4    1
     9     4     5    1
    10     5     6   ar
    11     6     7   ar
    12     7     8   ar
    13     8    11    1
    14    11    12   ar
    15    12    13   ar
    16    13    14   ar
    17    14    17    1
    18    17    18    1
    19    17    19    1
    20    17    20    1
    21    14    15   ar
    22    15    16   ar
    23     8     9   ar
    24     9    10   ar
    25     1     2   am
    26     2     3    2
    27     2    28    1
    28    28    29    1
    29    29    30   ar
    30    30    31   ar
    31    31    36    1
    32    36    37    1
    33    37    38   ar
    34    38    39   ar
    35    39    40   ar
    36    40    41    1
    37    40    42   ar
    38    31    32   ar
    39    32    33    2
    40    32    34   ar
    41    34    35   ar
    42    35    43    1
    43    43    44    1
    44    44    45    1
    45    45    46   ar
    46    46    47   ar
    47    47    48   ar
    48    48    49    1
    49    48    50   ar
    50    50    51   ar
    51    10     5   ar
    52    35    29   ar
    53    51    45   ar
    54    16    11   ar
    55    42    37   ar
@<TRIPOS>MOLECULE
*****
 51 55 0 0 0
SMALL
GASTEIGER

@<TRIPOS>ATOM
      1 N           6.5738   -1.8622   31.0504 N.am    1  UNL1       -0.2724
      2 C           6.0553   -0.6462   31.7594 C.2     1  UNL1        0.2491
      3 O           6.4583    0.7218   31.2947 O.2     1  UNL1       -0.2727
      4 C           7.4954   -1.7100   29.8768 C.3     1  UNL1        0.1202
      5 C           6.9744   -1.9054   28.4837 C.ar    1  UNL1       -0.0023
      6 C           7.9301   -2.1368   27.3511 C.ar    1  UNL1       -0.0026
      7 C           7.4091   -2.3322   25.9582 C.ar    1  UNL1       -0.0003
      8 C           5.9322   -2.2961   25.6979 C.ar    1  UNL1       -0.0000
      9 C           4.9765   -2.0647   26.8305 C.ar    1  UNL1       -0.0003
     10 C           5.4976   -1.8694   28.2235 C.ar    1  UNL1       -0.0026
     11 C           5.4112   -2.4915   24.3049 C.ar    1  UNL1       -0.0000
     12 C           4.3157   -1.6096   23.7833 C.ar    1  UNL1       -0.0001
     13 C           3.7947   -1.8050   22.3903 C.ar    1  UNL1        0.0039
     14 C           4.3692   -2.8823   21.5189 C.ar    1  UNL1        0.0714
     15 C           5.4647   -3.7643   22.0406 C.ar    1  UNL1        0.0039
     16 C           5.9857   -3.5689   23.4335 C.ar    1  UNL1       -0.0001
     17 C           3.8482   -3.0777   20.1260 C.3     1  UNL1        0.4186
     18 F           3.3272   -3.2731   18.7330 F       1  UNL1       -0.1659
     19 F           4.8450   -4.1770   19.9074 F       1  UNL1       -0.1659
     20 F           2.8514   -1.9784   20.3446 F       1  UNL1       -0.1659
     21 C           6.1708   -3.2303   31.5152 C.3     1  UNL1        0.1111
     22 C           7.2175   -4.2147   31.9456 C.3     1  UNL1        0.0939
     23 N           7.7769   -5.1947   30.9574 N.3     1  UNL1       -0.2712
     24 C           7.5307   -5.6002   28.4030 C.3     1  UNL1        0.0188
     25 C           6.9496   -5.6331   29.7854 C.3     1  UNL1        0.0722
     26 C           9.1635   -5.7364   31.1411 C.3     1  UNL1        0.0722
     27 C           9.3616   -7.1364   31.6418 C.3     1  UNL1        0.0188
     28 C           5.1337   -0.7984   32.9331 C.3     1  UNL1        0.1934
     29 N           4.2164    0.3246   33.3170 N.ar    1  UNL1       -0.2979
     30 C           4.4514    1.0835   34.5894 C.ar    1  UNL1        0.0786
     31 C           3.5341    2.2065   34.9732 C.ar    1  UNL1        0.0574
     32 C           2.3818    2.5707   34.0846 C.ar    1  UNL1        0.2786
     33 O           1.4644    3.6937   34.4685 O.2     1  UNL1       -0.2654
     34 N           2.1467    1.8119   32.8123 N.ar    1  UNL1       -0.1847
     35 C           3.0640    0.6888   32.4285 C.ar    1  UNL1        0.1750
     36 C           3.7691    2.9653   36.2456 C.3     1  UNL1        0.0622
     37 C           3.0630    2.5562   37.5042 C.ar    1  UNL1        0.0220
     38 C           2.7994    3.4333   38.6922 C.ar    1  UNL1        0.1177
     39 N           2.0700    2.6173   39.7179 N.ar    1  UNL1       -0.1679
     40 N           1.8828    1.2360   39.1640 N.ar    1  UNL1       -0.2477
     41 C           1.2016    0.0931   39.8565 C.3     1  UNL1        0.1537
     42 C           2.4965    1.1982   37.7958 C.ar    1  UNL1        0.0927
     43 S           2.8290   -0.0700   31.1561 S.3     1  UNL1       -0.0724
     44 C           2.0782    0.5723   30.0275 C.3     1  UNL1        0.0913
     45 C           2.7702    0.8432   28.7245 C.ar    1  UNL1       -0.0108
     46 C           2.0744    0.5447   27.4296 C.ar    1  UNL1       -0.0011
     47 C           2.7663    0.8156   26.1266 C.ar    1  UNL1        0.0293
     48 C           4.1541    1.3850   26.1185 C.ar    1  UNL1        0.1401
     49 F           4.8460    1.6558   24.8155 F       1  UNL1       -0.2042
     50 C           4.8498    1.6835   27.4135 C.ar    1  UNL1        0.0293
     51 C           4.1579    1.4126   28.7164 C.ar    1  UNL1       -0.0011
@<TRIPOS>BOND
     1    24    25    1
     2    25    23    1
     3    23    26    1
     4    26    27    1
     5    23    22    1
     6    22    21    1
     7    21     1    1
     8     1     4    1
     9     4     5    1
    10     5     6   ar
    11     6     7   ar
    12     7     8   ar
    13     8    11    1
    14    11    12   ar
    15    12    13   ar
    16    13    14   ar
    17    14    17    1
    18    17    18    1
    19    17    19    1
    20    17    20    1
    21    14    15   ar
    22    15    16   ar
    23     8     9   ar
    24     9    10   ar
    25     1     2   am
    26     2     3    2
    27     2    28    1
    28    28    29    1
    29    29    30   ar
    30    30    31   ar
    31    31    36    1
    32    36    37    1
    33    37    38   ar
    34    38    39   ar
    35    39    40   ar
    36    40    41    1
    37    40    42   ar
    38    31    32   ar
    39    32    33    2
    40    32    34   ar
    41    34    35   ar
    42    35    43    1
    43    43    44    1
    44    44    45    1
    45    45    46   ar
    46    46    47   ar
    47    47    48   ar
    48    48    49    1
    49    48    50   ar
    50    50    51   ar
    51    10     5   ar
    52    35    29   ar
    53    51    45   ar
    54    16    11   ar
    55    42    37   ar
@<TRIPOS>MOLECULE
*****
 51 55 0 0 0
SMALL
GASTEIGER

@<TRIPOS>ATOM
      1 N           2.5353    1.7238   28.8115 N.am    1  UNL1       -0.2724
      2 C           2.0875    0.4675   29.4979 C.2     1  UNL1        0.2491
      3 O           1.1366   -0.4655   28.8088 O.2     1  UNL1       -0.2727
      4 C           2.0322    2.0470   27.4359 C.3     1  UNL1        0.1202
      5 C           2.3872    1.1597   26.2797 C.ar    1  UNL1       -0.0023
      6 C           1.5664    1.1985   25.0248 C.ar    1  UNL1       -0.0026
      7 C           1.9214    0.3112   23.8687 C.ar    1  UNL1       -0.0003
      8 C           3.0973   -0.6149   23.9675 C.ar    1  UNL1       -0.0000
      9 C           3.9181   -0.6537   25.2224 C.ar    1  UNL1       -0.0003
     10 C           3.5630    0.2336   26.3785 C.ar    1  UNL1       -0.0026
     11 C           3.4523   -1.5022   22.8113 C.ar    1  UNL1       -0.0000
     12 C           2.9921   -1.1511   21.4275 C.ar    1  UNL1       -0.0001
     13 C           3.3471   -2.0384   20.2713 C.ar    1  UNL1        0.0039
     14 C           4.1623   -3.2768   20.4990 C.ar    1  UNL1        0.0714
     15 C           4.6225   -3.6279   21.8829 C.ar    1  UNL1        0.0039
     16 C           4.2675   -2.7406   23.0390 C.ar    1  UNL1       -0.0001
     17 C           4.5173   -4.1641   19.3429 C.3     1  UNL1        0.4186
     18 F           4.8723   -5.0514   18.1868 F       1  UNL1       -0.1659
     19 F           3.0831   -4.1658   18.9038 F       1  UNL1       -0.1659
     20 F           5.9515   -4.1624   19.7820 F       1  UNL1       -0.1659
     21 C           3.4864    2.6569   29.5007 C.3     1  UNL1        0.1111
     22 C           3.0341    4.0311   29.8967 C.3     1  UNL1        0.0939
     23 N           1.8252    4.2007   30.7683 N.3     1  UNL1       -0.2712
     24 C           0.3708    5.1033   28.8138 C.3     1  UNL1        0.0188
     25 C           0.6578    5.0081   30.2829 C.3     1  UNL1        0.0722
     26 C           1.7835    3.5628   32.1253 C.3     1  UNL1        0.0722
     27 C           0.9669    4.1824   33.2205 C.3     1  UNL1        0.0188
     28 C           2.5907    0.1443   30.8736 C.3     1  UNL1        0.1934
     29 N           4.0066   -0.3118   31.0663 N.ar    1  UNL1       -0.2979
     30 C           4.7681   -0.9005   29.9157 C.ar    1  UNL1        0.0786
     31 C           6.1840   -1.3566   30.1084 C.ar    1  UNL1        0.0574
     32 C           6.8385   -1.2241   31.4517 C.ar    1  UNL1        0.2786
     33 O           8.2544   -1.6803   31.6443 O.2     1  UNL1       -0.2654
     34 N           6.0770   -0.6355   32.6021 N.ar    1  UNL1       -0.1847
     35 C           4.6611   -0.1793   32.4094 C.ar    1  UNL1        0.1750
     36 C           6.9455   -1.9453   28.9579 C.3     1  UNL1        0.0622
     37 C           6.9306   -3.4276   28.7286 C.ar    1  UNL1        0.0220
     38 C           6.9022   -4.4842   29.7929 C.ar    1  UNL1        0.1177
     39 N           6.8955   -5.8232   29.1168 N.ar    1  UNL1       -0.1679
     40 N           6.9197   -5.5941   27.6345 N.ar    1  UNL1       -0.2477
     41 C           6.9219   -6.6586   26.5778 C.3     1  UNL1        0.1537
     42 C           6.9414   -4.1136   27.3947 C.ar    1  UNL1        0.0927
     43 S           3.8996    0.4093   33.5599 S.3     1  UNL1       -0.0724
     44 C           4.6380    1.0147   34.7168 C.3     1  UNL1        0.0913
     45 C           3.8873    1.4522   35.9395 C.ar    1  UNL1       -0.0108
     46 C           4.0358    0.6907   37.2232 C.ar    1  UNL1       -0.0011
     47 C           3.2851    1.1281   38.4459 C.ar    1  UNL1        0.0293
     48 C           2.3859    2.3272   38.3849 C.ar    1  UNL1        0.1401
     49 F           1.6352    2.7647   39.6076 F       1  UNL1       -0.2042
     50 C           2.2374    3.0888   37.1011 C.ar    1  UNL1        0.0293
     51 C           2.9881    2.6513   35.8784 C.ar    1  UNL1       -0.0011
@<TRIPOS>BOND
     1    24    25    1
     2    25    23    1
     3    23    26    1
     4    26    27    1
     5    23    22    1
     6    22    21    1
     7    21     1    1
     8     1     4    1
     9     4     5    1
    10     5     6   ar
    11     6     7   ar
    12     7     8   ar
    13     8    11    1
    14    11    12   ar
    15    12    13   ar
    16    13    14   ar
    17    14    17    1
    18    17    18    1
    19    17    19    1
    20    17    20    1
    21    14    15   ar
    22    15    16   ar
    23     8     9   ar
    24     9    10   ar
    25     1     2   am
    26     2     3    2
    27     2    28    1
    28    28    29    1
    29    29    30   ar
    30    30    31   ar
    31    31    36    1
    32    36    37    1
    33    37    38   ar
    34    38    39   ar
    35    39    40   ar
    36    40    41    1
    37    40    42   ar
    38    31    32   ar
    39    32    33    2
    40    32    34   ar
    41    34    35   ar
    42    35    43    1
    43    43    44    1
    44    44    45    1
    45    45    46   ar
    46    46    47   ar
    47    47    48   ar
    48    48    49    1
    49    48    50   ar
    50    50    51   ar
    51    10     5   ar
    52    35    29   ar
    53    51    45   ar
    54    16    11   ar
    55    42    37   ar
@<TRIPOS>MOLECULE
*****
 51 55 0 0 0
SMALL
GASTEIGER

@<TRIPOS>ATOM
      1 N           3.9747    0.7877   29.8921 N.am    1  UNL1       -0.2724
      2 C           3.7245   -0.1587   31.0287 C.2     1  UNL1        0.2491
      3 O           2.4680   -0.9772   31.0604 O.2     1  UNL1       -0.2727
      4 C           2.9684    0.9155   28.7872 C.3     1  UNL1        0.1202
      5 C           3.2081    0.2350   27.4720 C.ar    1  UNL1       -0.0023
      6 C           2.6614    0.8309   26.2087 C.ar    1  UNL1       -0.0026
      7 C           2.9011    0.1504   24.8936 C.ar    1  UNL1       -0.0003
      8 C           3.6874   -1.1259   24.8419 C.ar    1  UNL1       -0.0000
      9 C           4.2341   -1.7218   26.1052 C.ar    1  UNL1       -0.0003
     10 C           3.9944   -1.0413   27.4203 C.ar    1  UNL1       -0.0026
     11 C           3.9271   -1.8064   23.5267 C.ar    1  UNL1       -0.0000
     12 C           4.7582   -3.0537   23.4681 C.ar    1  UNL1       -0.0001
     13 C           4.9979   -3.7341   22.1529 C.ar    1  UNL1        0.0039
     14 C           4.4064   -3.1672   20.8964 C.ar    1  UNL1        0.0714
     15 C           3.5753   -1.9198   20.9551 C.ar    1  UNL1        0.0039
     16 C           3.3357   -1.2395   22.2702 C.ar    1  UNL1       -0.0001
     17 C           4.6461   -3.8476   19.5813 C.3     1  UNL1        0.4186
     18 F           4.8857   -4.5280   18.2661 F       1  UNL1       -0.1659
     19 F           3.2414   -3.5307   19.1614 F       1  UNL1       -0.1659
     20 F           6.0508   -4.1645   20.0012 F       1  UNL1       -0.1659
     21 C           5.2313    1.6063   29.8605 C.3     1  UNL1        0.1111
     22 C           6.4761    1.0457   29.2391 C.3     1  UNL1        0.0939
     23 N           7.1163    1.7474   28.0782 N.3     1  UNL1       -0.2712
     24 C           6.3609    1.3498   25.6244 C.3     1  UNL1        0.0188
     25 C           7.2788    1.0350   26.7682 C.3     1  UNL1        0.0722
     26 C           7.5940    3.1615   28.2273 C.3     1  UNL1        0.0722
     27 C           8.5805    3.5105   29.3020 C.3     1  UNL1        0.0188
     28 C           4.7309   -0.2864   32.1337 C.3     1  UNL1        0.1934
     29 N           5.8430   -1.2869   32.0232 N.ar    1  UNL1       -0.2979
     30 C           5.7098   -2.4568   31.0938 C.ar    1  UNL1        0.0786
     31 C           6.8220   -3.4573   30.9833 C.ar    1  UNL1        0.0574
     32 C           8.0673   -3.2879   31.8022 C.ar    1  UNL1        0.2786
     33 O           9.1794   -4.2884   31.6918 O.2     1  UNL1       -0.2654
     34 N           8.2004   -2.1181   32.7316 N.ar    1  UNL1       -0.1847
     35 C           7.0883   -1.1176   32.8421 C.ar    1  UNL1        0.1750
     36 C           6.6888   -4.6271   30.0539 C.3     1  UNL1        0.0622
     37 C           6.8512   -4.4327   28.5754 C.ar    1  UNL1        0.0220
     38 C           6.4910   -5.4259   27.5107 C.ar    1  UNL1        0.1177
     39 N           6.8196   -4.8180   26.1794 N.ar    1  UNL1       -0.1679
     40 N           7.3829   -3.4489   26.4213 N.ar    1  UNL1       -0.2477
     41 C           7.8454   -2.4870   25.3674 C.3     1  UNL1        0.1537
     42 C           7.4024   -3.2108   27.9021 C.ar    1  UNL1        0.0927
     43 S           7.2214    0.0522   33.7715 S.3     1  UNL1       -0.0724
     44 C           7.4281   -0.1760   35.2396 C.3     1  UNL1        0.0913
     45 C           6.4838    0.4326   36.2334 C.ar    1  UNL1       -0.0108
     46 C           5.0625   -0.0413   36.3050 C.ar    1  UNL1       -0.0011
     47 C           4.1181    0.5673   37.2989 C.ar    1  UNL1        0.0293
     48 C           4.5951    1.6498   38.2212 C.ar    1  UNL1        0.1401
     49 F           3.6507    2.2584   39.2151 F       1  UNL1       -0.2042
     50 C           6.0165    2.1237   38.1496 C.ar    1  UNL1        0.0293
     51 C           6.9608    1.5151   37.1558 C.ar    1  UNL1       -0.0011
@<TRIPOS>BOND
     1    24    25    1
     2    25    23    1
     3    23    26    1
     4    26    27    1
     5    23    22    1
     6    22    21    1
     7    21     1    1
     8     1     4    1
     9     4     5    1
    10     5     6   ar
    11     6     7   ar
    12     7     8   ar
    13     8    11    1
    14    11    12   ar
    15    12    13   ar
    16    13    14   ar
    17    14    17    1
    18    17    18    1
    19    17    19    1
    20    17    20    1
    21    14    15   ar
    22    15    16   ar
    23     8     9   ar
    24     9    10   ar
    25     1     2   am
    26     2     3    2
    27     2    28    1
    28    28    29    1
    29    29    30   ar
    30    30    31   ar
    31    31    36    1
    32    36    37    1
    33    37    38   ar
    34    38    39   ar
    35    39    40   ar
    36    40    41    1
    37    40    42   ar
    38    31    32   ar
    39    32    33    2
    40    32    34   ar
    41    34    35   ar
    42    35    43    1
    43    43    44    1
    44    44    45    1
    45    45    46   ar
    46    46    47   ar
    47    47    48   ar
    48    48    49    1
    49    48    50   ar
    50    50    51   ar
    51    10     5   ar
    52    35    29   ar
    53    51    45   ar
    54    16    11   ar
    55    42    37   ar
@<TRIPOS>MOLECULE
*****
 51 55 0 0 0
SMALL
GASTEIGER

@<TRIPOS>ATOM
      1 N           3.8847    0.6589   30.1281 N.am    1  UNL1       -0.2724
      2 C           3.7329   -0.3630   31.2156 C.2     1  UNL1        0.2491
      3 O           2.5481   -1.2828   31.2204 O.2     1  UNL1       -0.2727
      4 C           2.8517    0.7608   29.0453 C.3     1  UNL1        0.1202
      5 C           3.1151    0.1562   27.6980 C.ar    1  UNL1       -0.0023
      6 C           2.4992    0.7608   26.4712 C.ar    1  UNL1       -0.0026
      7 C           2.7626    0.1561   25.1240 C.ar    1  UNL1       -0.0003
      8 C           3.6421   -1.0530   25.0036 C.ar    1  UNL1       -0.0000
      9 C           4.2580   -1.6576   26.2304 C.ar    1  UNL1       -0.0003
     10 C           3.9946   -1.0530   27.5776 C.ar    1  UNL1       -0.0026
     11 C           3.9055   -1.6577   23.6563 C.ar    1  UNL1       -0.0000
     12 C           3.2365   -1.0945   22.4377 C.ar    1  UNL1       -0.0001
     13 C           3.4999   -1.6991   21.0904 C.ar    1  UNL1        0.0039
     14 C           4.4325   -2.8669   20.9619 C.ar    1  UNL1        0.0714
     15 C           5.1016   -3.4301   22.1806 C.ar    1  UNL1        0.0039
     16 C           4.8381   -2.8255   23.5278 C.ar    1  UNL1       -0.0001
     17 C           4.6960   -3.4716   19.6147 C.3     1  UNL1        0.4186
     18 F           4.9594   -4.0762   18.2675 F       1  UNL1       -0.1659
     19 F           3.6169   -2.6163   19.0198 F       1  UNL1       -0.1659
     20 F           5.7750   -4.3269   20.2096 F       1  UNL1       -0.1659
     21 C           5.0695    1.5788   30.1233 C.3     1  UNL1        0.1111
     22 C           4.8767    3.0511   30.3352 C.3     1  UNL1        0.0939
     23 N           4.1093    3.5433   31.5263 N.3     1  UNL1       -0.2712
     24 C           1.6096    3.7740   30.8566 C.3     1  UNL1        0.0188
     25 C           2.8894    4.3945   31.3331 C.3     1  UNL1        0.0722
     26 C           4.5616    3.1842   32.9107 C.3     1  UNL1        0.0722
     27 C           3.5868    2.6017   33.8908 C.3     1  UNL1        0.0188
     28 C           4.7659   -0.4649   32.2985 C.3     1  UNL1        0.1934
     29 N           5.9532   -1.3641   32.1200 N.ar    1  UNL1       -0.2979
     30 C           5.7623   -2.7718   31.6383 C.ar    1  UNL1        0.0786
     31 C           6.9495   -3.6710   31.4599 C.ar    1  UNL1        0.0574
     32 C           8.3278   -3.1624   31.7632 C.ar    1  UNL1        0.2786
     33 O           9.5151   -4.0616   31.5848 O.2     1  UNL1       -0.2654
     34 N           8.5187   -1.7548   32.2449 N.ar    1  UNL1       -0.1847
     35 C           7.3314   -0.8556   32.4233 C.ar    1  UNL1        0.1750
     36 C           6.7586   -5.0786   30.9782 C.3     1  UNL1        0.0622
     37 C           7.0866   -5.4367   29.5590 C.ar    1  UNL1        0.0220
     38 C           8.0174   -6.5268   29.1172 C.ar    1  UNL1        0.1177
     39 N           8.0475   -6.5313   27.6175 N.ar    1  UNL1       -0.1679
     40 N           7.1351   -5.4439   27.1324 N.ar    1  UNL1       -0.2477
     41 C           6.8643   -5.0944   25.6991 C.3     1  UNL1        0.1537
     42 C           6.5414   -4.7674   28.3323 C.ar    1  UNL1        0.0927
     43 S           7.5223    0.5520   32.9049 S.3     1  UNL1       -0.0724
     44 C           7.8603    0.8134   34.3429 C.3     1  UNL1        0.0913
     45 C           6.7651    0.9375   35.3602 C.ar    1  UNL1       -0.0108
     46 C           6.5910    2.2176   36.1223 C.ar    1  UNL1       -0.0011
     47 C           5.4957    2.3418   37.1397 C.ar    1  UNL1        0.0293
     48 C           4.5745    1.1858   37.3949 C.ar    1  UNL1        0.1401
     49 F           3.4793    1.3099   38.4122 F       1  UNL1       -0.2042
     50 C           4.7487   -0.0944   36.6327 C.ar    1  UNL1        0.0293
     51 C           5.8439   -0.2185   35.6153 C.ar    1  UNL1       -0.0011
@<TRIPOS>BOND
     1    24    25    1
     2    25    23    1
     3    23    26    1
     4    26    27    1
     5    23    22    1
     6    22    21    1
     7    21     1    1
     8     1     4    1
     9     4     5    1
    10     5     6   ar
    11     6     7   ar
    12     7     8   ar
    13     8    11    1
    14    11    12   ar
    15    12    13   ar
    16    13    14   ar
    17    14    17    1
    18    17    18    1
    19    17    19    1
    20    17    20    1
    21    14    15   ar
    22    15    16   ar
    23     8     9   ar
    24     9    10   ar
    25     1     2   am
    26     2     3    2
    27     2    28    1
    28    28    29    1
    29    29    30   ar
    30    30    31   ar
    31    31    36    1
    32    36    37    1
    33    37    38   ar
    34    38    39   ar
    35    39    40   ar
    36    40    41    1
    37    40    42   ar
    38    31    32   ar
    39    32    33    2
    40    32    34   ar
    41    34    35   ar
    42    35    43    1
    43    43    44    1
    44    44    45    1
    45    45    46   ar
    46    46    47   ar
    47    47    48   ar
    48    48    49    1
    49    48    50   ar
    50    50    51   ar
    51    10     5   ar
    52    35    29   ar
    53    51    45   ar
    54    16    11   ar
    55    42    37   ar
@<TRIPOS>MOLECULE
*****
 51 55 0 0 0
SMALL
GASTEIGER

@<TRIPOS>ATOM
      1 N          -0.7665    2.6115   24.7728 N.am    1  UNL1       -0.2724
      2 C          -1.0522    3.8393   23.9598 C.2     1  UNL1        0.2491
      3 O          -1.9329    4.9187   24.5156 O.2     1  UNL1       -0.2727
      4 C          -1.3616    2.4632   26.1416 C.3     1  UNL1        0.1202
      5 C          -0.5018    2.0242   27.2898 C.ar    1  UNL1       -0.0023
      6 C           0.5658    2.9354   27.8186 C.ar    1  UNL1       -0.0026
      7 C           1.4255    2.4963   28.9667 C.ar    1  UNL1       -0.0003
      8 C           1.2176    1.1460   29.5859 C.ar    1  UNL1       -0.0000
      9 C           0.1500    0.2347   29.0570 C.ar    1  UNL1       -0.0003
     10 C          -0.7097    0.6738   27.9089 C.ar    1  UNL1       -0.0026
     11 C           2.0773    0.7069   30.7340 C.ar    1  UNL1       -0.0000
     12 C           2.1621    1.5490   31.9724 C.ar    1  UNL1       -0.0001
     13 C           3.0219    1.1099   33.1205 C.ar    1  UNL1        0.0039
     14 C           3.7969   -0.1712   33.0301 C.ar    1  UNL1        0.0714
     15 C           3.7120   -1.0133   31.7916 C.ar    1  UNL1        0.0039
     16 C           2.8523   -0.5742   30.6436 C.ar    1  UNL1       -0.0001
     17 C           4.6566   -0.6103   34.1781 C.3     1  UNL1        0.4186
     18 F           5.5163   -1.0494   35.3262 F       1  UNL1       -0.1659
     19 F           5.3920    0.6961   34.1271 F       1  UNL1       -0.1659
     20 F           3.9213   -1.9166   34.2292 F       1  UNL1       -0.1659
     21 C           0.1143    1.5321   24.2169 C.3     1  UNL1        0.1111
     22 C           1.6056    1.6492   24.3286 C.3     1  UNL1        0.0939
     23 N           2.4874    1.0096   23.2975 N.3     1  UNL1       -0.2712
     24 C           3.1674    3.3221   22.3280 C.3     1  UNL1        0.0188
     25 C           3.0537    1.8338   22.1794 C.3     1  UNL1        0.0722
     26 C           2.8029   -0.4543   23.3843 C.3     1  UNL1        0.0722
     27 C           3.2902   -1.1897   22.1711 C.3     1  UNL1        0.0188
     28 C          -0.4570    3.9876   22.5909 C.3     1  UNL1        0.1934
     29 N          -1.3460    3.9892   21.3827 N.ar    1  UNL1       -0.2979
     30 C          -2.7863    3.5902   21.5108 C.ar    1  UNL1        0.0786
     31 C          -3.6753    3.5918   20.3027 C.ar    1  UNL1        0.0574
     32 C          -3.1240    3.9923   18.9664 C.ar    1  UNL1        0.2786
     33 O          -4.0130    3.9939   17.7582 O.2     1  UNL1       -0.2654
     34 N          -1.6837    4.3912   18.8383 N.ar    1  UNL1       -0.1847
     35 C          -0.7947    4.3897   20.0464 C.ar    1  UNL1        0.1750
     36 C          -5.1156    3.1929   20.4308 C.3     1  UNL1        0.0622
     37 C          -6.0803    4.0872   21.1516 C.ar    1  UNL1        0.0220
     38 C          -6.9180    5.1644   20.5287 C.ar    1  UNL1        0.1177
     39 N          -7.7321    5.8043   21.6139 N.ar    1  UNL1       -0.1679
     40 N          -7.3976    5.1226   22.9076 N.ar    1  UNL1       -0.2477
     41 C          -7.9814    5.4454   24.2510 C.3     1  UNL1        0.1537
     42 C          -6.3767    4.0614   22.6218 C.ar    1  UNL1        0.0927
     43 S           0.6455    4.7886   19.9183 S.3     1  UNL1       -0.0724
     44 C           1.4288    4.3905   18.7025 C.3     1  UNL1        0.0913
     45 C           1.9653    2.9952   18.5796 C.ar    1  UNL1       -0.0108
     46 C           3.4455    2.7647   18.5041 C.ar    1  UNL1       -0.0011
     47 C           3.9820    1.3693   18.3812 C.ar    1  UNL1        0.0293
     48 C           3.0383    0.2044   18.3338 C.ar    1  UNL1        0.1401
     49 F           3.5747   -1.1910   18.2109 F       1  UNL1       -0.2042
     50 C           1.5580    0.4349   18.4094 C.ar    1  UNL1        0.0293
     51 C           1.0215    1.8302   18.5323 C.ar    1  UNL1       -0.0011
@<TRIPOS>BOND
     1    24    25    1
     2    25    23    1
     3    23    26    1
     4    26    27    1
     5    23    22    1
     6    22    21    1
     7    21     1    1
     8     1     4    1
     9     4     5    1
    10     5     6   ar
    11     6     7   ar
    12     7     8   ar
    13     8    11    1
    14    11    12   ar
    15    12    13   ar
    16    13    14   ar
    17    14    17    1
    18    17    18    1
    19    17    19    1
    20    17    20    1
    21    14    15   ar
    22    15    16   ar
    23     8     9   ar
    24     9    10   ar
    25     1     2   am
    26     2     3    2
    27     2    28    1
    28    28    29    1
    29    29    30   ar
    30    30    31   ar
    31    31    36    1
    32    36    37    1
    33    37    38   ar
    34    38    39   ar
    35    39    40   ar
    36    40    41    1
    37    40    42   ar
    38    31    32   ar
    39    32    33    2
    40    32    34   ar
    41    34    35   ar
    42    35    43    1
    43    43    44    1
    44    44    45    1
    45    45    46   ar
    46    46    47   ar
    47    47    48   ar
    48    48    49    1
    49    48    50   ar
    50    50    51   ar
    51    10     5   ar
    52    35    29   ar
    53    51    45   ar
    54    16    11   ar
    55    42    37   ar
@<TRIPOS>MOLECULE
*****
 51 55 0 0 0
SMALL
GASTEIGER

@<TRIPOS>ATOM
      1 N          -0.2562    3.0508   24.4786 N.am    1  UNL1       -0.2724
      2 C           0.5436    2.3060   23.4512 C.2     1  UNL1        0.2491
      3 O           0.6451    0.8111   23.5190 O.2     1  UNL1       -0.2727
      4 C          -0.9545    2.3006   25.5738 C.3     1  UNL1        0.1202
      5 C          -0.1984    1.8922   26.8034 C.ar    1  UNL1       -0.0023
      6 C          -0.8780    1.0822   27.8673 C.ar    1  UNL1       -0.0026
      7 C          -0.1220    0.6739   29.0967 C.ar    1  UNL1       -0.0003
      8 C           1.3138    1.0756   29.2622 C.ar    1  UNL1       -0.0000
      9 C           1.9934    1.8856   28.1983 C.ar    1  UNL1       -0.0003
     10 C           1.2373    2.2939   26.9689 C.ar    1  UNL1       -0.0026
     11 C           2.0698    0.6672   30.4917 C.ar    1  UNL1       -0.0000
     12 C           2.8104   -0.6370   30.5182 C.ar    1  UNL1       -0.0001
     13 C           3.5665   -1.0454   31.7477 C.ar    1  UNL1        0.0039
     14 C           3.5820   -0.1495   32.9507 C.ar    1  UNL1        0.0714
     15 C           2.8413    1.1546   32.9242 C.ar    1  UNL1        0.0039
     16 C           2.0853    1.5630   31.6948 C.ar    1  UNL1       -0.0001
     17 C           4.3380   -0.5579   34.1802 C.3     1  UNL1        0.4186
     18 F           5.0940   -0.9662   35.4097 F       1  UNL1       -0.1659
     19 F           4.3052    0.8592   34.6710 F       1  UNL1       -0.1659
     20 F           4.3708   -1.9749   33.6894 F       1  UNL1       -0.1659
     21 C          -0.3577    4.5459   24.4108 C.3     1  UNL1        0.1111
     22 C          -1.3651    5.2683   25.2553 C.3     1  UNL1        0.0939
     23 N          -2.8250    5.1787   24.9226 N.3     1  UNL1       -0.2712
     24 C          -4.3096    4.1915   26.8125 C.3     1  UNL1        0.0188
     25 C          -3.8525    5.3661   25.9993 C.3     1  UNL1        0.0722
     26 C          -3.2574    4.9016   23.5133 C.3     1  UNL1        0.0722
     27 C          -3.9401    3.6084   23.1788 C.3     1  UNL1        0.0188
     28 C           1.2419    3.0563   22.3559 C.3     1  UNL1        0.1934
     29 N           0.5937    3.1945   21.0102 N.ar    1  UNL1       -0.2979
     30 C          -0.4918    4.2085   20.8012 C.ar    1  UNL1        0.0786
     31 C          -1.1400    4.3467   19.4555 C.ar    1  UNL1        0.0574
     32 C          -0.7025    3.4710   18.3189 C.ar    1  UNL1        0.2786
     33 O          -1.3506    3.6092   16.9732 O.2     1  UNL1       -0.2654
     34 N           0.3830    2.4571   18.5280 N.ar    1  UNL1       -0.1847
     35 C           1.0311    2.3189   19.8736 C.ar    1  UNL1        0.1750
     36 C          -2.2255    5.3605   19.2465 C.3     1  UNL1        0.0622
     37 C          -3.6477    5.0151   19.5751 C.ar    1  UNL1        0.0220
     38 C          -4.2908    3.6708   19.4039 C.ar    1  UNL1        0.1177
     39 N          -5.7171    3.7783   19.8556 N.ar    1  UNL1       -0.1679
     40 N          -5.9556    5.1892   20.3060 N.ar    1  UNL1       -0.2477
     41 C          -7.2464    5.7390   20.8366 C.3     1  UNL1        0.1537
     42 C          -4.6767    5.9535   20.1326 C.ar    1  UNL1        0.0927
     43 S           2.1166    1.3051   20.0827 S.3     1  UNL1       -0.0724
     44 C           1.8036   -0.1590   19.9893 C.3     1  UNL1        0.0913
     45 C           2.7207   -1.1638   20.6212 C.ar    1  UNL1       -0.0108
     46 C           3.0783   -1.0439   22.0729 C.ar    1  UNL1       -0.0011
     47 C           3.9954   -2.0488   22.7049 C.ar    1  UNL1        0.0293
     48 C           4.5549   -3.1734   21.8850 C.ar    1  UNL1        0.1401
     49 F           5.4719   -4.1782   22.5169 F       1  UNL1       -0.2042
     50 C           4.1972   -3.2932   20.4332 C.ar    1  UNL1        0.0293
     51 C           3.2801   -2.2884   19.8013 C.ar    1  UNL1       -0.0011
@<TRIPOS>BOND
     1    24    25    1
     2    25    23    1
     3    23    26    1
     4    26    27    1
     5    23    22    1
     6    22    21    1
     7    21     1    1
     8     1     4    1
     9     4     5    1
    10     5     6   ar
    11     6     7   ar
    12     7     8   ar
    13     8    11    1
    14    11    12   ar
    15    12    13   ar
    16    13    14   ar
    17    14    17    1
    18    17    18    1
    19    17    19    1
    20    17    20    1
    21    14    15   ar
    22    15    16   ar
    23     8     9   ar
    24     9    10   ar
    25     1     2   am
    26     2     3    2
    27     2    28    1
    28    28    29    1
    29    29    30   ar
    30    30    31   ar
    31    31    36    1
    32    36    37    1
    33    37    38   ar
    34    38    39   ar
    35    39    40   ar
    36    40    41    1
    37    40    42   ar
    38    31    32   ar
    39    32    33    2
    40    32    34   ar
    41    34    35   ar
    42    35    43    1
    43    43    44    1
    44    44    45    1
    45    45    46   ar
    46    46    47   ar
    47    47    48   ar
    48    48    49    1
    49    48    50   ar
    50    50    51   ar
    51    10     5   ar
    52    35    29   ar
    53    51    45   ar
    54    16    11   ar
    55    42    37   ar
