@<TRIPOS>MOLECULE
*****
 31 35 0 0 0
SMALL
GASTEIGER

@<TRIPOS>ATOM
      1 C           1.6185    0.3171   29.5054 C.2     1  UNL1        0.4056
      2 O           0.6319    1.2047   28.8061 O.2     1  UNL1       -0.2262
      3 N           2.0922    0.6637   30.8857 N.am    1  UNL1       -0.2345
      4 C           1.5179    1.9177   31.4752 C.3     1  UNL1        0.1254
      5 C           1.7871    2.5283   32.8187 C.ar    1  UNL1        0.0148
      6 C           1.0017    3.7912   33.0140 C.ar    1  UNL1        0.0102
      7 C           1.1265    4.5613   34.2951 C.ar    1  UNL1        0.0575
      8 CL          0.3410    5.8243   34.4906 Cl      1  UNL1       -0.0823
      9 C           2.0366    4.0685   35.3809 C.ar    1  UNL1        0.0129
     10 C           2.8220    2.8057   35.1855 C.ar    1  UNL1        0.0182
     11 C           2.6972    2.0355   33.9044 C.ar    1  UNL1        0.0639
     12 N           3.5629    0.8105   33.9148 N.ar    1  UNL1       -0.2796
     13 C           3.7323   -0.2242   32.8422 C.ar    1  UNL1        0.1673
     14 N           4.7092   -1.2492   33.3370 N.ar    1  UNL1       -0.1315
     15 N           5.1436   -0.8480   34.7155 N.ar    1  UNL1       -0.1333
     16 C           4.4352    0.4250   35.0727 C.ar    1  UNL1        0.1465
     17 C           3.0778   -0.2895   31.4941 C.3     1  UNL1        0.1632
     18 C           4.5745    1.1799   36.3613 C.3     1  UNL1        0.0625
     19 C           3.6618    0.8748   37.5119 C.3     1  UNL1        0.0291
     20 C           3.8011    1.6296   38.8005 C.3     1  UNL1        0.0926
     21 N           4.8533    2.6897   38.9387 N.pl3   1  UNL1       -0.2932
     22 C           5.7661    2.9949   37.7882 C.3     1  UNL1        0.0926
     23 C           5.6268    2.2401   36.4995 C.3     1  UNL1        0.0291
     24 C           4.9927    3.4447   40.2274 C.ar    1  UNL1        0.1317
     25 C           4.0349    4.5515   40.5555 C.ar    1  UNL1        0.0343
     26 C           4.1743    5.3064   41.8442 C.ar    1  UNL1        0.0045
     27 C           5.2714    4.9546   42.8046 C.ar    1  UNL1        0.0208
     28 C           6.2292    3.8478   42.4765 C.ar    1  UNL1        0.1003
     29 N           6.0898    3.0928   41.1878 N.ar    1  UNL1       -0.2292
     30 C           3.1609   -0.8020   27.7394 C.3     1  UNL1        0.2573
     31 O           2.1314   -0.9171   28.8243 O.3     1  UNL1       -0.4304
@<TRIPOS>BOND
     1    30    31    1
     2    31     1    1
     3     1     2    2
     4     1     3   am
     5     3     4    1
     6     4     5    1
     7     5     6   ar
     8     6     7   ar
     9     7     8    1
    10     7     9   ar
    11     9    10   ar
    12    10    11   ar
    13    11    12    1
    14    12    13   ar
    15    13    14   ar
    16    14    15   ar
    17    15    16   ar
    18    16    18    1
    19    18    19    1
    20    19    20    1
    21    20    21    1
    22    21    24    1
    23    24    25   ar
    24    25    26   ar
    25    26    27   ar
    26    27    28   ar
    27    28    29   ar
    28    21    22    1
    29    22    23    1
    30    13    17    1
    31    17     3    1
    32    11     5   ar
    33    16    12   ar
    34    23    18    1
    35    29    24   ar
@<TRIPOS>MOLECULE
*****
 31 35 0 0 0
SMALL
GASTEIGER

@<TRIPOS>ATOM
      1 C          -0.2852    5.5841   33.8909 C.2     1  UNL1        0.4056
      2 O          -1.3664    5.9606   32.9218 O.2     1  UNL1       -0.2262
      3 N           0.6081    4.4146   33.6008 N.am    1  UNL1       -0.2345
      4 C           0.3356    3.6904   32.3158 C.3     1  UNL1        0.1254
      5 C           1.0434    2.4966   31.7466 C.ar    1  UNL1        0.0148
      6 C           0.4520    2.0845   30.4312 C.ar    1  UNL1        0.0102
      7 C           1.0158    0.9080   29.6911 C.ar    1  UNL1        0.0575
      8 CL          0.4244    0.4958   28.3756 Cl      1  UNL1       -0.0823
      9 C           2.1711    0.1435   30.2665 C.ar    1  UNL1        0.0129
     10 C           2.7625    0.5556   31.5819 C.ar    1  UNL1        0.0182
     11 C           2.1986    1.7322   32.3220 C.ar    1  UNL1        0.0639
     12 N           2.9313    1.9727   33.6086 N.ar    1  UNL1       -0.2796
     13 C           2.6898    3.0371   34.6376 C.ar    1  UNL1        0.1673
     14 N           3.6897    2.8513   35.7401 N.ar    1  UNL1       -0.1315
     15 N           4.5492    1.6721   35.3926 N.ar    1  UNL1       -0.1333
     16 C           4.0805    1.1291   34.0752 C.ar    1  UNL1        0.1465
     17 C           1.6559    4.1238   34.6341 C.3     1  UNL1        0.1632
     18 C           4.6594   -0.0503   33.3516 C.3     1  UNL1        0.0625
     19 C           4.2374   -1.4405   33.7250 C.3     1  UNL1        0.0291
     20 C           4.8162   -2.6199   33.0013 C.3     1  UNL1        0.0926
     21 N           5.8171   -2.4093   31.9042 N.pl3   1  UNL1       -0.2932
     22 C           6.2392   -1.0192   31.5307 C.3     1  UNL1        0.0926
     23 C           5.6603    0.1603   32.2543 C.3     1  UNL1        0.0291
     24 C           6.3960   -3.5888   31.1804 C.ar    1  UNL1        0.1317
     25 C           6.8721   -4.7831   31.9532 C.ar    1  UNL1        0.0343
     26 C           7.4510   -5.9626   31.2294 C.ar    1  UNL1        0.0045
     27 C           7.5538   -5.9478   29.7331 C.ar    1  UNL1        0.0208
     28 C           7.0777   -4.7535   28.9603 C.ar    1  UNL1        0.1003
     29 N           6.4988   -3.5740   29.6841 N.ar    1  UNL1       -0.2292
     30 C          -1.2846    6.9786   35.8420 C.3     1  UNL1        0.2573
     31 O          -0.0972    6.3772   35.1502 O.3     1  UNL1       -0.4304
@<TRIPOS>BOND
     1    30    31    1
     2    31     1    1
     3     1     2    2
     4     1     3   am
     5     3     4    1
     6     4     5    1
     7     5     6   ar
     8     6     7   ar
     9     7     8    1
    10     7     9   ar
    11     9    10   ar
    12    10    11   ar
    13    11    12    1
    14    12    13   ar
    15    13    14   ar
    16    14    15   ar
    17    15    16   ar
    18    16    18    1
    19    18    19    1
    20    19    20    1
    21    20    21    1
    22    21    24    1
    23    24    25   ar
    24    25    26   ar
    25    26    27   ar
    26    27    28   ar
    27    28    29   ar
    28    21    22    1
    29    22    23    1
    30    13    17    1
    31    17     3    1
    32    11     5   ar
    33    16    12   ar
    34    23    18    1
    35    29    24   ar
@<TRIPOS>MOLECULE
*****
 31 35 0 0 0
SMALL
GASTEIGER

@<TRIPOS>ATOM
      1 C           7.6387   -5.0077   23.6482 C.2     1  UNL1        0.4056
      2 O           7.8773   -5.0978   25.1264 O.2     1  UNL1       -0.2262
      3 N           6.6239   -4.0433   23.1098 N.am    1  UNL1       -0.2345
      4 C           5.9039   -3.2169   24.1338 C.3     1  UNL1        0.1254
      5 C           4.8454   -2.1758   23.9195 C.ar    1  UNL1        0.0148
      6 C           4.3872   -1.5844   25.2196 C.ar    1  UNL1        0.0102
      7 C           3.3292   -0.5212   25.2284 C.ar    1  UNL1        0.0575
      8 CL          2.8710    0.0703   26.5285 Cl      1  UNL1       -0.0823
      9 C           2.7292   -0.0495   23.9370 C.ar    1  UNL1        0.0129
     10 C           3.1874   -0.6410   22.6369 C.ar    1  UNL1        0.0182
     11 C           4.2455   -1.7041   22.6282 C.ar    1  UNL1        0.0639
     12 N           4.5559   -2.1569   21.2323 N.ar    1  UNL1       -0.2796
     13 C           5.5428   -3.1932   20.7828 C.ar    1  UNL1        0.1673
     14 N           5.4768   -3.2783   19.2868 N.ar    1  UNL1       -0.1315
     15 N           4.4490   -2.2945   18.8115 N.ar    1  UNL1       -0.1333
     16 C           3.8799   -1.6014   20.0138 C.ar    1  UNL1        0.1465
     17 C           6.4632   -4.0327   21.6185 C.3     1  UNL1        0.1632
     18 C           2.8207   -0.5395   20.0002 C.3     1  UNL1        0.0625
     19 C           3.1969    0.8920   19.7565 C.3     1  UNL1        0.0291
     20 C           2.1377    1.9540   19.7428 C.3     1  UNL1        0.0926
     21 N           0.7023    1.5846   19.9730 N.pl3   1  UNL1       -0.2932
     22 C           0.3260    0.1532   20.2167 C.3     1  UNL1        0.0926
     23 C           1.3852   -0.9089   20.2304 C.3     1  UNL1        0.0291
     24 C          -0.3570    2.6467   19.9594 C.ar    1  UNL1        0.1317
     25 C          -0.2673    3.7829   18.9842 C.ar    1  UNL1        0.0343
     26 C          -1.3265    4.8449   18.9706 C.ar    1  UNL1        0.0045
     27 C          -2.4754    4.7707   19.9321 C.ar    1  UNL1        0.0208
     28 C          -2.5651    3.6345   20.9073 C.ar    1  UNL1        0.1003
     29 N          -1.5058    2.5724   20.9209 N.ar    1  UNL1       -0.2292
     30 C           8.7761   -7.2810   23.1114 C.3     1  UNL1        0.2573
     31 O           8.4149   -5.8820   22.7085 O.3     1  UNL1       -0.4304
@<TRIPOS>BOND
     1    30    31    1
     2    31     1    1
     3     1     2    2
     4     1     3   am
     5     3     4    1
     6     4     5    1
     7     5     6   ar
     8     6     7   ar
     9     7     8    1
    10     7     9   ar
    11     9    10   ar
    12    10    11   ar
    13    11    12    1
    14    12    13   ar
    15    13    14   ar
    16    14    15   ar
    17    15    16   ar
    18    16    18    1
    19    18    19    1
    20    19    20    1
    21    20    21    1
    22    21    24    1
    23    24    25   ar
    24    25    26   ar
    25    26    27   ar
    26    27    28   ar
    27    28    29   ar
    28    21    22    1
    29    22    23    1
    30    13    17    1
    31    17     3    1
    32    11     5   ar
    33    16    12   ar
    34    23    18    1
    35    29    24   ar
@<TRIPOS>MOLECULE
*****
 31 35 0 0 0
SMALL
GASTEIGER

@<TRIPOS>ATOM
      1 C           4.5197    0.8372   36.2928 C.2     1  UNL1        0.4056
      2 O           4.3249    1.8096   37.4183 O.2     1  UNL1       -0.2262
      3 N           3.7900    1.0337   34.9972 N.am    1  UNL1       -0.2345
      4 C           2.8911    2.2327   34.9318 C.3     1  UNL1        0.1254
      5 C           2.0358    2.6994   33.7913 C.ar    1  UNL1        0.0148
      6 C           1.2880    3.9511   34.1434 C.ar    1  UNL1        0.0102
      7 C           0.3726    4.5856   33.1388 C.ar    1  UNL1        0.0575
      8 CL         -0.3753    5.8373   33.4909 Cl      1  UNL1       -0.0823
      9 C           0.2050    3.9685   31.7819 C.ar    1  UNL1        0.0129
     10 C           0.9528    2.7168   31.4297 C.ar    1  UNL1        0.0182
     11 C           1.8682    2.0823   32.4344 C.ar    1  UNL1        0.0639
     12 N           2.5146    0.8461   31.8830 N.ar    1  UNL1       -0.2796
     13 C           3.4881   -0.0784   32.5521 C.ar    1  UNL1        0.1673
     14 N           3.8367   -1.1666   31.5806 N.ar    1  UNL1       -0.1315
     15 N           3.0787   -0.9149   30.3109 N.ar    1  UNL1       -0.1333
     16 C           2.2616    0.3290   30.4978 C.ar    1  UNL1        0.1465
     17 C           4.0557    0.0052   33.9381 C.3     1  UNL1        0.1632
     18 C           1.3513    0.9473   29.4785 C.3     1  UNL1        0.0625
     19 C          -0.0375    0.4126   29.2905 C.3     1  UNL1        0.0291
     20 C          -0.9477    1.0309   28.2713 C.3     1  UNL1        0.0926
     21 N          -0.4693    2.1840   27.4398 N.pl3   1  UNL1       -0.2932
     22 C           0.9195    2.7188   27.6277 C.3     1  UNL1        0.0926
     23 C           1.8298    2.1005   28.6470 C.3     1  UNL1        0.0291
     24 C          -1.3796    2.8024   26.4205 C.ar    1  UNL1        0.1317
     25 C          -0.9502    2.8889   24.9859 C.ar    1  UNL1        0.0343
     26 C          -1.8605    3.5073   23.9665 C.ar    1  UNL1        0.0045
     27 C          -3.2001    4.0391   24.3818 C.ar    1  UNL1        0.0208
     28 C          -3.6296    3.9526   25.8164 C.ar    1  UNL1        0.1003
     29 N          -2.7193    3.3342   26.8358 N.ar    1  UNL1       -0.2292
     30 C           6.9192   -0.1051   36.6162 C.3     1  UNL1        0.2573
     31 O           5.4443   -0.3316   36.4631 O.3     1  UNL1       -0.4304
@<TRIPOS>BOND
     1    30    31    1
     2    31     1    1
     3     1     2    2
     4     1     3   am
     5     3     4    1
     6     4     5    1
     7     5     6   ar
     8     6     7   ar
     9     7     8    1
    10     7     9   ar
    11     9    10   ar
    12    10    11   ar
    13    11    12    1
    14    12    13   ar
    15    13    14   ar
    16    14    15   ar
    17    15    16   ar
    18    16    18    1
    19    18    19    1
    20    19    20    1
    21    20    21    1
    22    21    24    1
    23    24    25   ar
    24    25    26   ar
    25    26    27   ar
    26    27    28   ar
    27    28    29   ar
    28    21    22    1
    29    22    23    1
    30    13    17    1
    31    17     3    1
    32    11     5   ar
    33    16    12   ar
    34    23    18    1
    35    29    24   ar
@<TRIPOS>MOLECULE
*****
 31 35 0 0 0
SMALL
GASTEIGER

@<TRIPOS>ATOM
      1 C           7.2655   -5.5245   25.5585 C.2     1  UNL1        0.4056
      2 O           7.0966   -4.8104   24.2503 O.2     1  UNL1       -0.2262
      3 N           6.9805   -4.8092   26.8457 N.am    1  UNL1       -0.2345
      4 C           6.5329   -3.3837   26.7129 C.3     1  UNL1        0.1254
      5 C           6.1749   -2.4108   27.7971 C.ar    1  UNL1        0.0148
      6 C           5.7770   -1.0804   27.2301 C.ar    1  UNL1        0.0102
      7 C           5.3803    0.0376   28.1480 C.ar    1  UNL1        0.0575
      8 CL          4.9823    1.3681   27.5810 Cl      1  UNL1       -0.0823
      9 C           5.3816   -0.1747   29.6328 C.ar    1  UNL1        0.0129
     10 C           5.7796   -1.5052   30.1998 C.ar    1  UNL1        0.0182
     11 C           6.1763   -2.6232   29.2820 C.ar    1  UNL1        0.0639
     12 N           6.5358   -3.8609   30.0493 N.ar    1  UNL1       -0.2796
     13 C           6.9828   -5.1919   29.5215 C.ar    1  UNL1        0.1673
     14 N           7.2193   -6.0992   30.6922 N.ar    1  UNL1       -0.1315
     15 N           6.9184   -5.3290   31.9437 N.ar    1  UNL1       -0.1333
     16 C           6.4960   -3.9457   31.5465 C.ar    1  UNL1        0.1465
     17 C           7.1807   -5.6139   28.0957 C.3     1  UNL1        0.1632
     18 C           6.1028   -2.8411   32.4819 C.3     1  UNL1        0.0625
     19 C           7.1065   -1.7978   32.8746 C.3     1  UNL1        0.0291
     20 C           6.7134   -0.6932   33.8100 C.3     1  UNL1        0.0926
     21 N           5.3164   -0.6318   34.3530 N.pl3   1  UNL1       -0.2932
     22 C           4.3127   -1.6750   33.9604 C.3     1  UNL1        0.0926
     23 C           4.7058   -2.7797   33.0249 C.3     1  UNL1        0.0291
     24 C           4.9232    0.4729   35.2885 C.ar    1  UNL1        0.1317
     25 C           4.7117    0.1826   36.7449 C.ar    1  UNL1        0.0343
     26 C           4.3185    1.2872   37.6804 C.ar    1  UNL1        0.0045
     27 C           4.1368    2.6821   37.1595 C.ar    1  UNL1        0.0208
     28 C           4.3482    2.9724   35.7032 C.ar    1  UNL1        0.1003
     29 N           4.7415    1.8677   34.7676 N.ar    1  UNL1       -0.2292
     30 C           8.5737   -7.4861   24.4672 C.3     1  UNL1        0.2573
     31 O           7.7194   -6.9541   25.5795 O.3     1  UNL1       -0.4304
@<TRIPOS>BOND
     1    30    31    1
     2    31     1    1
     3     1     2    2
     4     1     3   am
     5     3     4    1
     6     4     5    1
     7     5     6   ar
     8     6     7   ar
     9     7     8    1
    10     7     9   ar
    11     9    10   ar
    12    10    11   ar
    13    11    12    1
    14    12    13   ar
    15    13    14   ar
    16    14    15   ar
    17    15    16   ar
    18    16    18    1
    19    18    19    1
    20    19    20    1
    21    20    21    1
    22    21    24    1
    23    24    25   ar
    24    25    26   ar
    25    26    27   ar
    26    27    28   ar
    27    28    29   ar
    28    21    22    1
    29    22    23    1
    30    13    17    1
    31    17     3    1
    32    11     5   ar
    33    16    12   ar
    34    23    18    1
    35    29    24   ar
@<TRIPOS>MOLECULE
*****
 31 35 0 0 0
SMALL
GASTEIGER

@<TRIPOS>ATOM
      1 C          -0.4832    3.3046   18.7884 C.2     1  UNL1        0.4056
      2 O          -1.3453    4.1210   19.7051 O.2     1  UNL1       -0.2262
      3 N           0.4731    2.2984   19.3566 N.am    1  UNL1       -0.2345
      4 C           0.4886    2.1877   20.8525 C.3     1  UNL1        0.1254
      5 C           1.3223    1.2872   21.7151 C.ar    1  UNL1        0.0148
      6 C           1.0265    1.4949   23.1708 C.ar    1  UNL1        0.0102
      7 C           1.7547    0.6904   24.2064 C.ar    1  UNL1        0.0575
      8 CL          1.4588    0.8980   25.6622 Cl      1  UNL1       -0.0823
      9 C           2.7788   -0.3219   23.7861 C.ar    1  UNL1        0.0129
     10 C           3.0747   -0.5296   22.3304 C.ar    1  UNL1        0.0182
     11 C           2.3464    0.2750   21.2949 C.ar    1  UNL1        0.0639
     12 N           2.7898   -0.0867   19.9082 N.ar    1  UNL1       -0.2796
     13 C           2.3186    0.4744   18.5994 C.ar    1  UNL1        0.1673
     14 N           3.0696   -0.2178   17.5010 N.ar    1  UNL1       -0.1315
     15 N           4.0051   -1.2067   18.1309 N.ar    1  UNL1       -0.1333
     16 C           3.8322   -1.1258   19.6187 C.ar    1  UNL1        0.1465
     17 C           1.2875    1.5359   18.3540 C.3     1  UNL1        0.1632
     18 C           4.5717   -1.9407   20.6379 C.3     1  UNL1        0.0625
     19 C           5.9084   -1.4807   21.1397 C.3     1  UNL1        0.0291
     20 C           6.6479   -2.2956   22.1589 C.3     1  UNL1        0.0926
     21 N           6.0509   -3.5706   22.6764 N.pl3   1  UNL1       -0.2932
     22 C           4.7143   -4.0307   22.1747 C.3     1  UNL1        0.0926
     23 C           3.9746   -3.2158   21.1554 C.3     1  UNL1        0.0291
     24 C           6.7905   -4.3857   23.6957 C.ar    1  UNL1        0.1317
     25 C           6.6638   -4.0573   25.1538 C.ar    1  UNL1        0.0343
     26 C           7.4034   -4.8723   26.1731 C.ar    1  UNL1        0.0045
     27 C           8.2695   -6.0156   25.7342 C.ar    1  UNL1        0.0208
     28 C           8.3962   -6.3439   24.2760 C.ar    1  UNL1        0.1003
     29 N           7.6566   -5.5289   23.2567 N.ar    1  UNL1       -0.2292
     30 C          -1.6277    4.3977   16.7279 C.3     1  UNL1        0.2573
     31 O          -0.5774    3.4945   17.3034 O.3     1  UNL1       -0.4304
@<TRIPOS>BOND
     1    30    31    1
     2    31     1    1
     3     1     2    2
     4     1     3   am
     5     3     4    1
     6     4     5    1
     7     5     6   ar
     8     6     7   ar
     9     7     8    1
    10     7     9   ar
    11     9    10   ar
    12    10    11   ar
    13    11    12    1
    14    12    13   ar
    15    13    14   ar
    16    14    15   ar
    17    15    16   ar
    18    16    18    1
    19    18    19    1
    20    19    20    1
    21    20    21    1
    22    21    24    1
    23    24    25   ar
    24    25    26   ar
    25    26    27   ar
    26    27    28   ar
    27    28    29   ar
    28    21    22    1
    29    22    23    1
    30    13    17    1
    31    17     3    1
    32    11     5   ar
    33    16    12   ar
    34    23    18    1
    35    29    24   ar
@<TRIPOS>MOLECULE
*****
 31 35 0 0 0
SMALL
GASTEIGER

@<TRIPOS>ATOM
      1 C          -2.0207    3.6440   21.7090 C.2     1  UNL1        0.4056
      2 O          -2.4641    4.1088   23.0644 O.2     1  UNL1       -0.2262
      3 N          -0.8538    2.7102   21.5810 N.am    1  UNL1       -0.2345
      4 C          -0.2019    2.3028   22.8690 C.3     1  UNL1        0.1254
      5 C           0.9717    1.3919   23.0761 C.ar    1  UNL1        0.0148
      6 C           1.3055    1.2503   24.5316 C.ar    1  UNL1        0.0102
      7 C           2.4507    0.3802   24.9573 C.ar    1  UNL1        0.0575
      8 CL          2.7845    0.2386   26.4129 Cl      1  UNL1       -0.0823
      9 C           3.2622   -0.3484   23.9274 C.ar    1  UNL1        0.0129
     10 C           2.9285   -0.2068   22.4719 C.ar    1  UNL1        0.0182
     11 C           1.7833    0.6633   22.0463 C.ar    1  UNL1        0.0639
     12 N           1.6216    0.6657   20.5550 N.ar    1  UNL1       -0.2796
     13 C           0.6085    1.3973   19.7252 C.ar    1  UNL1        0.1673
     14 N           0.8672    1.0714   18.2842 N.ar    1  UNL1       -0.1315
     15 N           2.0401    0.1385   18.2232 N.ar    1  UNL1       -0.1333
     16 C           2.5064   -0.1123   19.6267 C.ar    1  UNL1        0.1465
     17 C          -0.4931    2.3072   20.1819 C.3     1  UNL1        0.1632
     18 C           3.6556   -0.9874   20.0308 C.3     1  UNL1        0.0625
     19 C           3.4388   -2.4548   20.2539 C.3     1  UNL1        0.0291
     20 C           4.5880   -3.3299   20.6580 C.3     1  UNL1        0.0926
     21 N           5.9542   -2.7377   20.8392 N.pl3   1  UNL1       -0.2932
     22 C           6.1711   -1.2703   20.6161 C.3     1  UNL1        0.0926
     23 C           5.0219   -0.3951   20.2119 C.3     1  UNL1        0.0291
     24 C           7.1035   -3.6128   21.2433 C.ar    1  UNL1        0.1317
     25 C           8.3562   -3.6340   20.4185 C.ar    1  UNL1        0.0343
     26 C           9.5055   -4.5091   20.8227 C.ar    1  UNL1        0.0045
     27 C           9.4021   -5.3629   22.0516 C.ar    1  UNL1        0.0208
     28 C           8.1494   -5.3417   22.8764 C.ar    1  UNL1        0.1003
     29 N           7.0000   -4.4666   22.4723 N.ar    1  UNL1       -0.2292
     30 C          -4.0385    3.4690   20.0818 C.3     1  UNL1        0.2573
     31 O          -2.7441    4.1130   20.4815 O.3     1  UNL1       -0.4304
@<TRIPOS>BOND
     1    30    31    1
     2    31     1    1
     3     1     2    2
     4     1     3   am
     5     3     4    1
     6     4     5    1
     7     5     6   ar
     8     6     7   ar
     9     7     8    1
    10     7     9   ar
    11     9    10   ar
    12    10    11   ar
    13    11    12    1
    14    12    13   ar
    15    13    14   ar
    16    14    15   ar
    17    15    16   ar
    18    16    18    1
    19    18    19    1
    20    19    20    1
    21    20    21    1
    22    21    24    1
    23    24    25   ar
    24    25    26   ar
    25    26    27   ar
    26    27    28   ar
    27    28    29   ar
    28    21    22    1
    29    22    23    1
    30    13    17    1
    31    17     3    1
    32    11     5   ar
    33    16    12   ar
    34    23    18    1
    35    29    24   ar
@<TRIPOS>MOLECULE
*****
 31 35 0 0 0
SMALL
GASTEIGER

@<TRIPOS>ATOM
      1 C           3.6899    2.7379   39.0154 C.2     1  UNL1        0.4056
      2 O           4.5977    1.6977   39.6019 O.2     1  UNL1       -0.2262
      3 N           3.3284    2.6836   37.5606 N.am    1  UNL1       -0.2345
      4 C           3.9279    1.5498   36.7828 C.3     1  UNL1        0.1254
      5 C           3.7623    1.2226   35.3283 C.ar    1  UNL1        0.0148
      6 C           4.5385   -0.0041   34.9507 C.ar    1  UNL1        0.0102
      7 C           4.5087   -0.5048   33.5371 C.ar    1  UNL1        0.0575
      8 CL          5.2850   -1.7315   33.1593 Cl      1  UNL1       -0.0823
      9 C           3.7027    0.2212   32.5011 C.ar    1  UNL1        0.0129
     10 C           2.9265    1.4479   32.8787 C.ar    1  UNL1        0.0182
     11 C           2.9563    1.9486   34.2923 C.ar    1  UNL1        0.0639
     12 N           2.1168    3.1810   34.4551 N.ar    1  UNL1       -0.2796
     13 C           1.8760    3.9919   35.6938 C.ar    1  UNL1        0.1673
     14 N           0.9630    5.1266   35.3350 N.ar    1  UNL1       -0.1315
     15 N           0.6396    5.0171   33.8744 N.ar    1  UNL1       -0.1333
     16 C           1.3526    3.8147   33.3305 C.ar    1  UNL1        0.1465
     17 C           2.4152    3.7705   37.0759 C.3     1  UNL1        0.1632
     18 C           1.3092    3.3309   31.9114 C.3     1  UNL1        0.0625
     19 C           2.2001    3.9550   30.8785 C.3     1  UNL1        0.0291
     20 C           2.1567    3.4712   29.4594 C.3     1  UNL1        0.0926
     21 N           1.2223    2.3633   29.0730 N.pl3   1  UNL1       -0.2932
     22 C           0.3313    1.7392   30.1058 C.3     1  UNL1        0.0926
     23 C           0.3747    2.2229   31.5250 C.3     1  UNL1        0.0291
     24 C           1.1788    1.8795   27.6538 C.ar    1  UNL1        0.1317
     25 C          -0.1298    1.8138   26.9236 C.ar    1  UNL1        0.0343
     26 C          -0.1733    1.3299   25.5044 C.ar    1  UNL1        0.0045
     27 C           1.0918    0.9118   24.8155 C.ar    1  UNL1        0.0208
     28 C           2.4004    0.9775   25.5457 C.ar    1  UNL1        0.1003
     29 N           2.4439    1.4614   26.9649 N.ar    1  UNL1       -0.2292
     30 C           4.0790    4.7113   40.6598 C.3     1  UNL1        0.2573
     31 O           3.1436    3.8323   39.8836 O.3     1  UNL1       -0.4304
@<TRIPOS>BOND
     1    30    31    1
     2    31     1    1
     3     1     2    2
     4     1     3   am
     5     3     4    1
     6     4     5    1
     7     5     6   ar
     8     6     7   ar
     9     7     8    1
    10     7     9   ar
    11     9    10   ar
    12    10    11   ar
    13    11    12    1
    14    12    13   ar
    15    13    14   ar
    16    14    15   ar
    17    15    16   ar
    18    16    18    1
    19    18    19    1
    20    19    20    1
    21    20    21    1
    22    21    24    1
    23    24    25   ar
    24    25    26   ar
    25    26    27   ar
    26    27    28   ar
    27    28    29   ar
    28    21    22    1
    29    22    23    1
    30    13    17    1
    31    17     3    1
    32    11     5   ar
    33    16    12   ar
    34    23    18    1
    35    29    24   ar
@<TRIPOS>MOLECULE
*****
 31 35 0 0 0
SMALL
GASTEIGER

@<TRIPOS>ATOM
      1 C          -3.7431    4.7745   25.5262 C.2     1  UNL1        0.4056
      2 O          -3.5931    4.6683   27.0149 O.2     1  UNL1       -0.2262
      3 N          -2.7567    4.0960   24.6227 N.am    1  UNL1       -0.2345
      4 C          -1.6594    3.3381   25.3093 C.3     1  UNL1        0.1254
      5 C          -0.5323    2.5621   24.6948 C.ar    1  UNL1        0.0148
      6 C           0.3493    1.9523   25.7441 C.ar    1  UNL1        0.0102
      7 C           1.5389    1.1328   25.3404 C.ar    1  UNL1        0.0575
      8 CL          2.4205    0.5229   26.3896 Cl      1  UNL1       -0.0823
      9 C           1.8470    0.9230   23.8874 C.ar    1  UNL1        0.0129
     10 C           0.9655    1.5328   22.8382 C.ar    1  UNL1        0.0182
     11 C          -0.2242    2.3524   23.2419 C.ar    1  UNL1        0.0639
     12 N          -0.9671    2.8668   22.0446 N.ar    1  UNL1       -0.2796
     13 C          -2.2015    3.7181   22.0045 C.ar    1  UNL1        0.1673
     14 N          -2.5503    3.9613   20.5661 N.ar    1  UNL1       -0.1315
     15 N          -1.5315    3.2604   19.7171 N.ar    1  UNL1       -0.1333
     16 C          -0.5530    2.5839   20.6309 C.ar    1  UNL1        0.1465
     17 C          -2.9979    4.2651   23.1519 C.3     1  UNL1        0.1632
     18 C           0.6316    1.7680   20.2056 C.3     1  UNL1        0.0625
     19 C           0.5140    0.2767   20.0937 C.3     1  UNL1        0.0291
     20 C           1.6985   -0.5392   19.6685 C.3     1  UNL1        0.0926
     21 N           3.0008    0.1359   19.3551 N.pl3   1  UNL1       -0.2932
     22 C           3.1185    1.6271   19.4670 C.3     1  UNL1        0.0926
     23 C           1.9339    2.4431   19.8922 C.3     1  UNL1        0.0291
     24 C           4.1854   -0.6801   18.9298 C.ar    1  UNL1        0.1317
     25 C           4.0733   -2.1730   18.8368 C.ar    1  UNL1        0.0343
     26 C           5.2579   -2.9891   18.4115 C.ar    1  UNL1        0.0045
     27 C           6.5546   -2.3121   18.0793 C.ar    1  UNL1        0.0208
     28 C           6.6667   -0.8192   18.1724 C.ar    1  UNL1        0.1003
     29 N           5.4821   -0.0032   18.5977 N.ar    1  UNL1       -0.2292
     30 C          -6.2761    5.0148   25.0006 C.3     1  UNL1        0.2573
     31 O          -4.8797    5.5593   24.9411 O.3     1  UNL1       -0.4304
@<TRIPOS>BOND
     1    30    31    1
     2    31     1    1
     3     1     2    2
     4     1     3   am
     5     3     4    1
     6     4     5    1
     7     5     6   ar
     8     6     7   ar
     9     7     8    1
    10     7     9   ar
    11     9    10   ar
    12    10    11   ar
    13    11    12    1
    14    12    13   ar
    15    13    14   ar
    16    14    15   ar
    17    15    16   ar
    18    16    18    1
    19    18    19    1
    20    19    20    1
    21    20    21    1
    22    21    24    1
    23    24    25   ar
    24    25    26   ar
    25    26    27   ar
    26    27    28   ar
    27    28    29   ar
    28    21    22    1
    29    22    23    1
    30    13    17    1
    31    17     3    1
    32    11     5   ar
    33    16    12   ar
    34    23    18    1
    35    29    24   ar
