@<TRIPOS>MOLECULE
*****
 39 45 0 0 0
SMALL
GASTEIGER

@<TRIPOS>ATOM
      1 C           6.5458   -3.5507   25.8234 C.2     1  UNL1       -0.0378
      2 C           6.4355   -2.3632   26.7332 C.2     1  UNL1       -0.0080
      3 C           6.6112   -2.5334   28.2132 C.2     1  UNL1        0.0022
      4 C           6.8972   -3.8911   28.7833 C.2     1  UNL1        0.0350
      5 C           7.1166   -4.3631   30.1901 C.2     1  UNL1        0.1040
      6 N           7.3625   -5.8422   30.1498 N.2     1  UNL1       -0.1483
      7 N           7.2951   -6.2844   28.7180 N.2     1  UNL1       -0.1520
      8 C           7.0075   -5.0785   27.8735 C.2     1  UNL1        0.0860
      9 C           6.8318   -4.9084   26.3936 C.3     1  UNL1        0.0697
     10 C           6.1043   -2.7070   19.0481 C.ar    1  UNL1        0.1385
     11 C           7.5024   -2.3972   18.6017 C.ar    1  UNL1        0.0382
     12 C           8.6143   -2.3360   19.6066 C.ar    1  UNL1        0.0175
     13 C           8.3281   -2.5845   21.0579 C.ar    1  UNL1        0.0469
     14 C           6.9300   -2.8943   21.5043 C.ar    1  UNL1        0.0022
     15 C           5.8180   -2.9556   20.4995 C.ar    1  UNL1        0.0343
     16 C           6.9514   -3.0929   22.9910 C.3     1  UNL1        0.0928
     17 C           5.4847   -3.3734   23.1328 C.3     1  UNL1        0.0179
     18 C           6.3701   -3.3805   24.3435 C.3     1  UNL1        0.0315
     19 C           8.3627   -2.9058   23.4633 C.2     1  UNL1        0.2293
     20 O           8.8395   -3.0139   24.8814 O.2     1  UNL1       -0.2744
     21 N           9.2136   -2.5916   22.2687 N.am    1  UNL1       -0.2839
     22 H          10.1830   -2.4202   22.2776 H       1  UNL1        0.1549
     23 C           4.2060   -1.5329   17.7185 C.3     1  UNL1        0.2525
     24 O           4.9923   -2.7683   18.0432 O.3     1  UNL1       -0.4714
     25 C           7.0940   -3.5063   31.4211 C.2     1  UNL1        0.0210
     26 C           5.8676   -2.7118   31.7596 C.2     1  UNL1        0.0031
     27 C           5.8450   -1.8549   32.9906 C.ar    1  UNL1        0.0193
     28 C           4.6033   -1.7789   33.8287 C.ar    1  UNL1        0.0044
     29 C           4.5805   -0.9222   35.0597 C.ar    1  UNL1        0.0343
     30 C           5.7995   -0.1414   35.4525 C.ar    1  UNL1        0.1318
     31 N           7.0412   -0.2174   34.6145 N.ar    1  UNL1       -0.2292
     32 C           7.0640   -1.0742   33.3834 C.ar    1  UNL1        0.1003
     33 N           5.7768    0.7154   36.6836 N.pl3   1  UNL1       -0.2904
     34 C           4.4857    0.9509   37.4097 C.3     1  UNL1        0.1095
     35 C           4.4630    1.8077   38.6408 C.3     1  UNL1        0.0939
     36 N           5.7314    2.4290   39.1456 N.3     1  UNL1       -0.2686
     37 C           5.7087    3.2858   40.3767 C.3     1  UNL1        0.0897
     38 C           7.0227    2.1935   38.4195 C.3     1  UNL1        0.0939
     39 C           7.0454    1.3367   37.1885 C.3     1  UNL1        0.1095
@<TRIPOS>BOND
     1    23    24    1
     2    24    10    1
     3    10    11   ar
     4    11    12   ar
     5    12    13   ar
     6    13    14   ar
     7    14    15   ar
     8    14    16    1
     9    16    17    1
    10    17    18    1
    11    18     1    1
    12     1     2    2
    13     2     3    1
    14     3     4    2
    15     4     5    1
    16     5    25    1
    17    25    26    2
    18    26    27    1
    19    27    28   ar
    20    28    29   ar
    21    29    30   ar
    22    30    33    1
    23    33    34    1
    24    34    35    1
    25    35    36    1
    26    36    37    1
    27    36    38    1
    28    38    39    1
    29    30    31   ar
    30    31    32   ar
    31     5     6    2
    32     6     7    1
    33     7     8    2
    34     8     9    1
    35    16    19    1
    36    19    20    2
    37    19    21   am
    38    15    10   ar
    39    18    16    1
    40     9     1    1
    41    21    13    1
    42     8     4    1
    43    32    27   ar
    44    39    33    1
    45    21    22    1
@<TRIPOS>MOLECULE
*****
 39 45 0 0 0
SMALL
GASTEIGER

@<TRIPOS>ATOM
      1 C           2.1586    0.5716   24.3008 C.2     1  UNL1       -0.0378
      2 C           3.0479    0.7965   25.4876 C.2     1  UNL1       -0.0080
      3 C           2.5035    1.4604   26.7176 C.2     1  UNL1        0.0022
      4 C           1.0699    1.8993   26.7609 C.2     1  UNL1        0.0350
      5 C           0.2585    2.5743   27.8268 C.2     1  UNL1        0.1040
      6 N          -1.1322    2.7666   27.2988 N.2     1  UNL1       -0.1483
      7 N          -1.1804    2.2104   25.9065 N.2     1  UNL1       -0.1520
      8 C           0.1805    1.6744   25.5741 C.2     1  UNL1        0.0860
      9 C           0.7248    1.0105   24.3441 C.3     1  UNL1        0.0697
     10 C           4.6452   -2.1281   18.5267 C.ar    1  UNL1        0.1385
     11 C           4.7877   -0.9698   17.5843 C.ar    1  UNL1        0.0382
     12 C           4.4032    0.4103   18.0288 C.ar    1  UNL1        0.0175
     13 C           3.8763    0.6321   19.4155 C.ar    1  UNL1        0.0469
     14 C           3.7338   -0.5262   20.3579 C.ar    1  UNL1        0.0022
     15 C           4.1182   -1.9063   19.9135 C.ar    1  UNL1        0.0343
     16 C           3.1893   -0.0045   21.6545 C.3     1  UNL1        0.0928
     17 C           3.1593   -1.3298   22.3565 C.3     1  UNL1        0.0179
     18 C           2.7029   -0.0923   23.0708 C.3     1  UNL1        0.0315
     19 C           2.9953    1.4762   21.5136 C.2     1  UNL1        0.2293
     20 O           2.4691    2.4011   22.5708 O.2     1  UNL1       -0.2744
     21 N           3.4199    1.8697   20.1298 N.am    1  UNL1       -0.2839
     22 H           3.4021    2.7803   19.7560 H       1  UNL1        0.1549
     23 C           4.6277   -4.6989   18.9012 C.3     1  UNL1        0.2525
     24 O           5.0296   -3.5082   18.0823 O.3     1  UNL1       -0.4714
     25 C           0.7515    2.9850   29.1826 C.2     1  UNL1        0.0210
     26 C           0.5677    2.0695   30.3565 C.2     1  UNL1        0.0031
     27 C           1.0607    2.4801   31.7124 C.ar    1  UNL1        0.0193
     28 C           2.0599    1.6277   32.4369 C.ar    1  UNL1        0.0044
     29 C           2.5529    2.0382   33.7928 C.ar    1  UNL1        0.0343
     30 C           2.0466    3.3011   34.4241 C.ar    1  UNL1        0.1318
     31 N           1.0473    4.1535   33.6996 N.ar    1  UNL1       -0.2292
     32 C           0.5543    3.7430   32.3437 C.ar    1  UNL1        0.1003
     33 N           2.5395    3.7116   35.7800 N.pl3   1  UNL1       -0.2904
     34 C           2.9949    5.1209   36.0175 C.3     1  UNL1        0.1095
     35 C           3.4879    5.5314   37.3734 C.3     1  UNL1        0.0939
     36 N           3.5255    4.5326   38.4919 N.3     1  UNL1       -0.2686
     37 C           4.0185    4.9431   39.8478 C.3     1  UNL1        0.0897
     38 C           3.0701    3.1233   38.2544 C.3     1  UNL1        0.0939
     39 C           2.5771    2.7127   36.8985 C.3     1  UNL1        0.1095
@<TRIPOS>BOND
     1    23    24    1
     2    24    10    1
     3    10    11   ar
     4    11    12   ar
     5    12    13   ar
     6    13    14   ar
     7    14    15   ar
     8    14    16    1
     9    16    17    1
    10    17    18    1
    11    18     1    1
    12     1     2    2
    13     2     3    1
    14     3     4    2
    15     4     5    1
    16     5    25    1
    17    25    26    2
    18    26    27    1
    19    27    28   ar
    20    28    29   ar
    21    29    30   ar
    22    30    33    1
    23    33    34    1
    24    34    35    1
    25    35    36    1
    26    36    37    1
    27    36    38    1
    28    38    39    1
    29    30    31   ar
    30    31    32   ar
    31     5     6    2
    32     6     7    1
    33     7     8    2
    34     8     9    1
    35    16    19    1
    36    19    20    2
    37    19    21   am
    38    15    10   ar
    39    18    16    1
    40     9     1    1
    41    21    13    1
    42     8     4    1
    43    32    27   ar
    44    39    33    1
    45    21    22    1
@<TRIPOS>MOLECULE
*****
 39 45 0 0 0
SMALL
GASTEIGER

@<TRIPOS>ATOM
      1 C           5.6592   -1.6272   32.5763 C.2     1  UNL1       -0.0378
      2 C           5.1228   -1.0591   31.2958 C.2     1  UNL1       -0.0080
      3 C           5.5075   -1.6746   29.9830 C.2     1  UNL1        0.0022
      4 C           6.4285   -2.8581   29.9508 C.2     1  UNL1        0.0350
      5 C           6.9797   -3.6703   28.8165 C.2     1  UNL1        0.1040
      6 N           7.8568   -4.7403   29.3960 N.2     1  UNL1       -0.1483
      7 N           7.8477   -4.5894   30.8883 N.2     1  UNL1       -0.1520
      8 C           6.9650   -3.4261   31.2312 C.2     1  UNL1        0.0860
      9 C           6.5803   -2.8107   32.5439 C.3     1  UNL1        0.0697
     10 C           4.2121    1.3799   38.5491 C.ar    1  UNL1        0.1385
     11 C           5.3511    2.3241   38.7965 C.ar    1  UNL1        0.0382
     12 C           6.4707    2.4251   37.8034 C.ar    1  UNL1        0.0175
     13 C           6.4514    1.5819   36.5630 C.ar    1  UNL1        0.0469
     14 C           5.3124    0.6377   36.3156 C.ar    1  UNL1        0.0022
     15 C           4.1927    0.5367   37.3087 C.ar    1  UNL1        0.0343
     16 C           5.5647   -0.0615   35.0128 C.3     1  UNL1        0.0928
     17 C           4.3185   -0.8960   35.0389 C.3     1  UNL1        0.0179
     18 C           5.2746   -1.0118   33.8890 C.3     1  UNL1        0.0315
     19 C           6.8595    0.4505   34.4550 C.2     1  UNL1        0.2293
     20 O           7.4948    0.0220   33.1655 O.2     1  UNL1       -0.2744
     21 N           7.4076    1.4662   35.4131 N.am    1  UNL1       -0.2839
     22 H           8.2474    1.9687   35.3059 H       1  UNL1        0.1549
     23 C           1.7700    0.7064   39.1257 C.3     1  UNL1        0.2525
     24 O           3.0925    1.2789   39.5422 O.3     1  UNL1       -0.4714
     25 C           6.7024   -3.4510   27.3588 C.2     1  UNL1        0.0210
     26 C           5.7437   -2.3799   26.9306 C.2     1  UNL1        0.0031
     27 C           5.4663   -2.1605   25.4728 C.ar    1  UNL1        0.0193
     28 C           4.1992   -1.4817   25.0443 C.ar    1  UNL1        0.0044
     29 C           3.9218   -1.2623   23.5866 C.ar    1  UNL1        0.0343
     30 C           4.9116   -1.7217   22.5575 C.ar    1  UNL1        0.1318
     31 N           6.1787   -2.4005   22.9859 N.ar    1  UNL1       -0.2292
     32 C           6.4561   -2.6199   24.4436 C.ar    1  UNL1        0.1003
     33 N           4.6342   -1.5023   21.0997 N.pl3   1  UNL1       -0.2904
     34 C           3.2521   -1.1364   20.6460 C.3     1  UNL1        0.1095
     35 C           2.9747   -0.9170   19.1883 C.3     1  UNL1        0.0939
     36 N           4.0795   -1.0634   18.1843 N.3     1  UNL1       -0.2686
     37 C           3.8021   -0.8440   16.7266 C.3     1  UNL1        0.0897
     38 C           5.4616   -1.4293   18.6379 C.3     1  UNL1        0.0939
     39 C           5.7390   -1.6487   20.0957 C.3     1  UNL1        0.1095
@<TRIPOS>BOND
     1    23    24    1
     2    24    10    1
     3    10    11   ar
     4    11    12   ar
     5    12    13   ar
     6    13    14   ar
     7    14    15   ar
     8    14    16    1
     9    16    17    1
    10    17    18    1
    11    18     1    1
    12     1     2    2
    13     2     3    1
    14     3     4    2
    15     4     5    1
    16     5    25    1
    17    25    26    2
    18    26    27    1
    19    27    28   ar
    20    28    29   ar
    21    29    30   ar
    22    30    33    1
    23    33    34    1
    24    34    35    1
    25    35    36    1
    26    36    37    1
    27    36    38    1
    28    38    39    1
    29    30    31   ar
    30    31    32   ar
    31     5     6    2
    32     6     7    1
    33     7     8    2
    34     8     9    1
    35    16    19    1
    36    19    20    2
    37    19    21   am
    38    15    10   ar
    39    18    16    1
    40     9     1    1
    41    21    13    1
    42     8     4    1
    43    32    27   ar
    44    39    33    1
    45    21    22    1
@<TRIPOS>MOLECULE
*****
 39 45 0 0 0
SMALL
GASTEIGER

@<TRIPOS>ATOM
      1 C          -1.5567    3.5871   26.7399 C.2     1  UNL1       -0.0378
      2 C          -1.1137    2.1930   27.0721 C.2     1  UNL1       -0.0080
      3 C           0.2288    1.9622   27.7002 C.2     1  UNL1        0.0022
      4 C           1.1284    3.1255   27.9960 C.2     1  UNL1        0.0350
      5 C           2.4964    3.2068   28.6059 C.2     1  UNL1        0.1040
      6 N           2.8989    4.6511   28.6507 N.2     1  UNL1       -0.1483
      7 N           1.7797    5.4624   28.0684 N.2     1  UNL1       -0.1520
      8 C           0.6854    4.5196   27.6638 C.2     1  UNL1        0.0860
      9 C          -0.6570    4.7504   27.0358 C.3     1  UNL1        0.0697
     10 C          -7.5226    4.5984   23.5466 C.ar    1  UNL1        0.1385
     11 C          -7.2063    4.4867   22.0846 C.ar    1  UNL1        0.0382
     12 C          -5.8012    4.2059   21.6406 C.ar    1  UNL1        0.0175
     13 C          -4.7126    4.0369   22.6585 C.ar    1  UNL1        0.0469
     14 C          -5.0289    4.1486   24.1205 C.ar    1  UNL1        0.0022
     15 C          -6.4339    4.4293   24.5646 C.ar    1  UNL1        0.0343
     16 C          -3.7574    3.9361   24.8874 C.3     1  UNL1        0.0928
     17 C          -4.3661    4.0994   26.2486 C.3     1  UNL1        0.0179
     18 C          -2.8991    3.8179   26.1119 C.3     1  UNL1        0.0315
     19 C          -2.6553    3.6931   23.8993 C.2     1  UNL1        0.2293
     20 O          -1.2156    3.4334   24.2307 O.2     1  UNL1       -0.2744
     21 N          -3.2456    3.7554   22.5218 N.am    1  UNL1       -0.2839
     22 H          -2.7561    3.6330   21.6764 H       1  UNL1        0.1549
     23 C          -9.2801    6.2214   24.5600 C.3     1  UNL1        0.2525
     24 O          -8.9275    4.8791   23.9907 O.3     1  UNL1       -0.4714
     25 C           3.3176    2.0473   29.0867 C.2     1  UNL1        0.0210
     26 C           3.7857    1.0055   28.1144 C.2     1  UNL1        0.0031
     27 C           4.6070   -0.1541   28.5950 C.ar    1  UNL1        0.0193
     28 C           4.8632   -0.3347   30.0619 C.ar    1  UNL1        0.0044
     29 C           5.6845   -1.4942   30.5427 C.ar    1  UNL1        0.0343
     30 C           6.2494   -2.4730   29.5565 C.ar    1  UNL1        0.1318
     31 N           5.9932   -2.2924   28.0896 N.ar    1  UNL1       -0.2292
     32 C           5.1720   -1.1329   27.6089 C.ar    1  UNL1        0.1003
     33 N           7.0707   -3.6325   30.0372 N.pl3   1  UNL1       -0.2904
     34 C           6.8097   -5.0094   29.5025 C.3     1  UNL1        0.1095
     35 C           7.6310   -6.1689   29.9832 C.3     1  UNL1        0.0939
     36 N           8.7133   -5.9515   30.9988 N.3     1  UNL1       -0.2686
     37 C           9.5345   -7.1110   31.4796 C.3     1  UNL1        0.0897
     38 C           8.9743   -4.5746   31.5336 C.3     1  UNL1        0.0939
     39 C           8.1530   -3.4151   31.0529 C.3     1  UNL1        0.1095
@<TRIPOS>BOND
     1    23    24    1
     2    24    10    1
     3    10    11   ar
     4    11    12   ar
     5    12    13   ar
     6    13    14   ar
     7    14    15   ar
     8    14    16    1
     9    16    17    1
    10    17    18    1
    11    18     1    1
    12     1     2    2
    13     2     3    1
    14     3     4    2
    15     4     5    1
    16     5    25    1
    17    25    26    2
    18    26    27    1
    19    27    28   ar
    20    28    29   ar
    21    29    30   ar
    22    30    33    1
    23    33    34    1
    24    34    35    1
    25    35    36    1
    26    36    37    1
    27    36    38    1
    28    38    39    1
    29    30    31   ar
    30    31    32   ar
    31     5     6    2
    32     6     7    1
    33     7     8    2
    34     8     9    1
    35    16    19    1
    36    19    20    2
    37    19    21   am
    38    15    10   ar
    39    18    16    1
    40     9     1    1
    41    21    13    1
    42     8     4    1
    43    32    27   ar
    44    39    33    1
    45    21    22    1
@<TRIPOS>MOLECULE
*****
 39 45 0 0 0
SMALL
GASTEIGER

@<TRIPOS>ATOM
      1 C          -0.7322    2.8549   26.4428 C.2     1  UNL1       -0.0378
      2 C          -0.4730    4.0139   27.3590 C.2     1  UNL1       -0.0080
      3 C           0.1369    3.7807   28.7095 C.2     1  UNL1        0.0022
      4 C           0.4875    2.3884   29.1437 C.2     1  UNL1        0.0350
      5 C           1.0950    1.8539   30.4068 C.2     1  UNL1        0.1040
      6 N           1.2113    0.3646   30.2712 N.2     1  UNL1       -0.1483
      7 N           0.6756   -0.0214   28.9244 N.2     1  UNL1       -0.1520
      8 C           0.2283    1.2293   28.2275 C.2     1  UNL1        0.0860
      9 C          -0.3816    1.4626   26.8771 C.3     1  UNL1        0.0697
     10 C          -3.8382    3.9648   20.4484 C.ar    1  UNL1        0.1385
     11 C          -5.2783    4.2033   20.7936 C.ar    1  UNL1        0.0382
     12 C          -5.7235    4.1600   22.2254 C.ar    1  UNL1        0.0175
     13 C          -4.7285    3.8781   23.3119 C.ar    1  UNL1        0.0469
     14 C          -3.2884    3.6396   22.9668 C.ar    1  UNL1        0.0022
     15 C          -2.8432    3.6829   21.5350 C.ar    1  UNL1        0.0343
     16 C          -2.5416    3.3873   24.2429 C.3     1  UNL1        0.0928
     17 C          -1.1989    3.1930   23.6030 C.3     1  UNL1        0.0179
     18 C          -1.3421    3.0881   25.0924 C.3     1  UNL1        0.0315
     19 C          -3.5201    3.4699   25.3768 C.2     1  UNL1        0.2293
     20 O          -3.2027    3.2822   26.8307 O.2     1  UNL1       -0.2744
     21 N          -4.8717    3.7733   24.8014 N.am    1  UNL1       -0.2839
     22 H          -5.7063    3.8841   25.3118 H       1  UNL1        0.1549
     23 C          -4.4067    3.9351   17.9135 C.3     1  UNL1        0.2525
     24 O          -3.3930    4.0081   19.0167 O.3     1  UNL1       -0.4714
     25 C           1.5129    2.6663   31.5965 C.2     1  UNL1        0.0210
     26 C           1.5996    2.0248   32.9496 C.2     1  UNL1        0.0031
     27 C           2.0175    2.8370   34.1395 C.ar    1  UNL1        0.0193
     28 C           1.5441    4.2529   34.2846 C.ar    1  UNL1        0.0044
     29 C           1.9619    5.0653   35.4744 C.ar    1  UNL1        0.0343
     30 C           2.8531    4.4616   36.5190 C.ar    1  UNL1        0.1318
     31 N           3.3265    3.0457   36.3739 N.ar    1  UNL1       -0.2292
     32 C           2.9087    2.2334   35.1841 C.ar    1  UNL1        0.1003
     33 N           3.2710    5.2739   37.7088 N.pl3   1  UNL1       -0.2904
     34 C           3.8186    4.5923   38.9275 C.3     1  UNL1        0.1095
     35 C           4.2364    5.4046   40.1172 C.3     1  UNL1        0.0939
     36 N           4.1066    6.8987   40.0883 N.3     1  UNL1       -0.2686
     37 C           4.5244    7.7110   41.2781 C.3     1  UNL1        0.0897
     38 C           3.5590    7.5804   38.8696 C.3     1  UNL1        0.0939
     39 C           3.1412    6.7681   37.6798 C.3     1  UNL1        0.1095
@<TRIPOS>BOND
     1    23    24    1
     2    24    10    1
     3    10    11   ar
     4    11    12   ar
     5    12    13   ar
     6    13    14   ar
     7    14    15   ar
     8    14    16    1
     9    16    17    1
    10    17    18    1
    11    18     1    1
    12     1     2    2
    13     2     3    1
    14     3     4    2
    15     4     5    1
    16     5    25    1
    17    25    26    2
    18    26    27    1
    19    27    28   ar
    20    28    29   ar
    21    29    30   ar
    22    30    33    1
    23    33    34    1
    24    34    35    1
    25    35    36    1
    26    36    37    1
    27    36    38    1
    28    38    39    1
    29    30    31   ar
    30    31    32   ar
    31     5     6    2
    32     6     7    1
    33     7     8    2
    34     8     9    1
    35    16    19    1
    36    19    20    2
    37    19    21   am
    38    15    10   ar
    39    18    16    1
    40     9     1    1
    41    21    13    1
    42     8     4    1
    43    32    27   ar
    44    39    33    1
    45    21    22    1
@<TRIPOS>MOLECULE
*****
 39 45 0 0 0
SMALL
GASTEIGER

@<TRIPOS>ATOM
      1 C          -1.9156    3.2425   25.0221 C.2     1  UNL1       -0.0378
      2 C          -1.3973    2.1611   25.9232 C.2     1  UNL1       -0.0080
      3 C          -0.1603    1.4004   25.5472 C.2     1  UNL1        0.0022
      4 C           0.5583    1.7210   24.2702 C.2     1  UNL1        0.0350
      5 C           1.7922    1.1453   23.6410 C.2     1  UNL1        0.1040
      6 N           2.0365    1.8708   22.3510 N.2     1  UNL1       -0.1483
      7 N           0.9535    2.8949   22.1830 N.2     1  UNL1       -0.1520
      8 C           0.0399    2.8024   23.3691 C.2     1  UNL1        0.0860
      9 C          -1.1970    3.5631   23.7450 C.3     1  UNL1        0.0697
     10 C          -7.7255    6.5631   26.4468 C.ar    1  UNL1        0.1385
     11 C          -8.6872    6.1443   25.3745 C.ar    1  UNL1        0.0382
     12 C          -8.2498    5.1843   24.3081 C.ar    1  UNL1        0.0175
     13 C          -6.8509    4.6432   24.3141 C.ar    1  UNL1        0.0469
     14 C          -5.8892    5.0619   25.3864 C.ar    1  UNL1        0.0022
     15 C          -6.3265    6.0219   26.4528 C.ar    1  UNL1        0.0343
     16 C          -4.5838    4.3670   25.1355 C.3     1  UNL1        0.0928
     17 C          -3.8636    4.9569   26.3116 C.3     1  UNL1        0.0179
     18 C          -3.1525    4.0032   25.3980 C.3     1  UNL1        0.0315
     19 C          -4.7387    3.5188   23.9081 C.2     1  UNL1        0.2293
     20 O          -3.6785    2.6521   23.2958 O.2     1  UNL1       -0.2744
     21 N          -6.1398    3.6894   23.4004 N.am    1  UNL1       -0.2839
     22 H          -6.5250    3.2522   22.6069 H       1  UNL1        0.1549
     23 C          -7.6595    7.3646   28.9173 C.3     1  UNL1        0.2525
     24 O          -8.1628    7.5231   27.5132 O.3     1  UNL1       -0.4714
     25 C           2.6340    0.0383   24.2030 C.2     1  UNL1        0.0210
     26 C           3.5345    0.3011   25.3735 C.2     1  UNL1        0.0031
     27 C           4.3764   -0.8058   25.9357 C.ar    1  UNL1        0.0193
     28 C           4.3436   -1.1002   27.4061 C.ar    1  UNL1        0.0044
     29 C           5.1855   -2.2071   27.9684 C.ar    1  UNL1        0.0343
     30 C           6.0601   -3.0195   27.0601 C.ar    1  UNL1        0.1318
     31 N           6.0928   -2.7251   25.5897 N.ar    1  UNL1       -0.2292
     32 C           5.2510   -1.6182   25.0274 C.ar    1  UNL1        0.1003
     33 N           6.9019   -4.1264   27.6223 N.pl3   1  UNL1       -0.2904
     34 C           8.1016   -4.6146   26.8659 C.3     1  UNL1        0.1095
     35 C           8.9434   -5.7215   27.4282 C.3     1  UNL1        0.0939
     36 N           8.5855   -6.3402   28.7469 N.3     1  UNL1       -0.2686
     37 C           9.4274   -7.4471   29.3092 C.3     1  UNL1        0.0897
     38 C           7.3858   -5.8520   29.5034 C.3     1  UNL1        0.0939
     39 C           6.5440   -4.7451   28.9412 C.3     1  UNL1        0.1095
@<TRIPOS>BOND
     1    23    24    1
     2    24    10    1
     3    10    11   ar
     4    11    12   ar
     5    12    13   ar
     6    13    14   ar
     7    14    15   ar
     8    14    16    1
     9    16    17    1
    10    17    18    1
    11    18     1    1
    12     1     2    2
    13     2     3    1
    14     3     4    2
    15     4     5    1
    16     5    25    1
    17    25    26    2
    18    26    27    1
    19    27    28   ar
    20    28    29   ar
    21    29    30   ar
    22    30    33    1
    23    33    34    1
    24    34    35    1
    25    35    36    1
    26    36    37    1
    27    36    38    1
    28    38    39    1
    29    30    31   ar
    30    31    32   ar
    31     5     6    2
    32     6     7    1
    33     7     8    2
    34     8     9    1
    35    16    19    1
    36    19    20    2
    37    19    21   am
    38    15    10   ar
    39    18    16    1
    40     9     1    1
    41    21    13    1
    42     8     4    1
    43    32    27   ar
    44    39    33    1
    45    21    22    1
@<TRIPOS>MOLECULE
*****
 39 45 0 0 0
SMALL
GASTEIGER

@<TRIPOS>ATOM
      1 C           4.6208    1.1075   35.8608 C.2     1  UNL1       -0.0378
      2 C           4.2653    2.0316   34.7340 C.2     1  UNL1       -0.0080
      3 C           3.9157    1.4719   33.3869 C.2     1  UNL1        0.0022
      4 C           3.9217   -0.0118   33.1666 C.2     1  UNL1        0.0350
      5 C           3.6232   -0.8483   31.9578 C.2     1  UNL1        0.1040
      6 N           3.7942   -2.2893   32.3375 N.2     1  UNL1       -0.1483
      7 N           4.1984   -2.3435   33.7810 N.2     1  UNL1       -0.1520
      8 C           4.2772   -0.9359   34.2934 C.2     1  UNL1        0.0860
      9 C           4.6267   -0.3763   35.6405 C.3     1  UNL1        0.0697
     10 C           6.5687    3.6464   41.9082 C.ar    1  UNL1        0.1385
     11 C           8.0650    3.7229   41.8354 C.ar    1  UNL1        0.0382
     12 C           8.7790    3.2798   40.5929 C.ar    1  UNL1        0.0175
     13 C           7.9968    2.7601   39.4233 C.ar    1  UNL1        0.0469
     14 C           6.5005    2.6837   39.4961 C.ar    1  UNL1        0.0022
     15 C           5.7864    3.1268   40.7385 C.ar    1  UNL1        0.0343
     16 C           6.0008    2.1314   38.1941 C.3     1  UNL1        0.0928
     17 C           4.5454    2.1721   38.5548 C.3     1  UNL1        0.0179
     18 C           4.9703    1.6671   37.2079 C.3     1  UNL1        0.0315
     19 C           7.1882    1.8665   37.3166 C.2     1  UNL1        0.2293
     20 O           7.1489    1.3106   35.9240 O.2     1  UNL1       -0.2744
     21 N           8.4218    2.2551   38.0763 N.am    1  UNL1       -0.2839
     22 H           9.3478    2.1901   37.7484 H       1  UNL1        0.1549
     23 C           4.9296    5.2695   43.1037 C.3     1  UNL1        0.2525
     24 O           5.8546    4.0896   43.1507 O.3     1  UNL1       -0.4714
     25 C           3.2238   -0.3340   30.6065 C.2     1  UNL1        0.0210
     26 C           1.7722   -0.2248   30.2446 C.2     1  UNL1        0.0031
     27 C           1.3727    0.2895   28.8933 C.ar    1  UNL1        0.0193
     28 C          -0.0488    0.6924   28.6344 C.ar    1  UNL1        0.0044
     29 C          -0.4483    1.2068   27.2832 C.ar    1  UNL1        0.0343
     30 C           0.5736    1.3182   26.1909 C.ar    1  UNL1        0.1318
     31 N           1.9951    0.9153   26.4498 N.ar    1  UNL1       -0.2292
     32 C           2.3947    0.4009   27.8010 C.ar    1  UNL1        0.1003
     33 N           0.1740    1.8325   24.8397 N.pl3   1  UNL1       -0.2904
     34 C           0.8158    1.2736   23.6045 C.3     1  UNL1        0.1095
     35 C           0.4162    1.7879   22.2533 C.3     1  UNL1        0.0939
     36 N          -0.6252    2.8612   22.1372 N.3     1  UNL1       -0.2686
     37 C          -1.0248    3.3755   20.7860 C.3     1  UNL1        0.0897
     38 C          -1.2670    3.4202   23.3724 C.3     1  UNL1        0.0939
     39 C          -0.8674    2.9059   24.7236 C.3     1  UNL1        0.1095
@<TRIPOS>BOND
     1    23    24    1
     2    24    10    1
     3    10    11   ar
     4    11    12   ar
     5    12    13   ar
     6    13    14   ar
     7    14    15   ar
     8    14    16    1
     9    16    17    1
    10    17    18    1
    11    18     1    1
    12     1     2    2
    13     2     3    1
    14     3     4    2
    15     4     5    1
    16     5    25    1
    17    25    26    2
    18    26    27    1
    19    27    28   ar
    20    28    29   ar
    21    29    30   ar
    22    30    33    1
    23    33    34    1
    24    34    35    1
    25    35    36    1
    26    36    37    1
    27    36    38    1
    28    38    39    1
    29    30    31   ar
    30    31    32   ar
    31     5     6    2
    32     6     7    1
    33     7     8    2
    34     8     9    1
    35    16    19    1
    36    19    20    2
    37    19    21   am
    38    15    10   ar
    39    18    16    1
    40     9     1    1
    41    21    13    1
    42     8     4    1
    43    32    27   ar
    44    39    33    1
    45    21    22    1
@<TRIPOS>MOLECULE
*****
 39 45 0 0 0
SMALL
GASTEIGER

@<TRIPOS>ATOM
      1 C          -1.2822    3.4237   25.5545 C.2     1  UNL1       -0.0378
      2 C          -0.5815    2.0974   25.5544 C.2     1  UNL1       -0.0080
      3 C           0.3586    1.7457   26.6691 C.2     1  UNL1        0.0022
      4 C           0.5979    2.7203   27.7839 C.2     1  UNL1        0.0350
      5 C           1.4621    2.6525   29.0082 C.2     1  UNL1        0.1040
      6 N           1.2954    3.9368   29.7649 N.2     1  UNL1       -0.1483
      7 N           0.3283    4.7984   29.0084 N.2     1  UNL1       -0.1520
      8 C          -0.1028    4.0466   27.7841 C.2     1  UNL1        0.0860
      9 C          -1.0428    4.3983   26.6694 C.3     1  UNL1        0.0697
     10 C          -5.8486    4.9880   20.7055 C.ar    1  UNL1        0.1385
     11 C          -7.1829    4.9104   21.3865 C.ar    1  UNL1        0.0382
     12 C          -7.2632    4.5458   22.8394 C.ar    1  UNL1        0.0175
     13 C          -6.0093    4.2590   23.6111 C.ar    1  UNL1        0.0469
     14 C          -4.6751    4.3366   22.9301 C.ar    1  UNL1        0.0022
     15 C          -4.5947    4.7012   21.4772 C.ar    1  UNL1        0.0343
     16 C          -3.6185    4.0029   23.9411 C.3     1  UNL1        0.0928
     17 C          -2.4543    4.1571   23.0079 C.3     1  UNL1        0.0179
     18 C          -2.2223    3.7754   24.4398 C.3     1  UNL1        0.0315
     19 C          -4.2997    3.7190   25.2470 C.2     1  UNL1        0.2293
     20 O          -3.6222    3.3430   26.5313 O.2     1  UNL1       -0.2744
     21 N          -5.7773    3.8773   25.0431 N.am    1  UNL1       -0.2839
     22 H          -6.4728    3.7525   25.7287 H       1  UNL1        0.1549
     23 C          -6.4767    4.5157   18.2291 C.3     1  UNL1        0.2525
     24 O          -5.7682    5.3526   19.2527 O.3     1  UNL1       -0.4714
     25 C           2.3389    1.5022   29.4058 C.2     1  UNL1        0.0210
     26 C           3.3915    1.0004   28.4623 C.2     1  UNL1        0.0031
     27 C           4.2684   -0.1498   28.8598 C.ar    1  UNL1        0.0193
     28 C           4.7325   -0.2832   30.2799 C.ar    1  UNL1        0.0044
     29 C           5.6094   -1.4334   30.6776 C.ar    1  UNL1        0.0343
     30 C           6.0221   -2.4502   29.6550 C.ar    1  UNL1        0.1318
     31 N           5.5580   -2.3169   28.2349 N.ar    1  UNL1       -0.2292
     32 C           4.6811   -1.1666   27.8372 C.ar    1  UNL1        0.1003
     33 N           6.8990   -3.6004   30.0526 N.pl3   1  UNL1       -0.2904
     34 C           7.9445   -3.4152   31.1120 C.3     1  UNL1        0.1095
     35 C           8.8214   -4.5655   31.5096 C.3     1  UNL1        0.0939
     36 N           8.6527   -5.9010   30.8478 N.3     1  UNL1       -0.2686
     37 C           9.5296   -7.0512   31.2454 C.3     1  UNL1        0.0897
     38 C           7.6071   -6.0862   29.7884 C.3     1  UNL1        0.0939
     39 C           6.7302   -4.9360   29.3908 C.3     1  UNL1        0.1095
@<TRIPOS>BOND
     1    23    24    1
     2    24    10    1
     3    10    11   ar
     4    11    12   ar
     5    12    13   ar
     6    13    14   ar
     7    14    15   ar
     8    14    16    1
     9    16    17    1
    10    17    18    1
    11    18     1    1
    12     1     2    2
    13     2     3    1
    14     3     4    2
    15     4     5    1
    16     5    25    1
    17    25    26    2
    18    26    27    1
    19    27    28   ar
    20    28    29   ar
    21    29    30   ar
    22    30    33    1
    23    33    34    1
    24    34    35    1
    25    35    36    1
    26    36    37    1
    27    36    38    1
    28    38    39    1
    29    30    31   ar
    30    31    32   ar
    31     5     6    2
    32     6     7    1
    33     7     8    2
    34     8     9    1
    35    16    19    1
    36    19    20    2
    37    19    21   am
    38    15    10   ar
    39    18    16    1
    40     9     1    1
    41    21    13    1
    42     8     4    1
    43    32    27   ar
    44    39    33    1
    45    21    22    1
@<TRIPOS>MOLECULE
*****
 39 45 0 0 0
SMALL
GASTEIGER

@<TRIPOS>ATOM
      1 C           4.8211    1.2701   35.5906 C.2     1  UNL1       -0.0378
      2 C           4.5056    2.0988   34.3808 C.2     1  UNL1       -0.0080
      3 C           4.0755    1.4333   33.1071 C.2     1  UNL1        0.0022
      4 C           3.9609   -0.0609   33.0433 C.2     1  UNL1        0.0350
      5 C           3.5643   -0.9908   31.9351 C.2     1  UNL1        0.1040
      6 N           3.6347   -2.3942   32.4600 N.2     1  UNL1       -0.1483
      7 N           4.0748   -2.3317   33.8926 N.2     1  UNL1       -0.1520
      8 C           4.2764   -0.8897   34.2531 C.2     1  UNL1        0.0860
      9 C           4.7065   -0.2242   35.5268 C.3     1  UNL1        0.0697
     10 C           6.4330    4.4004   41.4571 C.ar    1  UNL1        0.1385
     11 C           5.1342    4.9354   41.9833 C.ar    1  UNL1        0.0382
     12 C           3.8650    4.7122   41.2156 C.ar    1  UNL1        0.0175
     13 C           3.8946    3.9540   39.9217 C.ar    1  UNL1        0.0469
     14 C           5.1934    3.4189   39.3955 C.ar    1  UNL1        0.0022
     15 C           6.4626    3.6421   40.1631 C.ar    1  UNL1        0.0343
     16 C           4.9140    2.7147   38.1009 C.3     1  UNL1        0.0928
     17 C           6.3331    2.3091   37.8336 C.3     1  UNL1        0.0179
     18 C           5.2511    1.9356   36.8642 C.3     1  UNL1        0.0315
     19 C           3.4426    2.8145   37.8270 C.2     1  UNL1        0.2293
     20 O           2.7268    2.2479   36.6368 O.2     1  UNL1       -0.2744
     21 N           2.8125    3.5805   38.9523 N.am    1  UNL1       -0.2839
     22 H           1.8567    3.7995   39.0394 H       1  UNL1        0.1549
     23 C           8.0766    6.0063   42.6692 C.3     1  UNL1        0.2525
     24 O           7.7022    4.6235   42.2247 O.3     1  UNL1       -0.4714
     25 C           3.1671   -0.5879   30.5459 C.2     1  UNL1        0.0210
     26 C           1.9217    0.2186   30.3261 C.2     1  UNL1        0.0031
     27 C           1.5244    0.6216   28.9369 C.ar    1  UNL1        0.0193
     28 C           0.0800    0.8585   28.6089 C.ar    1  UNL1        0.0044
     29 C          -0.3174    1.2615   27.2198 C.ar    1  UNL1        0.0343
     30 C           0.7297    1.4275   26.1586 C.ar    1  UNL1        0.1318
     31 N           2.1741    1.1905   26.4866 N.ar    1  UNL1       -0.2292
     32 C           2.5715    0.7876   27.8758 C.ar    1  UNL1        0.1003
     33 N           0.3323    1.8304   24.7695 N.pl3   1  UNL1       -0.2904
     34 C          -0.6756    2.9222   24.5646 C.3     1  UNL1        0.1095
     35 C          -1.0729    3.3251   23.1754 C.3     1  UNL1        0.0939
     36 N          -0.4624    2.6362   21.9911 N.3     1  UNL1       -0.2686
     37 C          -0.8597    3.0392   20.6020 C.3     1  UNL1        0.0897
     38 C           0.5456    1.5444   22.1959 C.3     1  UNL1        0.0939
     39 C           0.9429    1.1415   23.5851 C.3     1  UNL1        0.1095
@<TRIPOS>BOND
     1    23    24    1
     2    24    10    1
     3    10    11   ar
     4    11    12   ar
     5    12    13   ar
     6    13    14   ar
     7    14    15   ar
     8    14    16    1
     9    16    17    1
    10    17    18    1
    11    18     1    1
    12     1     2    2
    13     2     3    1
    14     3     4    2
    15     4     5    1
    16     5    25    1
    17    25    26    2
    18    26    27    1
    19    27    28   ar
    20    28    29   ar
    21    29    30   ar
    22    30    33    1
    23    33    34    1
    24    34    35    1
    25    35    36    1
    26    36    37    1
    27    36    38    1
    28    38    39    1
    29    30    31   ar
    30    31    32   ar
    31     5     6    2
    32     6     7    1
    33     7     8    2
    34     8     9    1
    35    16    19    1
    36    19    20    2
    37    19    21   am
    38    15    10   ar
    39    18    16    1
    40     9     1    1
    41    21    13    1
    42     8     4    1
    43    32    27   ar
    44    39    33    1
    45    21    22    1
