@<TRIPOS>MOLECULE
*****
 21 23 0 0 0
SMALL
GASTEIGER

@<TRIPOS>ATOM
      1 C          -7.9684  -18.9208   21.8145 C.ar    1  UNL1        0.0008
      2 C          -8.5807  -19.3281   20.5072 C.ar    1  UNL1        0.0064
      3 S          -7.4675  -19.6337   19.5493 S.2     1  UNL1       -0.0915
      4 C          -6.1673  -19.4153   20.2647 C.ar    1  UNL1        0.0289
      5 C          -4.7415  -19.5607   19.8222 C.ar    1  UNL1        0.0065
      6 C          -3.6253  -19.2655   20.7797 C.ar    1  UNL1        0.0005
      7 C          -3.9349  -18.8249   22.1797 C.ar    1  UNL1        0.0000
      8 C          -5.3607  -18.6794   22.6222 C.ar    1  UNL1        0.0002
      9 C          -6.4769  -18.9747   21.6647 C.ar    1  UNL1        0.0039
     10 C          -9.6994  -19.4798   23.6697 C.3     1  UNL1        0.0295
     11 C          -8.7164  -18.5284   23.0541 C.3     1  UNL1        0.1097
     12 N          -8.4815  -17.1849   23.6782 N.ar    1  UNL1       -0.3058
     13 C          -8.9063  -16.7654   25.0543 C.ar    1  UNL1        0.0982
     14 C          -8.4679  -15.3461   25.2623 C.ar    1  UNL1        0.1193
     15 N          -7.7721  -14.8883   24.0148 N.ar    1  UNL1       -0.2223
     16 C          -7.7805  -16.0248   23.0357 C.ar    1  UNL1        0.1788
     17 C         -10.0484  -19.4146   20.2098 C.3     1  UNL1        0.0500
     18 C         -10.8029  -18.1869   19.7935 C.3     1  UNL1        0.0774
     19 N         -11.4356  -17.3076   20.8310 N.3     1  UNL1       -0.2700
     20 C         -12.6322  -17.7912   21.5955 C.3     1  UNL1        0.0897
     21 C         -10.8718  -15.9447   21.1041 C.3     1  UNL1        0.0897
@<TRIPOS>BOND
     1    10    11    1
     2    11     1    1
     3     1     2   ar
     4     2    17    1
     5    17    18    1
     6    18    19    1
     7    19    20    1
     8    19    21    1
     9     2     3   ar
    10     3     4   ar
    11     4     5   ar
    12     5     6   ar
    13     6     7   ar
    14     7     8   ar
    15     8     9   ar
    16    11    12    1
    17    12    13   ar
    18    13    14   ar
    19    14    15   ar
    20    15    16   ar
    21     9     1   ar
    22    16    12   ar
    23     9     4   ar
@<TRIPOS>MOLECULE
*****
 21 23 0 0 0
SMALL
GASTEIGER

@<TRIPOS>ATOM
      1 C          -8.6545  -17.2390   24.0217 C.ar    1  UNL1        0.0008
      2 C          -7.5988  -17.1616   22.9589 C.ar    1  UNL1        0.0064
      3 S          -6.4535  -16.3588   23.5008 S.2     1  UNL1       -0.0915
      4 C          -6.8013  -15.9400   24.8985 C.ar    1  UNL1        0.0289
      5 C          -6.0551  -15.1336   25.9197 C.ar    1  UNL1        0.0065
      6 C          -6.6692  -14.8712   27.2628 C.ar    1  UNL1        0.0005
      7 C          -8.0295  -15.4152   27.5847 C.ar    1  UNL1        0.0000
      8 C          -8.7757  -16.2216   26.5636 C.ar    1  UNL1        0.0002
      9 C          -8.1616  -16.4840   25.2205 C.ar    1  UNL1        0.0039
     10 C         -10.3176  -19.0488   24.8635 C.3     1  UNL1        0.0295
     11 C          -9.9718  -17.9470   23.9060 C.3     1  UNL1        0.1097
     12 N         -10.9432  -17.5535   22.8331 N.ar    1  UNL1       -0.3058
     13 C         -11.0913  -16.1853   22.2364 C.ar    1  UNL1        0.0982
     14 C         -12.1768  -16.2452   21.2030 C.ar    1  UNL1        0.1193
     15 N         -12.6996  -17.6505   21.1609 N.ar    1  UNL1       -0.2223
     16 C         -11.9372  -18.4591   22.1684 C.ar    1  UNL1        0.1788
     17 C          -7.6751  -17.7787   21.5938 C.3     1  UNL1        0.0500
     18 C          -6.9809  -19.0797   21.3190 C.3     1  UNL1        0.0774
     19 N          -5.4907  -19.1140   21.1518 N.3     1  UNL1       -0.2700
     20 C          -4.6070  -19.3312   22.3443 C.3     1  UNL1        0.0897
     21 C          -4.8841  -18.9311   19.7922 C.3     1  UNL1        0.0897
@<TRIPOS>BOND
     1    10    11    1
     2    11     1    1
     3     1     2   ar
     4     2    17    1
     5    17    18    1
     6    18    19    1
     7    19    20    1
     8    19    21    1
     9     2     3   ar
    10     3     4   ar
    11     4     5   ar
    12     5     6   ar
    13     6     7   ar
    14     7     8   ar
    15     8     9   ar
    16    11    12    1
    17    12    13   ar
    18    13    14   ar
    19    14    15   ar
    20    15    16   ar
    21     9     1   ar
    22    16    12   ar
    23     9     4   ar
@<TRIPOS>MOLECULE
*****
 21 23 0 0 0
SMALL
GASTEIGER

@<TRIPOS>ATOM
      1 C          -8.3282  -18.4299   22.4443 C.ar    1  UNL1        0.0008
      2 C          -7.8063  -17.2736   23.2447 C.ar    1  UNL1        0.0064
      3 S          -6.3140  -17.2433   23.0963 S.2     1  UNL1       -0.0915
      4 C          -5.9136  -18.3808   22.2043 C.ar    1  UNL1        0.0289
      5 C          -4.5763  -18.8436   21.7069 C.ar    1  UNL1        0.0065
      6 C          -4.4839  -20.0397   20.8066 C.ar    1  UNL1        0.0005
      7 C          -5.7288  -20.7731   20.4036 C.ar    1  UNL1        0.0000
      8 C          -7.0661  -20.3103   20.9010 C.ar    1  UNL1        0.0002
      9 C          -7.1585  -19.1142   21.8013 C.ar    1  UNL1        0.0039
     10 C         -10.2644  -20.0762   22.9839 C.3     1  UNL1        0.0295
     11 C          -9.7673  -18.8314   22.3104 C.3     1  UNL1        0.1097
     12 N         -10.7092  -17.9883   21.5032 N.ar    1  UNL1       -0.3058
     13 C         -11.6687  -16.9714   22.0465 C.ar    1  UNL1        0.0982
     14 C         -12.4096  -16.3687   20.8898 C.ar    1  UNL1        0.1193
     15 N         -11.9081  -17.0131   19.6317 N.ar    1  UNL1       -0.2223
     16 C         -10.8571  -18.0142   20.0107 C.ar    1  UNL1        0.1788
     17 C          -8.6318  -16.3158   24.0517 C.3     1  UNL1        0.0500
     18 C          -7.9632  -15.2271   24.8375 C.3     1  UNL1        0.0774
     19 N          -7.3252  -15.5392   26.1587 N.3     1  UNL1       -0.2700
     20 C          -8.1573  -16.0776   27.2848 C.3     1  UNL1        0.0897
     21 C          -5.8553  -15.3130   26.3540 C.3     1  UNL1        0.0897
@<TRIPOS>BOND
     1    10    11    1
     2    11     1    1
     3     1     2   ar
     4     2    17    1
     5    17    18    1
     6    18    19    1
     7    19    20    1
     8    19    21    1
     9     2     3   ar
    10     3     4   ar
    11     4     5   ar
    12     5     6   ar
    13     6     7   ar
    14     7     8   ar
    15     8     9   ar
    16    11    12    1
    17    12    13   ar
    18    13    14   ar
    19    14    15   ar
    20    15    16   ar
    21     9     1   ar
    22    16    12   ar
    23     9     4   ar
@<TRIPOS>MOLECULE
*****
 21 23 0 0 0
SMALL
GASTEIGER

@<TRIPOS>ATOM
      1 C          -7.3724  -18.7605   21.6713 C.ar    1  UNL1        0.0008
      2 C          -8.0110  -19.4396   20.4961 C.ar    1  UNL1        0.0064
      3 S          -6.9309  -20.1279   19.7154 S.2     1  UNL1       -0.0915
      4 C          -5.6248  -19.8742   20.4080 C.ar    1  UNL1        0.0289
      5 C          -4.2223  -20.3036   20.0941 C.ar    1  UNL1        0.0065
      6 C          -3.0926  -19.8878   20.9891 C.ar    1  UNL1        0.0005
      7 C          -3.3655  -19.0427   22.1979 C.ar    1  UNL1        0.0000
      8 C          -4.7680  -18.6133   22.5118 C.ar    1  UNL1        0.0002
      9 C          -5.8976  -19.0291   21.6168 C.ar    1  UNL1        0.0039
     10 C          -7.7028  -16.5218   22.9478 C.3     1  UNL1        0.0295
     11 C          -8.0837  -17.9543   22.7173 C.3     1  UNL1        0.1097
     12 N          -9.1757  -18.5804   23.5328 N.ar    1  UNL1       -0.3058
     13 C         -10.2989  -17.8522   24.2096 C.ar    1  UNL1        0.0982
     14 C         -11.1537  -18.8665   24.9099 C.ar    1  UNL1        0.1193
     15 N         -10.5590  -20.2217   24.6659 N.ar    1  UNL1       -0.2223
     16 C          -9.3364  -20.0449   23.8148 C.ar    1  UNL1        0.1788
     17 C          -9.4730  -19.4317   20.1606 C.3     1  UNL1        0.0500
     18 C         -10.1346  -18.1596   19.7204 C.3     1  UNL1        0.0774
     19 N         -11.0739  -17.4437   20.6452 N.3     1  UNL1       -0.2700
     20 C         -10.8485  -15.9968   20.9706 C.3     1  UNL1        0.0897
     21 C         -12.2385  -18.1747   21.2447 C.3     1  UNL1        0.0897
@<TRIPOS>BOND
     1    10    11    1
     2    11     1    1
     3     1     2   ar
     4     2    17    1
     5    17    18    1
     6    18    19    1
     7    19    20    1
     8    19    21    1
     9     2     3   ar
    10     3     4   ar
    11     4     5   ar
    12     5     6   ar
    13     6     7   ar
    14     7     8   ar
    15     8     9   ar
    16    11    12    1
    17    12    13   ar
    18    13    14   ar
    19    14    15   ar
    20    15    16   ar
    21     9     1   ar
    22    16    12   ar
    23     9     4   ar
@<TRIPOS>MOLECULE
*****
 21 23 0 0 0
SMALL
GASTEIGER

@<TRIPOS>ATOM
      1 C          -8.7342  -17.1637   24.0843 C.ar    1  UNL1        0.0008
      2 C          -7.7127  -17.1125   22.9871 C.ar    1  UNL1        0.0064
      3 S          -6.5290  -16.3415   23.4914 S.2     1  UNL1       -0.0915
      4 C          -6.8189  -15.9162   24.9004 C.ar    1  UNL1        0.0289
      5 C          -6.0180  -15.1319   25.8969 C.ar    1  UNL1        0.0065
      6 C          -6.5799  -14.8557   27.2600 C.ar    1  UNL1        0.0005
      7 C          -7.9429  -15.3638   27.6264 C.ar    1  UNL1        0.0000
      8 C          -8.7438  -16.1481   26.6298 C.ar    1  UNL1        0.0002
      9 C          -8.1819  -16.4243   25.2668 C.ar    1  UNL1        0.0039
     10 C         -10.4617  -18.8473   25.0496 C.3     1  UNL1        0.0295
     11 C         -10.0731  -17.8362   24.0118 C.3     1  UNL1        0.1097
     12 N         -11.0233  -17.4977   22.9018 N.ar    1  UNL1       -0.3058
     13 C         -11.4989  -16.1227   22.5367 C.ar    1  UNL1        0.0982
     14 C         -12.4344  -16.2500   21.3712 C.ar    1  UNL1        0.1193
     15 N         -12.5371  -17.7036   21.0158 N.ar    1  UNL1       -0.2223
     16 C         -11.6650  -18.4748   21.9618 C.ar    1  UNL1        0.1788
     17 C          -7.8507  -17.7249   21.6247 C.3     1  UNL1        0.0500
     18 C          -7.9467  -19.2146   21.4782 C.3     1  UNL1        0.0774
     19 N          -7.4781  -19.8758   20.2160 N.3     1  UNL1       -0.2700
     20 C          -8.3144  -19.7973   18.9732 C.3     1  UNL1        0.0897
     21 C          -6.1733  -20.6154   20.1965 C.3     1  UNL1        0.0897
@<TRIPOS>BOND
     1    10    11    1
     2    11     1    1
     3     1     2   ar
     4     2    17    1
     5    17    18    1
     6    18    19    1
     7    19    20    1
     8    19    21    1
     9     2     3   ar
    10     3     4   ar
    11     4     5   ar
    12     5     6   ar
    13     6     7   ar
    14     7     8   ar
    15     8     9   ar
    16    11    12    1
    17    12    13   ar
    18    13    14   ar
    19    14    15   ar
    20    15    16   ar
    21     9     1   ar
    22    16    12   ar
    23     9     4   ar
@<TRIPOS>MOLECULE
*****
 21 23 0 0 0
SMALL
GASTEIGER

@<TRIPOS>ATOM
      1 C          -6.6510  -17.4818   22.8752 C.ar    1  UNL1        0.0008
      2 C          -7.4175  -18.6724   22.3803 C.ar    1  UNL1        0.0064
      3 S          -6.4282  -19.7064   21.9309 S.2     1  UNL1       -0.0915
      4 C          -5.0503  -19.1549   22.1481 C.ar    1  UNL1        0.0289
      5 C          -3.6880  -19.7270   21.8897 C.ar    1  UNL1        0.0065
      6 C          -2.4634  -18.9242   22.2151 C.ar    1  UNL1        0.0005
      7 C          -2.6011  -17.5493   22.7987 C.ar    1  UNL1        0.0000
      8 C          -3.9634  -16.9771   23.0570 C.ar    1  UNL1        0.0002
      9 C          -5.1880  -17.7800   22.7317 C.ar    1  UNL1        0.0039
     10 C          -7.8155  -15.1928   22.4815 C.3     1  UNL1        0.0295
     11 C          -7.2435  -16.2153   23.4184 C.3     1  UNL1        0.1097
     12 N          -7.2641  -15.9712   24.8981 N.ar    1  UNL1       -0.3058
     13 C          -8.4416  -16.1635   25.8072 C.ar    1  UNL1        0.0982
     14 C          -8.0160  -15.8030   27.1997 C.ar    1  UNL1        0.1193
     15 N          -6.5755  -15.3879   27.1512 N.ar    1  UNL1       -0.2223
     16 C          -6.1107  -15.4918   25.7287 C.ar    1  UNL1        0.1788
     17 C          -8.9111  -18.8056   22.3417 C.3     1  UNL1        0.0500
     18 C          -9.6908  -18.1830   21.2217 C.3     1  UNL1        0.0774
     19 N         -10.7454  -17.1591   21.5206 N.3     1  UNL1       -0.2700
     20 C         -11.4427  -16.4506   20.3972 C.3     1  UNL1        0.0897
     21 C         -11.1028  -16.8436   22.9428 C.3     1  UNL1        0.0897
@<TRIPOS>BOND
     1    10    11    1
     2    11     1    1
     3     1     2   ar
     4     2    17    1
     5    17    18    1
     6    18    19    1
     7    19    20    1
     8    19    21    1
     9     2     3   ar
    10     3     4   ar
    11     4     5   ar
    12     5     6   ar
    13     6     7   ar
    14     7     8   ar
    15     8     9   ar
    16    11    12    1
    17    12    13   ar
    18    13    14   ar
    19    14    15   ar
    20    15    16   ar
    21     9     1   ar
    22    16    12   ar
    23     9     4   ar
@<TRIPOS>MOLECULE
*****
 21 23 0 0 0
SMALL
GASTEIGER

@<TRIPOS>ATOM
      1 C          -6.2013  -18.3112   22.2391 C.ar    1  UNL1        0.0008
      2 C          -4.7419  -18.6320   22.3713 C.ar    1  UNL1        0.0064
      3 S          -4.1444  -17.6739   23.3586 S.2     1  UNL1       -0.0915
      4 C          -5.2343  -16.7609   23.8367 C.ar    1  UNL1        0.0289
      5 C          -5.2335  -15.6219   24.8126 C.ar    1  UNL1        0.0065
      6 C          -6.5039  -14.8767   25.0966 C.ar    1  UNL1        0.0005
      7 C          -7.7752  -15.2706   24.4046 C.ar    1  UNL1        0.0000
      8 C          -7.7760  -16.4096   23.4287 C.ar    1  UNL1        0.0002
      9 C          -6.5056  -17.1548   23.1447 C.ar    1  UNL1        0.0039
     10 C          -6.8262  -19.3307   19.9325 C.3     1  UNL1        0.0295
     11 C          -7.1838  -19.0219   21.3562 C.3     1  UNL1        0.1097
     12 N          -8.5239  -19.4239   21.8969 N.ar    1  UNL1       -0.3058
     13 C          -9.8414  -19.2608   21.1987 C.ar    1  UNL1        0.0982
     14 C         -10.9136  -19.7957   22.1011 C.ar    1  UNL1        0.1193
     15 N         -10.2588  -20.2895   23.3569 N.ar    1  UNL1       -0.2223
     16 C          -8.7818  -20.0597   23.2308 C.ar    1  UNL1        0.1788
     17 C          -4.0089  -19.7199   21.6438 C.3     1  UNL1        0.0500
     18 C          -2.5575  -19.5500   21.3058 C.3     1  UNL1        0.0774
     19 N          -2.1525  -18.6760   20.1560 N.3     1  UNL1       -0.2700
     20 C          -0.7273  -18.2281   20.0200 C.3     1  UNL1        0.0897
     21 C          -3.1725  -18.2498   19.1422 C.3     1  UNL1        0.0897
@<TRIPOS>BOND
     1    10    11    1
     2    11     1    1
     3     1     2   ar
     4     2    17    1
     5    17    18    1
     6    18    19    1
     7    19    20    1
     8    19    21    1
     9     2     3   ar
    10     3     4   ar
    11     4     5   ar
    12     5     6   ar
    13     6     7   ar
    14     7     8   ar
    15     8     9   ar
    16    11    12    1
    17    12    13   ar
    18    13    14   ar
    19    14    15   ar
    20    15    16   ar
    21     9     1   ar
    22    16    12   ar
    23     9     4   ar
@<TRIPOS>MOLECULE
*****
 21 23 0 0 0
SMALL
GASTEIGER

@<TRIPOS>ATOM
      1 C          -6.4621  -17.1469   22.9518 C.ar    1  UNL1        0.0008
      2 C          -5.6434  -18.3514   22.5928 C.ar    1  UNL1        0.0064
      3 S          -6.4852  -19.2432   21.7290 S.2     1  UNL1       -0.0915
      4 C          -7.8241  -18.5899   21.5542 C.ar    1  UNL1        0.0289
      5 C          -9.0543  -19.0073   20.8045 C.ar    1  UNL1        0.0065
      6 C         -10.2703  -18.1291   20.8105 C.ar    1  UNL1        0.0005
      7 C         -10.2561  -16.8335   21.5662 C.ar    1  UNL1        0.0000
      8 C          -9.0258  -16.4160   22.3159 C.ar    1  UNL1        0.0002
      9 C          -7.8098  -17.2942   22.3099 C.ar    1  UNL1        0.0039
     10 C          -4.9773  -15.0413   23.2870 C.3     1  UNL1        0.0295
     11 C          -6.0121  -15.9968   23.8032 C.3     1  UNL1        0.1097
     12 N          -6.5967  -15.8022   25.1707 N.ar    1  UNL1       -0.3058
     13 C          -8.0531  -15.8649   25.5241 C.ar    1  UNL1        0.0982
     14 C          -8.1841  -15.6121   26.9968 C.ar    1  UNL1        0.1193
     15 N          -6.8087  -15.3932   27.5537 N.ar    1  UNL1       -0.2223
     16 C          -5.8275  -15.5107   26.4251 C.ar    1  UNL1        0.1788
     17 C          -4.2310  -18.6174   23.0222 C.3     1  UNL1        0.0500
     18 C          -3.2497  -19.2038   22.0510 C.3     1  UNL1        0.0774
     19 N          -2.8670  -18.4400   20.8181 N.3     1  UNL1       -0.2700
     20 C          -2.0518  -17.1863   20.9354 C.3     1  UNL1        0.0897
     21 C          -3.2995  -18.9298   19.4679 C.3     1  UNL1        0.0897
@<TRIPOS>BOND
     1    10    11    1
     2    11     1    1
     3     1     2   ar
     4     2    17    1
     5    17    18    1
     6    18    19    1
     7    19    20    1
     8    19    21    1
     9     2     3   ar
    10     3     4   ar
    11     4     5   ar
    12     5     6   ar
    13     6     7   ar
    14     7     8   ar
    15     8     9   ar
    16    11    12    1
    17    12    13   ar
    18    13    14   ar
    19    14    15   ar
    20    15    16   ar
    21     9     1   ar
    22    16    12   ar
    23     9     4   ar
@<TRIPOS>MOLECULE
*****
 21 23 0 0 0
SMALL
GASTEIGER

@<TRIPOS>ATOM
      1 C          -6.6911  -18.3026   22.1318 C.ar    1  UNL1        0.0008
      2 C          -8.0816  -18.0627   21.6228 C.ar    1  UNL1        0.0064
      3 S          -8.6095  -16.8238   22.2833 S.2     1  UNL1       -0.0915
      4 C          -7.5454  -16.2980   23.2005 C.ar    1  UNL1        0.0289
      5 C          -7.5029  -15.1051   24.1088 C.ar    1  UNL1        0.0065
      6 C          -6.2747  -14.8262   24.9235 C.ar    1  UNL1        0.0005
      7 C          -5.0891  -15.7402   24.8299 C.ar    1  UNL1        0.0000
      8 C          -5.1316  -16.9331   23.9216 C.ar    1  UNL1        0.0002
      9 C          -6.3597  -17.2120   23.1069 C.ar    1  UNL1        0.0039
     10 C          -6.2140  -20.8522   21.9818 C.3     1  UNL1        0.0295
     11 C          -5.7901  -19.4345   21.7354 C.3     1  UNL1        0.1097
     12 N          -4.4654  -19.1488   21.0926 N.ar    1  UNL1       -0.3058
     13 C          -3.1460  -19.0479   21.7990 C.ar    1  UNL1        0.0982
     14 C          -2.0926  -18.7507   20.7734 C.ar    1  UNL1        0.1193
     15 N          -2.7608  -18.6678   19.4331 N.ar    1  UNL1       -0.2223
     16 C          -4.2274  -18.9139   19.6303 C.ar    1  UNL1        0.1788
     17 C          -8.8152  -18.9125   20.6280 C.3     1  UNL1        0.0500
     18 C         -10.2771  -18.6851   20.3810 C.3     1  UNL1        0.0774
     19 N         -11.2649  -18.8805   21.4928 N.3     1  UNL1       -0.2700
     20 C         -12.4286  -17.9447   21.6352 C.3     1  UNL1        0.0897
     21 C         -11.0890  -20.0115   22.4622 C.3     1  UNL1        0.0897
@<TRIPOS>BOND
     1    10    11    1
     2    11     1    1
     3     1     2   ar
     4     2    17    1
     5    17    18    1
     6    18    19    1
     7    19    20    1
     8    19    21    1
     9     2     3   ar
    10     3     4   ar
    11     4     5   ar
    12     5     6   ar
    13     6     7   ar
    14     7     8   ar
    15     8     9   ar
    16    11    12    1
    17    12    13   ar
    18    13    14   ar
    19    14    15   ar
    20    15    16   ar
    21     9     1   ar
    22    16    12   ar
    23     9     4   ar
