@<TRIPOS>MOLECULE
*****
 34 37 0 0 0
SMALL
GASTEIGER

@<TRIPOS>ATOM
      1 O         -11.2779  -19.9498   22.4614 O.3     1  UNL1       -0.4543
      2 C         -10.2055  -19.7042   21.4416 C.ar    1  UNL1        0.2311
      3 N         -10.5772  -19.3255   20.0387 N.ar    1  UNL1       -0.1892
      4 C          -9.5049  -19.0800   19.0190 C.ar    1  UNL1        0.2029
      5 N          -8.0608  -19.2131   19.4023 N.ar    1  UNL1       -0.2046
      6 C          -7.6891  -19.5918   20.8053 C.ar    1  UNL1        0.1716
      7 C          -8.7614  -19.8374   21.8249 C.ar    1  UNL1        0.1098
      8 C          -8.0958  -20.1943   23.1210 C.ar    1  UNL1        0.1283
      9 N          -6.6121  -20.1694   22.9022 N.ar    1  UNL1       -0.1619
     10 N          -6.3607  -19.7970   21.4711 N.ar    1  UNL1       -0.2090
     11 C          -5.0169  -19.6548   20.8200 C.ar    1  UNL1        0.1182
     12 C          -4.6174  -20.5852   19.7134 C.ar    1  UNL1        0.0223
     13 C          -3.2735  -20.4430   19.0623 C.ar    1  UNL1        0.0017
     14 C          -2.3292  -19.3703   19.5178 C.ar    1  UNL1        0.0032
     15 C          -2.7287  -18.4398   20.6244 C.ar    1  UNL1        0.0385
     16 C          -4.0725  -18.5821   21.2755 C.ar    1  UNL1        0.1563
     17 O          -4.4720  -17.6515   22.3821 O.3     1  UNL1       -0.4699
     18 C          -3.8141  -17.7582   23.7259 C.3     1  UNL1        0.2525
     19 C         -11.5147  -18.9518   23.5559 C.3     1  UNL1        0.2455
     20 C         -10.3504  -18.3220   24.2615 C.2     1  UNL1        0.2675
     21 O          -9.7698  -18.9750   25.4807 O.2     1  UNL1       -0.2708
     22 N          -9.7666  -17.0393   23.7478 N.am    1  UNL1       -0.2664
     23 H         -10.1477  -16.6107   22.9476 H       1  UNL1        0.1564
     24 C          -8.6024  -16.4095   24.4534 C.ar    1  UNL1        0.1342
     25 C          -8.6389  -16.2226   25.9412 C.ar    1  UNL1        0.0342
     26 C          -7.4746  -15.5928   26.6467 C.ar    1  UNL1        0.0001
     27 C          -6.2737  -15.1500   25.8644 C.ar    1  UNL1       -0.0026
     28 C          -5.1094  -14.5203   26.5700 C.3     1  UNL1        0.0327
     29 C          -6.2372  -15.3370   24.3766 C.ar    1  UNL1        0.0960
     30 N          -7.4016  -15.9668   23.6710 N.ar    1  UNL1       -0.2293
     31 C         -12.9158  -18.5835   23.9448 C.3     1  UNL1        0.0852
     32 C         -13.5400  -17.3316   23.4033 C.3     1  UNL1        0.1465
     33 C         -12.5076  -16.4495   21.1883 C.3     1  UNL1        0.1741
     34 O         -12.6974  -16.3294   22.6714 O.3     1  UNL1       -0.3510
@<TRIPOS>BOND
     1    33    34    1
     2    34    32    1
     3    32    31    1
     4    19    31    1
     5    19     1    1
     6     1     2    1
     7     2     3   ar
     8     3     4   ar
     9     4     5   ar
    10     5     6   ar
    11     6     7   ar
    12     7     8   ar
    13     8     9   ar
    14     9    10   ar
    15    10    11    1
    16    11    12   ar
    17    12    13   ar
    18    13    14   ar
    19    14    15   ar
    20    15    16   ar
    21    16    17    1
    22    17    18    1
    23    19    20    1
    24    20    21    2
    25    20    22   am
    26    22    24    1
    27    24    25   ar
    28    25    26   ar
    29    26    27   ar
    30    27    28    1
    31    27    29   ar
    32    29    30   ar
    33     7     2   ar
    34    16    11   ar
    35    30    24   ar
    36    10     6   ar
    37    22    23    1
@<TRIPOS>MOLECULE
*****
 34 37 0 0 0
SMALL
GASTEIGER

@<TRIPOS>ATOM
      1 O           6.0477   -4.7183   23.2361 O.3     1  UNL1       -0.4543
      2 C           5.2809   -3.4311   23.1633 C.ar    1  UNL1        0.2311
      3 N           5.2510   -2.5081   24.3452 N.ar    1  UNL1       -0.1892
      4 C           4.4842   -1.2210   24.2724 C.ar    1  UNL1        0.2029
      5 N           3.7475   -0.8569   23.0175 N.ar    1  UNL1       -0.2046
      6 C           3.7774   -1.7799   21.8356 C.ar    1  UNL1        0.1716
      7 C           4.5442   -3.0670   21.9084 C.ar    1  UNL1        0.1098
      8 C           4.3930   -3.7718   20.5929 C.ar    1  UNL1        0.1283
      9 N           3.5329   -2.9201   19.7070 N.ar    1  UNL1       -0.1619
     10 N           3.1524   -1.6891   20.4750 N.ar    1  UNL1       -0.2090
     11 C           2.2971   -0.5647   19.9710 C.ar    1  UNL1        0.1182
     12 C           0.9608   -0.2992   20.5986 C.ar    1  UNL1        0.0223
     13 C           0.1055    0.8252   20.0945 C.ar    1  UNL1        0.0017
     14 C           0.5865    1.6843   18.9629 C.ar    1  UNL1        0.0032
     15 C           1.9228    1.4189   18.3353 C.ar    1  UNL1        0.0385
     16 C           2.7781    0.2944   18.8393 C.ar    1  UNL1        0.1563
     17 O           4.1143    0.0291   18.2117 O.3     1  UNL1       -0.4699
     18 C           4.1958   -0.6805   16.8926 C.3     1  UNL1        0.2525
     19 C           7.4025   -4.7489   23.8792 C.3     1  UNL1        0.2455
     20 C           7.5354   -4.5392   25.3586 C.2     1  UNL1        0.2675
     21 O           8.8759   -4.2258   25.9542 O.2     1  UNL1       -0.2708
     22 N           6.3277   -4.6429   26.2422 N.am    1  UNL1       -0.2664
     23 H           5.4479   -4.8486   25.8512 H       1  UNL1        0.1564
     24 C           6.4606   -4.4332   27.7215 C.ar    1  UNL1        0.1342
     25 C           6.7648   -5.5955   28.6195 C.ar    1  UNL1        0.0342
     26 C           6.8977   -5.3858   30.0987 C.ar    1  UNL1        0.0001
     27 C           6.7262   -4.0137   30.6801 C.ar    1  UNL1       -0.0026
     28 C           6.8590   -3.8040   32.1594 C.3     1  UNL1        0.0327
     29 C           6.4219   -2.8513   29.7822 C.ar    1  UNL1        0.0960
     30 N           6.2891   -3.0611   28.3028 N.ar    1  UNL1       -0.2293
     31 C           8.6244   -4.9892   23.0430 C.3     1  UNL1        0.0852
     32 C           9.3080   -3.8385   22.3659 C.3     1  UNL1        0.1465
     33 C           8.0351   -3.0055   20.2597 C.3     1  UNL1        0.1741
     34 O           8.4950   -2.7869   21.6707 O.3     1  UNL1       -0.3510
@<TRIPOS>BOND
     1    33    34    1
     2    34    32    1
     3    32    31    1
     4    19    31    1
     5    19     1    1
     6     1     2    1
     7     2     3   ar
     8     3     4   ar
     9     4     5   ar
    10     5     6   ar
    11     6     7   ar
    12     7     8   ar
    13     8     9   ar
    14     9    10   ar
    15    10    11    1
    16    11    12   ar
    17    12    13   ar
    18    13    14   ar
    19    14    15   ar
    20    15    16   ar
    21    16    17    1
    22    17    18    1
    23    19    20    1
    24    20    21    2
    25    20    22   am
    26    22    24    1
    27    24    25   ar
    28    25    26   ar
    29    26    27   ar
    30    27    28    1
    31    27    29   ar
    32    29    30   ar
    33     7     2   ar
    34    16    11   ar
    35    30    24   ar
    36    10     6   ar
    37    22    23    1
@<TRIPOS>MOLECULE
*****
 34 37 0 0 0
SMALL
GASTEIGER

@<TRIPOS>ATOM
      1 O           7.5409   -5.0059   23.0880 O.3     1  UNL1       -0.4543
      2 C           6.4639   -3.9626   23.0483 C.ar    1  UNL1        0.2311
      3 N           5.9466   -3.3697   24.3253 N.ar    1  UNL1       -0.1892
      4 C           4.8697   -2.3264   24.2855 C.ar    1  UNL1        0.2029
      5 N           4.3100   -1.8759   22.9688 N.ar    1  UNL1       -0.2046
      6 C           4.8273   -2.4688   21.6917 C.ar    1  UNL1        0.1716
      7 C           5.9043   -3.5121   21.7315 C.ar    1  UNL1        0.1098
      8 C           6.2139   -3.9128   20.3195 C.ar    1  UNL1        0.1283
      9 N           5.3282   -3.1171   19.4071 N.ar    1  UNL1       -0.1619
     10 N           4.4713   -2.2247   20.2552 N.ar    1  UNL1       -0.2090
     11 C           3.4395   -1.2578   19.7547 C.ar    1  UNL1        0.1182
     12 C           2.0651   -1.2499   20.3554 C.ar    1  UNL1        0.0223
     13 C           1.0333   -0.2830   19.8549 C.ar    1  UNL1        0.0017
     14 C           1.3759    0.6760   18.7535 C.ar    1  UNL1        0.0032
     15 C           2.7503    0.6681   18.1528 C.ar    1  UNL1        0.0385
     16 C           3.7821   -0.2988   18.6533 C.ar    1  UNL1        0.1563
     17 O           5.1565   -0.3066   18.0526 O.3     1  UNL1       -0.4699
     18 C           6.2853    0.3896   18.7533 C.3     1  UNL1        0.2525
     19 C           7.7658   -5.8045   24.3376 C.3     1  UNL1        0.2455
     20 C           7.7335   -5.1280   25.6760 C.2     1  UNL1        0.2675
     21 O           8.8707   -4.2455   26.0979 O.2     1  UNL1       -0.2708
     22 N           6.5640   -5.3339   26.5925 N.am    1  UNL1       -0.2664
     23 H           5.8177   -5.9131   26.3156 H       1  UNL1        0.1564
     24 C           6.5318   -4.6573   27.9309 C.ar    1  UNL1        0.1342
     25 C           6.1763   -3.2033   28.0279 C.ar    1  UNL1        0.0342
     26 C           6.1440   -2.5268   29.3662 C.ar    1  UNL1        0.0001
     27 C           6.4672   -3.3043   30.6076 C.ar    1  UNL1       -0.0026
     28 C           6.4349   -2.6277   31.9460 C.3     1  UNL1        0.0327
     29 C           6.8227   -4.7583   30.5106 C.ar    1  UNL1        0.0960
     30 N           6.8550   -5.4348   29.1722 N.ar    1  UNL1       -0.2293
     31 C           8.0228   -7.2797   24.2490 C.3     1  UNL1        0.0852
     32 C           9.2757   -7.8593   24.8358 C.3     1  UNL1        0.1465
     33 C           8.1874   -8.5708   27.0852 C.3     1  UNL1        0.1741
     34 O           9.3781   -8.0802   26.3160 O.3     1  UNL1       -0.3510
@<TRIPOS>BOND
     1    33    34    1
     2    34    32    1
     3    32    31    1
     4    19    31    1
     5    19     1    1
     6     1     2    1
     7     2     3   ar
     8     3     4   ar
     9     4     5   ar
    10     5     6   ar
    11     6     7   ar
    12     7     8   ar
    13     8     9   ar
    14     9    10   ar
    15    10    11    1
    16    11    12   ar
    17    12    13   ar
    18    13    14   ar
    19    14    15   ar
    20    15    16   ar
    21    16    17    1
    22    17    18    1
    23    19    20    1
    24    20    21    2
    25    20    22   am
    26    22    24    1
    27    24    25   ar
    28    25    26   ar
    29    26    27   ar
    30    27    28    1
    31    27    29   ar
    32    29    30   ar
    33     7     2   ar
    34    16    11   ar
    35    30    24   ar
    36    10     6   ar
    37    22    23    1
@<TRIPOS>MOLECULE
*****
 34 37 0 0 0
SMALL
GASTEIGER

@<TRIPOS>ATOM
      1 O           7.1296   -2.9865   27.2692 O.3     1  UNL1       -0.4543
      2 C           6.2278   -2.6804   26.1102 C.ar    1  UNL1        0.2311
      3 N           5.0769   -1.7344   26.2848 N.ar    1  UNL1       -0.1892
      4 C           4.1753   -1.4283   25.1258 C.ar    1  UNL1        0.2029
      5 N           4.4245   -2.0682   23.7922 N.ar    1  UNL1       -0.2046
      6 C           5.5754   -3.0142   23.6176 C.ar    1  UNL1        0.1716
      7 C           6.4770   -3.3203   24.7766 C.ar    1  UNL1        0.1098
      8 C           7.5245   -4.2857   24.3066 C.ar    1  UNL1        0.1283
      9 N           7.2702   -4.5763   22.8572 N.ar    1  UNL1       -0.1619
     10 N           6.0655   -3.7904   22.4314 N.ar    1  UNL1       -0.2090
     11 C           5.4578   -3.7822   21.0601 C.ar    1  UNL1        0.1182
     12 C           4.1790   -4.5226   20.8020 C.ar    1  UNL1        0.0223
     13 C           3.5713   -4.5144   19.4306 C.ar    1  UNL1        0.0017
     14 C           4.2422   -3.7658   18.3173 C.ar    1  UNL1        0.0032
     15 C           5.5209   -3.0255   18.5754 C.ar    1  UNL1        0.0385
     16 C           6.1287   -3.0336   19.9468 C.ar    1  UNL1        0.1563
     17 O           7.4075   -2.2932   20.2048 O.3     1  UNL1       -0.4699
     18 C           8.7115   -2.8592   19.7262 C.3     1  UNL1        0.2525
     19 C           6.5724   -3.6334   28.5025 C.3     1  UNL1        0.2455
     20 C           6.2237   -2.7953   29.6967 C.2     1  UNL1        0.2675
     21 O           5.7615   -1.3805   29.5109 O.2     1  UNL1       -0.2708
     22 N           6.3373   -3.3721   31.0767 N.am    1  UNL1       -0.2664
     23 H           6.6407   -4.3007   31.1986 H       1  UNL1        0.1564
     24 C           5.9887   -2.5341   32.2709 C.ar    1  UNL1        0.1342
     25 C           6.9966   -1.5776   32.8360 C.ar    1  UNL1        0.0342
     26 C           6.6480   -0.7395   34.0302 C.ar    1  UNL1        0.0001
     27 C           5.2914   -0.8580   34.6594 C.ar    1  UNL1       -0.0026
     28 C           4.9428   -0.0200   35.8536 C.3     1  UNL1        0.0327
     29 C           4.2836   -1.8146   34.0943 C.ar    1  UNL1        0.0960
     30 N           4.6323   -2.6526   32.9001 N.ar    1  UNL1       -0.2293
     31 C           6.3638   -5.1183   28.5416 C.3     1  UNL1        0.0852
     32 C           7.2649   -6.0232   27.7547 C.3     1  UNL1        0.1465
     33 C           7.6068   -7.7474   25.8416 C.3     1  UNL1        0.1741
     34 O           6.7175   -6.8054   26.5977 O.3     1  UNL1       -0.3510
@<TRIPOS>BOND
     1    33    34    1
     2    34    32    1
     3    32    31    1
     4    19    31    1
     5    19     1    1
     6     1     2    1
     7     2     3   ar
     8     3     4   ar
     9     4     5   ar
    10     5     6   ar
    11     6     7   ar
    12     7     8   ar
    13     8     9   ar
    14     9    10   ar
    15    10    11    1
    16    11    12   ar
    17    12    13   ar
    18    13    14   ar
    19    14    15   ar
    20    15    16   ar
    21    16    17    1
    22    17    18    1
    23    19    20    1
    24    20    21    2
    25    20    22   am
    26    22    24    1
    27    24    25   ar
    28    25    26   ar
    29    26    27   ar
    30    27    28    1
    31    27    29   ar
    32    29    30   ar
    33     7     2   ar
    34    16    11   ar
    35    30    24   ar
    36    10     6   ar
    37    22    23    1
@<TRIPOS>MOLECULE
*****
 34 37 0 0 0
SMALL
GASTEIGER

@<TRIPOS>ATOM
      1 O          -5.9589  -20.5771   20.1268 O.3     1  UNL1       -0.4543
      2 C          -7.3843  -20.1104   20.1015 C.ar    1  UNL1        0.2311
      3 N          -8.0888  -19.9228   18.7906 N.ar    1  UNL1       -0.1892
      4 C          -9.5141  -19.4561   18.7653 C.ar    1  UNL1        0.2029
      5 N         -10.2349  -19.1770   20.0508 N.ar    1  UNL1       -0.2046
      6 C          -9.5303  -19.3646   21.3617 C.ar    1  UNL1        0.1716
      7 C          -8.1051  -19.8313   21.3870 C.ar    1  UNL1        0.1098
      8 C          -7.6734  -19.9253   22.8205 C.ar    1  UNL1        0.1283
      9 N          -8.8320  -19.5166   23.6811 N.ar    1  UNL1       -0.1619
     10 N          -9.9797  -19.1701   22.7795 N.ar    1  UNL1       -0.2090
     11 C         -11.3381  -18.7099   23.2186 C.ar    1  UNL1        0.1182
     12 C         -11.9671  -19.2950   24.4482 C.ar    1  UNL1        0.0223
     13 C         -13.3255  -18.8348   24.8873 C.ar    1  UNL1        0.0017
     14 C         -14.0550  -17.7894   24.0968 C.ar    1  UNL1        0.0032
     15 C         -13.4260  -17.2042   22.8672 C.ar    1  UNL1        0.0385
     16 C         -12.0676  -17.6644   22.4281 C.ar    1  UNL1        0.1563
     17 O         -11.4387  -17.0792   21.1985 O.3     1  UNL1       -0.4699
     18 C         -10.6443  -15.8104   21.2938 C.3     1  UNL1        0.2525
     19 C          -4.8696  -19.6378   20.5523 C.3     1  UNL1        0.2455
     20 C          -4.9809  -18.9007   21.8540 C.2     1  UNL1        0.2675
     21 O          -4.3079  -19.4402   23.0812 O.2     1  UNL1       -0.2708
     22 N          -5.7651  -17.6242   21.9285 N.am    1  UNL1       -0.2664
     23 H          -6.2068  -17.2702   21.1231 H       1  UNL1        0.1564
     24 C          -5.8763  -16.8872   23.2302 C.ar    1  UNL1        0.1342
     25 C          -4.6427  -16.5819   24.0270 C.ar    1  UNL1        0.0342
     26 C          -4.7539  -15.8449   25.3287 C.ar    1  UNL1        0.0001
     27 C          -6.0988  -15.4132   25.8336 C.ar    1  UNL1       -0.0026
     28 C          -6.2101  -14.6762   27.1353 C.3     1  UNL1        0.0327
     29 C          -7.3325  -15.7185   25.0368 C.ar    1  UNL1        0.0960
     30 N          -7.2212  -16.4555   23.7351 N.ar    1  UNL1       -0.2293
     31 C          -3.6692  -19.4354   19.6760 C.3     1  UNL1        0.0852
     32 C          -2.5386  -18.5666   20.1417 C.3     1  UNL1        0.1465
     33 C          -2.0273  -16.3935   21.4708 C.3     1  UNL1        0.1741
     34 O          -2.7644  -17.1018   20.3731 O.3     1  UNL1       -0.3510
@<TRIPOS>BOND
     1    33    34    1
     2    34    32    1
     3    32    31    1
     4    19    31    1
     5    19     1    1
     6     1     2    1
     7     2     3   ar
     8     3     4   ar
     9     4     5   ar
    10     5     6   ar
    11     6     7   ar
    12     7     8   ar
    13     8     9   ar
    14     9    10   ar
    15    10    11    1
    16    11    12   ar
    17    12    13   ar
    18    13    14   ar
    19    14    15   ar
    20    15    16   ar
    21    16    17    1
    22    17    18    1
    23    19    20    1
    24    20    21    2
    25    20    22   am
    26    22    24    1
    27    24    25   ar
    28    25    26   ar
    29    26    27   ar
    30    27    28    1
    31    27    29   ar
    32    29    30   ar
    33     7     2   ar
    34    16    11   ar
    35    30    24   ar
    36    10     6   ar
    37    22    23    1
@<TRIPOS>MOLECULE
*****
 34 37 0 0 0
SMALL
GASTEIGER

@<TRIPOS>ATOM
      1 O           5.8052   -4.6092   22.8974 O.3     1  UNL1       -0.4543
      2 C           5.2347   -3.8906   21.7107 C.ar    1  UNL1        0.2311
      3 N           5.4926   -4.4067   20.3262 N.ar    1  UNL1       -0.1892
      4 C           4.9221   -3.6881   19.1396 C.ar    1  UNL1        0.2029
      5 N           4.0937   -2.4533   19.3375 N.ar    1  UNL1       -0.2046
      6 C           3.8358   -1.9372   20.7221 C.ar    1  UNL1        0.1716
      7 C           4.4063   -2.6558   21.9087 C.ar    1  UNL1        0.1098
      8 C           3.9862   -1.9165   23.1444 C.ar    1  UNL1        0.1283
      9 N           3.1560   -0.7410   22.7215 N.ar    1  UNL1       -0.1619
     10 N           3.0631   -0.7538   21.2244 N.ar    1  UNL1       -0.2090
     11 C           2.3267    0.2420   20.3782 C.ar    1  UNL1        0.1182
     12 C           0.8352    0.3600   20.4854 C.ar    1  UNL1        0.0223
     13 C           0.0988    1.3558   19.6392 C.ar    1  UNL1        0.0017
     14 C           0.8540    2.2337   18.6857 C.ar    1  UNL1        0.0032
     15 C           2.3454    2.1157   18.5785 C.ar    1  UNL1        0.0385
     16 C           3.0818    1.1199   19.4247 C.ar    1  UNL1        0.1563
     17 O           4.5733    1.0020   19.3174 O.3     1  UNL1       -0.4699
     18 C           5.2250    0.9325   17.9682 C.3     1  UNL1        0.2525
     19 C           7.1432   -4.2088   23.4447 C.3     1  UNL1        0.2455
     20 C           7.3459   -4.1025   24.9271 C.2     1  UNL1        0.2675
     21 O           8.6963   -3.7489   25.4761 O.2     1  UNL1       -0.2708
     22 N           6.1981   -4.3498   25.8606 N.am    1  UNL1       -0.2664
     23 H           5.3118   -4.5818   25.5003 H       1  UNL1        0.1564
     24 C           6.4007   -4.2435   27.3431 C.ar    1  UNL1        0.1342
     25 C           6.6071   -5.4827   28.1626 C.ar    1  UNL1        0.0342
     26 C           6.8097   -5.3764   29.6450 C.ar    1  UNL1        0.0001
     27 C           6.8059   -4.0308   30.3080 C.ar    1  UNL1       -0.0026
     28 C           7.0085   -3.9245   31.7904 C.3     1  UNL1        0.0327
     29 C           6.5995   -2.7916   29.4884 C.ar    1  UNL1        0.0960
     30 N           6.3969   -2.8979   28.0059 N.ar    1  UNL1       -0.2293
     31 C           8.2785   -3.9147   22.5095 C.3     1  UNL1        0.0852
     32 C           9.0025   -5.0400   21.8315 C.3     1  UNL1        0.1465
     33 C           9.0182   -7.2682   23.1676 C.3     1  UNL1        0.1741
     34 O           8.5278   -6.4519   22.0086 O.3     1  UNL1       -0.3510
@<TRIPOS>BOND
     1    33    34    1
     2    34    32    1
     3    32    31    1
     4    19    31    1
     5    19     1    1
     6     1     2    1
     7     2     3   ar
     8     3     4   ar
     9     4     5   ar
    10     5     6   ar
    11     6     7   ar
    12     7     8   ar
    13     8     9   ar
    14     9    10   ar
    15    10    11    1
    16    11    12   ar
    17    12    13   ar
    18    13    14   ar
    19    14    15   ar
    20    15    16   ar
    21    16    17    1
    22    17    18    1
    23    19    20    1
    24    20    21    2
    25    20    22   am
    26    22    24    1
    27    24    25   ar
    28    25    26   ar
    29    26    27   ar
    30    27    28    1
    31    27    29   ar
    32    29    30   ar
    33     7     2   ar
    34    16    11   ar
    35    30    24   ar
    36    10     6   ar
    37    22    23    1
@<TRIPOS>MOLECULE
*****
 34 37 0 0 0
SMALL
GASTEIGER

@<TRIPOS>ATOM
      1 O           6.8095   -5.6426   27.0626 O.3     1  UNL1       -0.4543
      2 C           6.9455   -5.3087   28.5187 C.ar    1  UNL1        0.2311
      3 N           7.5239   -6.3156   29.4682 N.ar    1  UNL1       -0.1892
      4 C           7.6599   -5.9817   30.9242 C.ar    1  UNL1        0.2029
      5 N           7.2175   -4.6409   31.4307 N.ar    1  UNL1       -0.2046
      6 C           6.6391   -3.6340   30.4811 C.ar    1  UNL1        0.1716
      7 C           6.5032   -3.9679   29.0252 C.ar    1  UNL1        0.1098
      8 C           5.9006   -2.7820   28.3319 C.ar    1  UNL1        0.1283
      9 N           5.6642   -1.7151   29.3595 N.ar    1  UNL1       -0.1619
     10 N           6.1207   -2.2417   30.6878 N.ar    1  UNL1       -0.2090
     11 C           6.0679   -1.5053   31.9935 C.ar    1  UNL1        0.1182
     12 C           7.3396   -1.1237   32.6913 C.ar    1  UNL1        0.0223
     13 C           7.2868   -0.3873   33.9970 C.ar    1  UNL1        0.0017
     14 C           5.9622   -0.0325   34.6050 C.ar    1  UNL1        0.0032
     15 C           4.6905   -0.4141   33.9072 C.ar    1  UNL1        0.0385
     16 C           4.7433   -1.1505   32.6014 C.ar    1  UNL1        0.1563
     17 O           3.4715   -1.5321   31.9037 O.3     1  UNL1       -0.4699
     18 C           2.7788   -0.5435   31.0133 C.3     1  UNL1        0.2525
     19 C           7.7772   -5.0719   26.0687 C.3     1  UNL1        0.2455
     20 C           7.3896   -4.9592   24.6240 C.2     1  UNL1        0.2675
     21 O           7.7209   -6.0682   23.6699 O.2     1  UNL1       -0.2708
     22 N           6.6706   -3.7376   24.1335 N.am    1  UNL1       -0.2664
     23 H           6.4531   -3.0097   24.7597 H       1  UNL1        0.1564
     24 C           6.2829   -3.6249   22.6889 C.ar    1  UNL1        0.1342
     25 C           4.8522   -3.8129   22.2794 C.ar    1  UNL1        0.0342
     26 C           4.4645   -3.7002   20.8348 C.ar    1  UNL1        0.0001
     27 C           5.5076   -3.3995   19.7995 C.ar    1  UNL1       -0.0026
     28 C           5.1199   -3.2868   18.3549 C.3     1  UNL1        0.0327
     29 C           6.9383   -3.2115   20.2090 C.ar    1  UNL1        0.0960
     30 N           7.3259   -3.3242   21.6537 N.ar    1  UNL1       -0.2293
     31 C           9.1326   -4.6138   26.5195 C.3     1  UNL1        0.0852
     32 C           9.4078   -3.1504   26.7004 C.3     1  UNL1        0.1465
     33 C           8.2288   -0.8987   26.1619 C.3     1  UNL1        0.1741
     34 O           8.8932   -2.1608   25.6974 O.3     1  UNL1       -0.3510
@<TRIPOS>BOND
     1    33    34    1
     2    34    32    1
     3    32    31    1
     4    19    31    1
     5    19     1    1
     6     1     2    1
     7     2     3   ar
     8     3     4   ar
     9     4     5   ar
    10     5     6   ar
    11     6     7   ar
    12     7     8   ar
    13     8     9   ar
    14     9    10   ar
    15    10    11    1
    16    11    12   ar
    17    12    13   ar
    18    13    14   ar
    19    14    15   ar
    20    15    16   ar
    21    16    17    1
    22    17    18    1
    23    19    20    1
    24    20    21    2
    25    20    22   am
    26    22    24    1
    27    24    25   ar
    28    25    26   ar
    29    26    27   ar
    30    27    28    1
    31    27    29   ar
    32    29    30   ar
    33     7     2   ar
    34    16    11   ar
    35    30    24   ar
    36    10     6   ar
    37    22    23    1
@<TRIPOS>MOLECULE
*****
 34 37 0 0 0
SMALL
GASTEIGER

@<TRIPOS>ATOM
      1 O          -0.4032    1.1729   20.4491 O.3     1  UNL1       -0.4543
      2 C           0.8381    0.5913   19.8398 C.ar    1  UNL1        0.2311
      3 N           1.0213    0.6075   18.3511 N.ar    1  UNL1       -0.1892
      4 C           2.2624    0.0260   17.7419 C.ar    1  UNL1        0.2029
      5 N           3.3204   -0.5718   18.6213 N.ar    1  UNL1       -0.2046
      6 C           3.1372   -0.5880   20.1100 C.ar    1  UNL1        0.1716
      7 C           1.8960   -0.0064   20.7192 C.ar    1  UNL1        0.1098
      8 C           1.9928   -0.1638   22.2079 C.ar    1  UNL1        0.1283
      9 N           3.2938   -0.8426   22.5186 N.ar    1  UNL1       -0.1619
     10 N           4.0010   -1.1048   21.2220 N.ar    1  UNL1       -0.2090
     11 C           5.3376   -1.7674   21.0651 C.ar    1  UNL1        0.1182
     12 C           6.5956   -0.9706   21.2452 C.ar    1  UNL1        0.0223
     13 C           7.9321   -1.6333   21.0882 C.ar    1  UNL1        0.0017
     14 C           8.0106   -3.0928   20.7511 C.ar    1  UNL1        0.0032
     15 C           6.7526   -3.8896   20.5710 C.ar    1  UNL1        0.0385
     16 C           5.4161   -3.2270   20.7280 C.ar    1  UNL1        0.1563
     17 O           4.1581   -4.0239   20.5478 O.3     1  UNL1       -0.4699
     18 C           3.6170   -4.2701   19.1707 C.3     1  UNL1        0.2525
     19 C          -0.6632    2.6474   20.3584 C.3     1  UNL1        0.2455
     20 C          -1.8564    3.2423   21.0458 C.2     1  UNL1        0.2675
     21 O          -1.6870    4.4242   21.9538 O.2     1  UNL1       -0.2708
     22 N          -3.2190    2.6552   20.8252 N.am    1  UNL1       -0.2664
     23 H          -3.3301    1.8795   20.2292 H       1  UNL1        0.1564
     24 C          -4.4122    3.2500   21.5125 C.ar    1  UNL1        0.1342
     25 C          -4.5636    3.1197   22.9991 C.ar    1  UNL1        0.0342
     26 C          -5.7568    3.7145   23.6865 C.ar    1  UNL1        0.0001
     27 C          -6.7987    4.4396   22.8871 C.ar    1  UNL1       -0.0026
     28 C          -7.9919    5.0344   23.5745 C.3     1  UNL1        0.0327
     29 C          -6.6473    4.5698   21.4005 C.ar    1  UNL1        0.0960
     30 N          -5.4540    3.9750   20.7132 N.ar    1  UNL1       -0.2293
     31 C           0.2700    3.5271   19.5804 C.3     1  UNL1        0.0852
     32 C          -0.2540    4.3616   18.4495 C.3     1  UNL1        0.1465
     33 C          -2.1374    3.8694   16.7288 C.3     1  UNL1        0.1741
     34 O          -0.7178    3.7033   17.1839 O.3     1  UNL1       -0.3510
@<TRIPOS>BOND
     1    33    34    1
     2    34    32    1
     3    32    31    1
     4    19    31    1
     5    19     1    1
     6     1     2    1
     7     2     3   ar
     8     3     4   ar
     9     4     5   ar
    10     5     6   ar
    11     6     7   ar
    12     7     8   ar
    13     8     9   ar
    14     9    10   ar
    15    10    11    1
    16    11    12   ar
    17    12    13   ar
    18    13    14   ar
    19    14    15   ar
    20    15    16   ar
    21    16    17    1
    22    17    18    1
    23    19    20    1
    24    20    21    2
    25    20    22   am
    26    22    24    1
    27    24    25   ar
    28    25    26   ar
    29    26    27   ar
    30    27    28    1
    31    27    29   ar
    32    29    30   ar
    33     7     2   ar
    34    16    11   ar
    35    30    24   ar
    36    10     6   ar
    37    22    23    1
@<TRIPOS>MOLECULE
*****
 34 37 0 0 0
SMALL
GASTEIGER

@<TRIPOS>ATOM
      1 O           5.0479   -2.7338   32.5327 O.3     1  UNL1       -0.4543
      2 C           4.3018   -1.4340   32.5985 C.ar    1  UNL1        0.2311
      3 N           3.4924   -0.9735   31.4227 N.ar    1  UNL1       -0.1892
      4 C           2.7465    0.3261   31.4885 C.ar    1  UNL1        0.2029
      5 N           2.8099    1.1653   32.7302 N.ar    1  UNL1       -0.2046
      6 C           3.6194    0.7048   33.9061 C.ar    1  UNL1        0.1716
      7 C           4.3653   -0.5949   33.8402 C.ar    1  UNL1        0.1098
      8 C           5.0752   -0.7887   35.1474 C.ar    1  UNL1        0.1283
      9 N           4.7679    0.3912   36.0211 N.ar    1  UNL1       -0.1619
     10 N           3.8682    1.3142   35.2539 N.ar    1  UNL1       -0.2090
     11 C           3.3144    2.6178   35.7478 C.ar    1  UNL1        0.1182
     12 C           3.6047    3.8866   35.0023 C.ar    1  UNL1        0.0223
     13 C           3.0510    5.1903   35.4962 C.ar    1  UNL1        0.0017
     14 C           2.2069    5.2251   36.7356 C.ar    1  UNL1        0.0032
     15 C           1.9166    3.9563   37.4811 C.ar    1  UNL1        0.0385
     16 C           2.4703    2.6527   36.9872 C.ar    1  UNL1        0.1563
     17 O           2.1799    1.3839   37.7328 O.3     1  UNL1       -0.4699
     18 C           1.4195    1.4306   39.0249 C.3     1  UNL1        0.2525
     19 C           6.4772   -2.7559   32.0784 C.3     1  UNL1        0.2455
     20 C           6.8493   -3.4597   30.8070 C.2     1  UNL1        0.2675
     21 O           7.4872   -2.6949   29.6854 O.2     1  UNL1       -0.2708
     22 N           6.5834   -4.9284   30.6574 N.am    1  UNL1       -0.2664
     23 H           6.1647   -5.4304   31.3936 H       1  UNL1        0.1564
     24 C           6.9554   -5.6322   29.3861 C.ar    1  UNL1        0.1342
     25 C           6.1678   -5.3847   28.1337 C.ar    1  UNL1        0.0342
     26 C           6.5398   -6.0885   26.8624 C.ar    1  UNL1        0.0001
     27 C           7.6994   -7.0399   26.8435 C.ar    1  UNL1       -0.0026
     28 C           8.0714   -7.7437   25.5722 C.3     1  UNL1        0.0327
     29 C           8.4869   -7.2874   28.0959 C.ar    1  UNL1        0.0960
     30 N           8.1149   -6.5836   29.3672 N.ar    1  UNL1       -0.2293
     31 C           7.5345   -2.0743   32.8954 C.3     1  UNL1        0.0852
     32 C           8.4177   -1.0385   32.2652 C.3     1  UNL1        0.1465
     33 C           6.8846    0.9589   31.6245 C.3     1  UNL1        0.1741
     34 O           8.0644    0.4153   32.3745 O.3     1  UNL1       -0.3510
@<TRIPOS>BOND
     1    33    34    1
     2    34    32    1
     3    32    31    1
     4    19    31    1
     5    19     1    1
     6     1     2    1
     7     2     3   ar
     8     3     4   ar
     9     4     5   ar
    10     5     6   ar
    11     6     7   ar
    12     7     8   ar
    13     8     9   ar
    14     9    10   ar
    15    10    11    1
    16    11    12   ar
    17    12    13   ar
    18    13    14   ar
    19    14    15   ar
    20    15    16   ar
    21    16    17    1
    22    17    18    1
    23    19    20    1
    24    20    21    2
    25    20    22   am
    26    22    24    1
    27    24    25   ar
    28    25    26   ar
    29    26    27   ar
    30    27    28    1
    31    27    29   ar
    32    29    30   ar
    33     7     2   ar
    34    16    11   ar
    35    30    24   ar
    36    10     6   ar
    37    22    23    1
