@<TRIPOS>MOLECULE
*****
 31 34 0 0 0
SMALL
GASTEIGER

@<TRIPOS>ATOM
      1 C           0.4347    2.1727   23.6156 C.2     1  UNL1        0.2883
      2 O           0.3725    1.4902   24.9498 O.2     1  UNL1       -0.2664
      3 N           1.1676    1.5279   22.4767 N.am    1  UNL1       -0.2699
      4 C           1.8383    0.2005   22.6721 C.3     1  UNL1        0.1153
      5 C           2.5713   -0.4443   21.5333 C.3     1  UNL1        0.1152
      6 N           2.6335    0.2383   20.1990 N.am    1  UNL1       -0.2726
      7 C           3.3664   -0.4065   19.0601 C.2     1  UNL1        0.2491
      8 O           3.4286    0.2760   17.7259 O.2     1  UNL1       -0.2699
      9 C           1.9628    1.5656   20.0036 C.3     1  UNL1        0.1152
     10 C           1.2299    2.2104   21.1425 C.3     1  UNL1        0.1153
     11 C           4.0372   -1.7340   19.2555 C.ar    1  UNL1        0.0536
     12 C           3.2530   -3.0020   19.0908 C.ar    1  UNL1        0.0045
     13 C           3.9236   -4.3294   19.2862 C.ar    1  UNL1        0.0001
     14 C           5.3785   -4.3887   19.6462 C.ar    1  UNL1        0.0000
     15 C           6.1627   -3.1207   19.8109 C.ar    1  UNL1        0.0001
     16 C           5.4921   -1.7933   19.6156 C.ar    1  UNL1        0.0045
     17 C          -0.2360    3.5001   23.4202 C.2     1  UNL1        0.2500
     18 O           0.5456    4.7683   23.5952 O.2     1  UNL1       -0.2817
     19 C          -5.4304    3.8131   23.9013 C.2     1  UNL1        0.2277
     20 N          -5.4863    3.9003   25.3978 N.2     1  UNL1       -0.2089
     21 C          -4.2181    3.8755   26.1984 C.2     1  UNL1        0.1383
     22 C          -2.8940    3.7635   25.5026 C.2     1  UNL1        0.1563
     23 C          -2.8381    3.6763   24.0062 C.2     1  UNL1        0.0490
     24 C          -1.6884    3.5593   23.0499 C.2     1  UNL1        0.0635
     25 C          -2.2461    3.5118   21.6582 C.2     1  UNL1        0.0972
     26 N          -3.7404    3.5995   21.7544 N.2     1  UNL1       -0.2568
     27 C          -4.1063    3.7011   23.2056 C.3     1  UNL1        0.2039
     28 C          -7.8835    4.6130   23.5964 C.3     1  UNL1        0.2540
     29 O          -6.6986    3.8380   23.1007 O.2     1  UNL1       -0.4576
     30 O          -1.6257    3.7386   26.3032 O.2     1  UNL1       -0.4701
     31 C          -1.0404    5.0191   26.8209 C.3     1  UNL1        0.2525
@<TRIPOS>BOND
     1    28    29    1
     2    29    19    1
     3    19    20    2
     4    20    21    1
     5    21    22    2
     6    22    30    1
     7    30    31    1
     8    22    23    1
     9    23    24    2
    10    24    17    1
    11    17    18    2
    12    17     1    1
    13     1     2    2
    14     1     3   am
    15     3     4    1
    16     4     5    1
    17     5     6    1
    18     6     7   am
    19     7     8    2
    20     7    11    1
    21    11    12   ar
    22    12    13   ar
    23    13    14   ar
    24    14    15   ar
    25    15    16   ar
    26     6     9    1
    27     9    10    1
    28    24    25    1
    29    25    26    2
    30    26    27    1
    31    27    19    1
    32    27    23    1
    33    10     3    1
    34    16    11   ar
@<TRIPOS>MOLECULE
*****
 31 34 0 0 0
SMALL
GASTEIGER

@<TRIPOS>ATOM
      1 C           0.1015    2.6853   21.6510 C.2     1  UNL1        0.2883
      2 O           0.0021    2.4409   23.1276 O.2     1  UNL1       -0.2664
      3 N           0.9430    1.7841   20.7967 N.am    1  UNL1       -0.2699
      4 C           1.6849    0.6385   21.4190 C.3     1  UNL1        0.1153
      5 C           2.5263   -0.2626   20.5646 C.3     1  UNL1        0.1152
      6 N           2.6258   -0.0182   19.0880 N.am    1  UNL1       -0.2726
      7 C           3.4672   -0.9194   18.2336 C.2     1  UNL1        0.2491
      8 O           3.5666   -0.6750   16.7570 O.2     1  UNL1       -0.2699
      9 C           1.8838    1.1273   18.4657 C.3     1  UNL1        0.1152
     10 C           1.0424    2.0285   19.3201 C.3     1  UNL1        0.1153
     11 C           4.2092   -2.0650   18.8559 C.ar    1  UNL1        0.0536
     12 C           5.6329   -1.8873   19.2934 C.ar    1  UNL1        0.0045
     13 C           6.3749   -3.0328   19.9156 C.ar    1  UNL1        0.0001
     14 C           5.6931   -4.3560   20.1003 C.ar    1  UNL1        0.0000
     15 C           4.2694   -4.5338   19.6628 C.ar    1  UNL1        0.0001
     16 C           3.5274   -3.3883   19.0406 C.ar    1  UNL1        0.0045
     17 C          -0.6404    3.8308   21.0288 C.2     1  UNL1        0.2500
     18 O           0.0864    5.0975   20.6861 O.2     1  UNL1       -0.2817
     19 C          -5.1533    3.6571   18.3992 C.2     1  UNL1        0.2277
     20 N          -4.5907    3.8695   17.0250 N.2     1  UNL1       -0.2089
     21 C          -3.1126    4.0437   16.8384 C.2     1  UNL1        0.1383
     22 C          -2.1971    4.0057   18.0260 C.2     1  UNL1        0.1563
     23 C          -2.7597    3.7934   19.4002 C.2     1  UNL1        0.0490
     24 C          -2.1092    3.7098   20.7492 C.2     1  UNL1        0.0635
     25 C          -3.1852    3.4838   21.7696 C.2     1  UNL1        0.0972
     26 N          -4.5008    3.4278   21.0511 N.2     1  UNL1       -0.2568
     27 C          -4.2378    3.6191   19.5868 C.3     1  UNL1        0.2039
     28 C          -7.4952    4.6726   18.8835 C.3     1  UNL1        0.2540
     29 O          -6.6314    3.4829   18.5858 O.2     1  UNL1       -0.4576
     30 O          -0.7190    4.1799   17.8394 O.2     1  UNL1       -0.4701
     31 C          -0.1898    5.3953   17.1372 C.3     1  UNL1        0.2525
@<TRIPOS>BOND
     1    28    29    1
     2    29    19    1
     3    19    20    2
     4    20    21    1
     5    21    22    2
     6    22    30    1
     7    30    31    1
     8    22    23    1
     9    23    24    2
    10    24    17    1
    11    17    18    2
    12    17     1    1
    13     1     2    2
    14     1     3   am
    15     3     4    1
    16     4     5    1
    17     5     6    1
    18     6     7   am
    19     7     8    2
    20     7    11    1
    21    11    12   ar
    22    12    13   ar
    23    13    14   ar
    24    14    15   ar
    25    15    16   ar
    26     6     9    1
    27     9    10    1
    28    24    25    1
    29    25    26    2
    30    26    27    1
    31    27    19    1
    32    27    23    1
    33    10     3    1
    34    16    11   ar
@<TRIPOS>MOLECULE
*****
 31 34 0 0 0
SMALL
GASTEIGER

@<TRIPOS>ATOM
      1 C           5.6161   -3.6386   22.3131 C.2     1  UNL1        0.2883
      2 O           6.6749   -4.5661   22.8313 O.2     1  UNL1       -0.2664
      3 N           4.9445   -2.6725   23.2436 N.am    1  UNL1       -0.2699
      4 C           5.3318   -2.6340   24.6922 C.3     1  UNL1        0.1153
      5 C           4.6602   -1.6679   25.6226 C.3     1  UNL1        0.1152
      6 N           3.6013   -0.7405   25.1044 N.am    1  UNL1       -0.2726
      7 C           2.9297    0.2256   26.0348 C.2     1  UNL1        0.2491
      8 O           1.8709    1.1531   25.5166 O.2     1  UNL1       -0.2699
      9 C           3.2140   -0.7790   23.6558 C.3     1  UNL1        0.1152
     10 C           3.8857   -1.7450   22.7254 C.3     1  UNL1        0.1153
     11 C           3.3170    0.2642   27.4835 C.ar    1  UNL1        0.0536
     12 C           4.4359    1.1542   27.9373 C.ar    1  UNL1        0.0045
     13 C           4.8232    1.1929   29.3859 C.ar    1  UNL1        0.0001
     14 C           4.0916    0.3414   30.3807 C.ar    1  UNL1        0.0000
     15 C           2.9727   -0.5487   29.9269 C.ar    1  UNL1        0.0001
     16 C           2.5854   -0.5873   28.4783 C.ar    1  UNL1        0.0045
     17 C           5.2288   -3.6772   20.8645 C.2     1  UNL1        0.2500
     18 O           4.1157   -4.5736   20.4093 O.2     1  UNL1       -0.2817
     19 C           6.1064   -0.0577   17.1984 C.2     1  UNL1        0.2277
     20 N           4.6963    0.4366   17.0658 N.2     1  UNL1       -0.2089
     21 C           3.6082   -0.1668   17.9035 C.2     1  UNL1        0.1383
     22 C           3.9301   -1.2645   18.8739 C.2     1  UNL1        0.1563
     23 C           5.3401   -1.7587   19.0065 C.2     1  UNL1        0.0490
     24 C           5.9548   -2.8193   19.8710 C.2     1  UNL1        0.0635
     25 C           7.4228   -2.8713   19.5675 C.2     1  UNL1        0.0972
     26 N           7.7154   -1.8429   18.5155 N.2     1  UNL1       -0.2568
     27 C           6.4282   -1.1553   18.1687 C.3     1  UNL1        0.2039
     28 C           8.0262    1.6684   16.9067 C.3     1  UNL1        0.2540
     29 O           7.1945    0.5458   16.3607 O.2     1  UNL1       -0.4576
     30 O           2.8419   -1.8679   19.7116 O.2     1  UNL1       -0.4701
     31 C           1.6328   -1.0553   20.0694 C.3     1  UNL1        0.2525
@<TRIPOS>BOND
     1    28    29    1
     2    29    19    1
     3    19    20    2
     4    20    21    1
     5    21    22    2
     6    22    30    1
     7    30    31    1
     8    22    23    1
     9    23    24    2
    10    24    17    1
    11    17    18    2
    12    17     1    1
    13     1     2    2
    14     1     3   am
    15     3     4    1
    16     4     5    1
    17     5     6    1
    18     6     7   am
    19     7     8    2
    20     7    11    1
    21    11    12   ar
    22    12    13   ar
    23    13    14   ar
    24    14    15   ar
    25    15    16   ar
    26     6     9    1
    27     9    10    1
    28    24    25    1
    29    25    26    2
    30    26    27    1
    31    27    19    1
    32    27    23    1
    33    10     3    1
    34    16    11   ar
@<TRIPOS>MOLECULE
*****
 31 34 0 0 0
SMALL
GASTEIGER

@<TRIPOS>ATOM
      1 C           5.0070   -2.7387   23.0286 C.2     1  UNL1        0.2883
      2 O           4.1402   -1.5450   23.2999 O.2     1  UNL1       -0.2664
      3 N           5.8092   -3.3509   24.1384 N.am    1  UNL1       -0.2699
      4 C           5.7445   -2.7693   25.5196 C.3     1  UNL1        0.1153
      5 C           6.5467   -3.3816   26.6294 C.3     1  UNL1        0.1152
      6 N           7.4135   -4.5753   26.3580 N.am    1  UNL1       -0.2726
      7 C           8.2157   -5.1875   27.4678 C.2     1  UNL1        0.2491
      8 O           9.0825   -6.3812   27.1965 O.2     1  UNL1       -0.2699
      9 C           7.4782   -5.1569   24.9769 C.3     1  UNL1        0.1152
     10 C           6.6759   -4.5446   23.8671 C.3     1  UNL1        0.1153
     11 C           8.1512   -4.6060   28.8490 C.ar    1  UNL1        0.0536
     12 C           7.0847   -5.0559   29.8031 C.ar    1  UNL1        0.0045
     13 C           7.0201   -4.4744   31.1843 C.ar    1  UNL1        0.0001
     14 C           8.0220   -3.4430   31.6113 C.ar    1  UNL1        0.0000
     15 C           9.0884   -2.9931   30.6573 C.ar    1  UNL1        0.0001
     16 C           9.1530   -3.5745   29.2761 C.ar    1  UNL1        0.0045
     17 C           5.0715   -3.3202   21.6474 C.2     1  UNL1        0.2500
     18 O           4.3771   -4.6151   21.3456 O.2     1  UNL1       -0.2817
     19 C           6.0791   -0.2121   17.5687 C.2     1  UNL1        0.2277
     20 N           4.6803    0.2811   17.3446 N.2     1  UNL1       -0.2089
     21 C           3.5665   -0.1947   18.2294 C.2     1  UNL1        0.1383
     22 C           3.8514   -1.1637   19.3385 C.2     1  UNL1        0.1563
     23 C           5.2502   -1.6569   19.5626 C.2     1  UNL1        0.0490
     24 C           5.8305   -2.6068   20.5680 C.2     1  UNL1        0.0635
     25 C           7.3030   -2.7181   20.3045 C.2     1  UNL1        0.0972
     26 N           7.6327   -1.8370   19.1363 N.2     1  UNL1       -0.2568
     27 C           6.3640   -1.1811   18.6777 C.3     1  UNL1        0.2039
     28 C           7.9826    1.4819   17.0615 C.3     1  UNL1        0.2540
     29 O           7.1929    0.2637   16.6839 O.2     1  UNL1       -0.4576
     30 O           2.7376   -1.6395   20.2233 O.2     1  UNL1       -0.4701
     31 C           1.4446   -0.8809   20.2750 C.3     1  UNL1        0.2525
@<TRIPOS>BOND
     1    28    29    1
     2    29    19    1
     3    19    20    2
     4    20    21    1
     5    21    22    2
     6    22    30    1
     7    30    31    1
     8    22    23    1
     9    23    24    2
    10    24    17    1
    11    17    18    2
    12    17     1    1
    13     1     2    2
    14     1     3   am
    15     3     4    1
    16     4     5    1
    17     5     6    1
    18     6     7   am
    19     7     8    2
    20     7    11    1
    21    11    12   ar
    22    12    13   ar
    23    13    14   ar
    24    14    15   ar
    25    15    16   ar
    26     6     9    1
    27     9    10    1
    28    24    25    1
    29    25    26    2
    30    26    27    1
    31    27    19    1
    32    27    23    1
    33    10     3    1
    34    16    11   ar
@<TRIPOS>MOLECULE
*****
 31 34 0 0 0
SMALL
GASTEIGER

@<TRIPOS>ATOM
      1 C           6.4325   -2.7075   24.2056 C.2     1  UNL1        0.2883
      2 O           6.3793   -1.2401   23.8994 O.2     1  UNL1       -0.2664
      3 N           6.5975   -3.1725   25.6222 N.am    1  UNL1       -0.2699
      4 C           6.7093   -2.1701   26.7324 C.3     1  UNL1        0.1153
      5 C           6.8742   -2.6352   28.1489 C.3     1  UNL1        0.1152
      6 N           6.9274   -4.1026   28.4551 N.am    1  UNL1       -0.2726
      7 C           7.0924   -4.5677   29.8716 C.2     1  UNL1        0.2491
      8 O           7.1456   -6.0351   30.1779 O.2     1  UNL1       -0.2699
      9 C           6.8157   -5.1050   27.3449 C.3     1  UNL1        0.1152
     10 C           6.6507   -4.6400   25.9284 C.3     1  UNL1        0.1153
     11 C           7.2042   -3.5653   30.9820 C.ar    1  UNL1        0.0536
     12 C           8.5555   -3.1285   31.4649 C.ar    1  UNL1        0.0045
     13 C           8.6673   -2.1262   32.5751 C.ar    1  UNL1        0.0001
     14 C           7.4278   -1.5606   33.2025 C.ar    1  UNL1        0.0000
     15 C           6.0765   -1.9973   32.7196 C.ar    1  UNL1        0.0001
     16 C           5.9646   -2.9997   31.6093 C.ar    1  UNL1        0.0045
     17 C           6.3207   -3.7099   23.0953 C.2     1  UNL1        0.2500
     18 O           6.9134   -5.0782   23.2577 O.2     1  UNL1       -0.2817
     19 C           5.5550   -2.1916   18.1537 C.2     1  UNL1        0.2277
     20 N           6.9951   -2.0024   17.7787 N.2     1  UNL1       -0.2089
     21 C           8.0736   -2.2667   18.7870 C.2     1  UNL1        0.1383
     22 C           7.7122   -2.7202   20.1705 C.2     1  UNL1        0.1563
     23 C           6.2722   -2.9093   20.5454 C.2     1  UNL1        0.0490
     24 C           5.6163   -3.3439   21.8226 C.2     1  UNL1        0.0635
     25 C           4.1324   -3.3482   21.6035 C.2     1  UNL1        0.0972
     26 N           3.8712   -2.9163   20.1910 N.2     1  UNL1       -0.2568
     27 C           5.1936   -2.6451   19.5371 C.3     1  UNL1        0.2039
     28 C           3.6924   -0.6498   17.2031 C.3     1  UNL1        0.2540
     29 O           4.4764   -1.9273   17.1453 O.2     1  UNL1       -0.4576
     30 O           8.7907   -2.9844   21.1788 O.2     1  UNL1       -0.4701
     31 C           9.5322   -4.2883   21.1597 C.3     1  UNL1        0.2525
@<TRIPOS>BOND
     1    28    29    1
     2    29    19    1
     3    19    20    2
     4    20    21    1
     5    21    22    2
     6    22    30    1
     7    30    31    1
     8    22    23    1
     9    23    24    2
    10    24    17    1
    11    17    18    2
    12    17     1    1
    13     1     2    2
    14     1     3   am
    15     3     4    1
    16     4     5    1
    17     5     6    1
    18     6     7   am
    19     7     8    2
    20     7    11    1
    21    11    12   ar
    22    12    13   ar
    23    13    14   ar
    24    14    15   ar
    25    15    16   ar
    26     6     9    1
    27     9    10    1
    28    24    25    1
    29    25    26    2
    30    26    27    1
    31    27    19    1
    32    27    23    1
    33    10     3    1
    34    16    11   ar
@<TRIPOS>MOLECULE
*****
 31 34 0 0 0
SMALL
GASTEIGER

@<TRIPOS>ATOM
      1 C           1.6936    0.7181   21.4278 C.2     1  UNL1        0.2883
      2 O           0.7566    1.8880   21.3702 O.2     1  UNL1       -0.2664
      3 N           2.2865    0.2960   22.7394 N.am    1  UNL1       -0.2699
      4 C           1.9424    1.0437   23.9933 C.3     1  UNL1        0.1153
      5 C           2.5354    0.6215   25.3049 C.3     1  UNL1        0.1152
      6 N           3.4724   -0.5484   25.3624 N.am    1  UNL1       -0.2726
      7 C           4.0653   -0.9707   26.6740 C.2     1  UNL1        0.2491
      8 O           5.0023   -2.1405   26.7316 O.2     1  UNL1       -0.2699
      9 C           3.8165   -1.2962   24.1085 C.3     1  UNL1        0.1152
     10 C           3.2235   -0.8740   22.7969 C.3     1  UNL1        0.1153
     11 C           3.7212   -0.2229   27.9280 C.ar    1  UNL1        0.0536
     12 C           4.5563    0.9470   28.3567 C.ar    1  UNL1        0.0045
     13 C           4.2123    1.6948   29.6107 C.ar    1  UNL1        0.0001
     14 C           3.0331    1.2725   30.4360 C.ar    1  UNL1        0.0000
     15 C           2.1980    0.1025   30.0073 C.ar    1  UNL1        0.0001
     16 C           2.5420   -0.6452   28.7534 C.ar    1  UNL1        0.0045
     17 C           2.0377   -0.0296   20.1737 C.2     1  UNL1        0.2500
     18 O           1.2507   -1.2463   19.7862 O.2     1  UNL1       -0.2817
     19 C           6.3953   -0.1203   17.2904 C.2     1  UNL1        0.2277
     20 N           6.7003   -1.5816   17.4374 N.2     1  UNL1       -0.2089
     21 C           5.7953   -2.4585   18.2510 C.2     1  UNL1        0.1383
     22 C           4.5852   -1.8741   18.9176 C.2     1  UNL1        0.1563
     23 C           4.2802   -0.4128   18.7706 C.2     1  UNL1        0.0490
     24 C           3.1687    0.4395   19.3073 C.2     1  UNL1        0.0635
     25 C           3.3867    1.8431   18.8254 C.2     1  UNL1        0.0972
     26 N           4.6331    1.8583   17.9909 N.2     1  UNL1       -0.2568
     27 C           5.1853    0.4641   17.9570 C.3     1  UNL1        0.2039
     28 C           8.2882    1.6547   17.1608 C.3     1  UNL1        0.2540
     29 O           7.3003    0.7567   16.4768 O.2     1  UNL1       -0.4576
     30 O           3.6802   -2.7510   19.7312 O.2     1  UNL1       -0.4701
     31 C           3.3405   -4.1304   19.2494 C.3     1  UNL1        0.2525
@<TRIPOS>BOND
     1    28    29    1
     2    29    19    1
     3    19    20    2
     4    20    21    1
     5    21    22    2
     6    22    30    1
     7    30    31    1
     8    22    23    1
     9    23    24    2
    10    24    17    1
    11    17    18    2
    12    17     1    1
    13     1     2    2
    14     1     3   am
    15     3     4    1
    16     4     5    1
    17     5     6    1
    18     6     7   am
    19     7     8    2
    20     7    11    1
    21    11    12   ar
    22    12    13   ar
    23    13    14   ar
    24    14    15   ar
    25    15    16   ar
    26     6     9    1
    27     9    10    1
    28    24    25    1
    29    25    26    2
    30    26    27    1
    31    27    19    1
    32    27    23    1
    33    10     3    1
    34    16    11   ar
@<TRIPOS>MOLECULE
*****
 31 34 0 0 0
SMALL
GASTEIGER

@<TRIPOS>ATOM
      1 C           0.4607    2.3247   23.2646 C.2     1  UNL1        0.2883
      2 O           0.5526    1.8382   24.6805 O.2     1  UNL1       -0.2664
      3 N           1.1485    1.5695   22.1661 N.am    1  UNL1       -0.2699
      4 C           1.9281    0.3279   22.4836 C.3     1  UNL1        0.1153
      5 C           2.6158   -0.4272   21.3850 C.3     1  UNL1        0.1152
      6 N           2.5240    0.0593   19.9691 N.am    1  UNL1       -0.2726
      7 C           3.2118   -0.6959   18.8705 C.2     1  UNL1        0.2491
      8 O           3.1200   -0.2095   17.4546 O.2     1  UNL1       -0.2699
      9 C           1.7445    1.3008   19.6516 C.3     1  UNL1        0.1152
     10 C           1.0567    2.0559   20.7501 C.3     1  UNL1        0.1153
     11 C           3.9914   -1.9375   19.1880 C.ar    1  UNL1        0.0536
     12 C           3.3132   -3.2752   19.1655 C.ar    1  UNL1        0.0045
     13 C           4.0927   -4.5168   19.4829 C.ar    1  UNL1        0.0001
     14 C           5.5505   -4.4206   19.8228 C.ar    1  UNL1        0.0000
     15 C           6.2287   -3.0829   19.8453 C.ar    1  UNL1        0.0001
     16 C           5.4492   -1.8413   19.5279 C.ar    1  UNL1        0.0045
     17 C          -0.3188    3.5662   22.9472 C.2     1  UNL1        0.2500
     18 O           0.3764    4.7589   22.3606 O.2     1  UNL1       -0.2817
     19 C          -5.4746    3.7104   22.1054 C.2     1  UNL1        0.2277
     20 N          -5.4317    3.6867   20.6061 N.2     1  UNL1       -0.2089
     21 C          -4.1124    3.6360   19.8942 C.2     1  UNL1        0.1383
     22 C          -2.8359    3.6089   20.6816 C.2     1  UNL1        0.1563
     23 C          -2.8788    3.6326   22.1808 C.2     1  UNL1        0.0490
     24 C          -1.7937    3.6151   23.2163 C.2     1  UNL1        0.0635
     25 C          -2.4424    3.6550   24.5682 C.2     1  UNL1        0.0972
     26 N          -3.9284    3.6972   24.3681 N.2     1  UNL1       -0.2568
     27 C          -4.1981    3.6834   22.8926 C.3     1  UNL1        0.2039
     28 C          -7.3805    5.0829   23.2162 C.3     1  UNL1        0.2540
     29 O          -6.7939    3.7612   22.8173 O.2     1  UNL1       -0.4576
     30 O          -1.5166    3.5582   19.9697 O.2     1  UNL1       -0.4701
     31 C          -1.4304    3.9406   18.5218 C.3     1  UNL1        0.2525
@<TRIPOS>BOND
     1    28    29    1
     2    29    19    1
     3    19    20    2
     4    20    21    1
     5    21    22    2
     6    22    30    1
     7    30    31    1
     8    22    23    1
     9    23    24    2
    10    24    17    1
    11    17    18    2
    12    17     1    1
    13     1     2    2
    14     1     3   am
    15     3     4    1
    16     4     5    1
    17     5     6    1
    18     6     7   am
    19     7     8    2
    20     7    11    1
    21    11    12   ar
    22    12    13   ar
    23    13    14   ar
    24    14    15   ar
    25    15    16   ar
    26     6     9    1
    27     9    10    1
    28    24    25    1
    29    25    26    2
    30    26    27    1
    31    27    19    1
    32    27    23    1
    33    10     3    1
    34    16    11   ar
@<TRIPOS>MOLECULE
*****
 31 34 0 0 0
SMALL
GASTEIGER

@<TRIPOS>ATOM
      1 C          -0.3451    3.1934   18.9905 C.2     1  UNL1        0.2883
      2 O          -0.6039    3.2861   17.5159 O.2     1  UNL1       -0.2664
      3 N           0.5452    2.1131   19.5293 N.am    1  UNL1       -0.2699
      4 C           1.1767    1.1255   18.5934 C.3     1  UNL1        0.1153
      5 C           2.0670    0.0452   19.1323 C.3     1  UNL1        0.1152
      6 N           2.3257   -0.0475   20.6069 N.am    1  UNL1       -0.2726
      7 C           3.2160   -1.1278   21.1457 C.2     1  UNL1        0.2491
      8 O           3.4747   -1.2206   22.6202 O.2     1  UNL1       -0.2699
      9 C           1.6942    0.9401   21.5427 C.3     1  UNL1        0.1152
     10 C           0.8039    2.0204   21.0039 C.3     1  UNL1        0.1153
     11 C           3.8476   -2.1155   20.2098 C.ar    1  UNL1        0.0536
     12 C           3.1610   -3.4167   19.9176 C.ar    1  UNL1        0.0045
     13 C           3.7925   -4.4044   18.9819 C.ar    1  UNL1        0.0001
     14 C           5.1107   -4.0908   18.3383 C.ar    1  UNL1        0.0000
     15 C           5.7972   -2.7895   18.6305 C.ar    1  UNL1        0.0001
     16 C           5.1657   -1.8019   19.5663 C.ar    1  UNL1        0.0045
     17 C          -0.9767    4.1811   19.9263 C.2     1  UNL1        0.2500
     18 O          -0.1541    5.2890   20.5143 O.2     1  UNL1       -0.2817
     19 C          -5.3331    3.6702   22.7674 C.2     1  UNL1        0.2277
     20 N          -4.6826    3.5983   24.1171 N.2     1  UNL1       -0.2089
     21 C          -3.1897    3.6821   24.2356 C.2     1  UNL1        0.1383
     22 C          -2.3472    3.8378   23.0043 C.2     1  UNL1        0.1563
     23 C          -2.9976    3.9098   21.6546 C.2     1  UNL1        0.0490
     24 C          -2.4309    4.0607   20.2741 C.2     1  UNL1        0.0635
     25 C          -3.5735    4.0702   19.3023 C.2     1  UNL1        0.0972
     26 N          -4.8465    3.9251   20.0824 N.2     1  UNL1       -0.2568
     27 C          -4.4906    3.8260   21.5362 C.3     1  UNL1        0.2039
     28 C          -7.6950    4.5100   23.4502 C.3     1  UNL1        0.2540
     29 O          -6.8261    3.5864   22.6489 O.2     1  UNL1       -0.4576
     30 O          -0.8542    3.9216   23.1228 O.2     1  UNL1       -0.4701
     31 C          -0.1965    3.7407   24.4588 C.3     1  UNL1        0.2525
@<TRIPOS>BOND
     1    28    29    1
     2    29    19    1
     3    19    20    2
     4    20    21    1
     5    21    22    2
     6    22    30    1
     7    30    31    1
     8    22    23    1
     9    23    24    2
    10    24    17    1
    11    17    18    2
    12    17     1    1
    13     1     2    2
    14     1     3   am
    15     3     4    1
    16     4     5    1
    17     5     6    1
    18     6     7   am
    19     7     8    2
    20     7    11    1
    21    11    12   ar
    22    12    13   ar
    23    13    14   ar
    24    14    15   ar
    25    15    16   ar
    26     6     9    1
    27     9    10    1
    28    24    25    1
    29    25    26    2
    30    26    27    1
    31    27    19    1
    32    27    23    1
    33    10     3    1
    34    16    11   ar
@<TRIPOS>MOLECULE
*****
 31 34 0 0 0
SMALL
GASTEIGER

@<TRIPOS>ATOM
      1 C           2.0675    0.9203   30.4291 C.2     1  UNL1        0.2883
      2 O           1.6914   -0.5316   30.4077 O.2     1  UNL1       -0.2664
      3 N           1.3119    1.9032   29.5846 N.am    1  UNL1       -0.2699
      4 C           0.1804    1.4341   28.7188 C.3     1  UNL1        0.1153
      5 C          -0.5751    2.4170   27.8744 C.3     1  UNL1        0.1152
      6 N          -0.1990    3.8690   27.8958 N.am    1  UNL1       -0.2726
      7 C          -0.9545    4.8519   27.0513 C.2     1  UNL1        0.2491
      8 O          -0.5786    6.3038   27.0727 O.2     1  UNL1       -0.2699
      9 C           0.9324    4.3381   28.7616 C.3     1  UNL1        0.1152
     10 C           1.6879    3.3551   29.6060 C.3     1  UNL1        0.1153
     11 C          -2.0861    4.3829   26.1854 C.ar    1  UNL1        0.0536
     12 C          -3.4834    4.3504   26.7298 C.ar    1  UNL1        0.0045
     13 C          -4.6150    3.8814   25.8640 C.ar    1  UNL1        0.0001
     14 C          -4.3491    3.4448   24.4538 C.ar    1  UNL1        0.0000
     15 C          -2.9518    3.4773   23.9094 C.ar    1  UNL1        0.0001
     16 C          -1.8202    3.9463   24.7752 C.ar    1  UNL1        0.0045
     17 C           3.1990    1.3893   31.2950 C.2     1  UNL1        0.2500
     18 O           4.5746    1.5384   30.7158 O.2     1  UNL1       -0.2817
     19 C           3.5734    1.2246   36.5049 C.2     1  UNL1        0.2277
     20 N           4.6077    0.1419   36.5956 N.2     1  UNL1       -0.2089
     21 C           5.1506   -0.4833   35.3448 C.2     1  UNL1        0.1383
     22 C           4.6591   -0.0258   34.0034 C.2     1  UNL1        0.1563
     23 C           3.6249    1.0568   33.9128 C.2     1  UNL1        0.0490
     24 C           2.9548    1.7092   32.7400 C.2     1  UNL1        0.0635
     25 C           1.9979    2.7376   33.2659 C.2     1  UNL1        0.0972
     26 N           2.0765    2.7208   34.7637 N.2     1  UNL1       -0.2568
     27 C           3.0820    1.6820   35.1636 C.3     1  UNL1        0.2039
     28 C           2.1281    1.0611   38.6577 C.3     1  UNL1        0.2540
     29 O           3.0305    1.8498   37.7557 O.2     1  UNL1       -0.4576
     30 O           5.2020   -0.6511   32.7526 O.2     1  UNL1       -0.4701
     31 C           4.6109   -1.9291   32.2355 C.3     1  UNL1        0.2525
@<TRIPOS>BOND
     1    28    29    1
     2    29    19    1
     3    19    20    2
     4    20    21    1
     5    21    22    2
     6    22    30    1
     7    30    31    1
     8    22    23    1
     9    23    24    2
    10    24    17    1
    11    17    18    2
    12    17     1    1
    13     1     2    2
    14     1     3   am
    15     3     4    1
    16     4     5    1
    17     5     6    1
    18     6     7   am
    19     7     8    2
    20     7    11    1
    21    11    12   ar
    22    12    13   ar
    23    13    14   ar
    24    14    15   ar
    25    15    16   ar
    26     6     9    1
    27     9    10    1
    28    24    25    1
    29    25    26    2
    30    26    27    1
    31    27    19    1
    32    27    23    1
    33    10     3    1
    34    16    11   ar
