@<TRIPOS>MOLECULE
*****
 25 27 0 0 0
SMALL
GASTEIGER

@<TRIPOS>ATOM
      1 C          -8.0606  -18.4125   22.5963 C.2     1  UNL1       -0.0245
      2 C          -7.5224  -17.2174   23.3256 C.2     1  UNL1       -0.0421
      3 C          -6.0395  -17.1691   23.1053 C.3     1  UNL1        0.0481
      4 C          -5.6612  -18.3343   22.2398 C.ar    1  UNL1       -0.0162
      5 C          -4.3407  -18.7949   21.6975 C.ar    1  UNL1        0.0257
      6 C          -4.2694  -20.0239   20.8406 C.ar    1  UNL1        0.1398
      7 F          -2.9488  -20.4845   20.2982 F       1  UNL1       -0.2042
      8 C          -5.5185  -20.7924   20.5260 C.ar    1  UNL1        0.0296
      9 C          -6.8390  -20.3319   21.0683 C.ar    1  UNL1        0.0017
     10 C          -6.9104  -19.1028   21.9252 C.ar    1  UNL1       -0.0077
     11 C          -9.4970  -18.8420   22.5467 C.3     1  UNL1        0.0666
     12 C          -9.9086  -20.1541   23.1459 C.3     1  UNL1        0.0112
     13 C         -10.5639  -17.8318   20.4040 C.ar    1  UNL1        0.2393
     14 N         -11.5887  -16.9492   19.7553 N.ar    1  UNL1       -0.2075
     15 C         -12.5714  -16.1943   20.6005 C.ar    1  UNL1        0.1227
     16 C         -12.5293  -16.3219   22.0945 C.ar    1  UNL1        0.1193
     17 N         -11.5045  -17.2045   22.7432 N.ar    1  UNL1       -0.2415
     18 C         -10.5217  -17.9595   21.8980 C.ar    1  UNL1        0.1156
     19 C          -9.9010  -19.9781   19.0987 C.3     1  UNL1        0.2543
     20 O          -9.5812  -18.5866   19.5587 O.3     1  UNL1       -0.4553
     21 C          -8.3260  -16.2419   24.1335 C.3     1  UNL1        0.0394
     22 C          -7.6386  -15.1238   24.8597 C.3     1  UNL1        0.0765
     23 N          -6.8625  -15.4079   26.1115 N.3     1  UNL1       -0.2700
     24 C          -7.5729  -15.8919   27.3408 C.3     1  UNL1        0.0897
     25 C          -5.3761  -15.2079   26.1340 C.3     1  UNL1        0.0897
@<TRIPOS>BOND
     1    19    20    1
     2    20    13    1
     3    13    14   ar
     4    14    15   ar
     5    15    16   ar
     6    16    17   ar
     7    17    18   ar
     8    18    11    1
     9    11    12    1
    10    11     1    1
    11     1     2    2
    12     2    21    1
    13    21    22    1
    14    22    23    1
    15    23    24    1
    16    23    25    1
    17     2     3    1
    18     3     4    1
    19     4     5   ar
    20     5     6   ar
    21     6     7    1
    22     6     8   ar
    23     8     9   ar
    24     9    10   ar
    25    18    13   ar
    26    10     1    1
    27    10     4   ar
@<TRIPOS>MOLECULE
*****
 25 27 0 0 0
SMALL
GASTEIGER

@<TRIPOS>ATOM
      1 C          -7.7471  -17.9565   22.1663 C.2     1  UNL1       -0.0245
      2 C          -8.4627  -18.9909   21.3490 C.2     1  UNL1       -0.0421
      3 C          -7.4453  -19.9754   20.8536 C.3     1  UNL1        0.0481
      4 C          -6.1009  -19.5495   21.3646 C.ar    1  UNL1       -0.0162
      5 C          -4.7309  -20.1367   21.1960 C.ar    1  UNL1        0.0257
      6 C          -3.5475  -19.4761   21.8387 C.ar    1  UNL1        0.1398
      7 F          -2.1775  -20.0633   21.6701 F       1  UNL1       -0.2042
      8 C          -3.7341  -18.2283   22.6500 C.ar    1  UNL1        0.0296
      9 C          -5.1040  -17.6411   22.8186 C.ar    1  UNL1        0.0017
     10 C          -6.2874  -18.3017   22.1759 C.ar    1  UNL1       -0.0077
     11 C          -8.3800  -16.7829   22.8533 C.3     1  UNL1        0.0666
     12 C          -9.0636  -15.7199   22.0452 C.3     1  UNL1        0.0112
     13 C          -9.2453  -17.5068   25.1937 C.ar    1  UNL1        0.2393
     14 N          -9.1947  -17.3960   26.6887 N.ar    1  UNL1       -0.2075
     15 C          -8.2283  -16.4506   27.3384 C.ar    1  UNL1        0.1227
     16 C          -7.3125  -15.6158   26.4931 C.ar    1  UNL1        0.1193
     17 N          -7.3631  -15.7266   24.9981 N.ar    1  UNL1       -0.2415
     18 C          -8.3295  -16.6721   24.3483 C.ar    1  UNL1        0.1156
     19 C         -10.0809  -19.9297   24.7679 C.3     1  UNL1        0.2543
     20 O         -10.2117  -18.4523   24.5440 O.3     1  UNL1       -0.4553
     21 C          -9.9369  -19.0333   21.0753 C.3     1  UNL1        0.0394
     22 C         -10.5193  -18.1998   19.9726 C.3     1  UNL1        0.0765
     23 N         -11.6530  -17.2608   20.2609 N.3     1  UNL1       -0.2700
     24 C         -12.6689  -17.6106   21.3077 C.3     1  UNL1        0.0897
     25 C         -11.7708  -15.9721   19.5024 C.3     1  UNL1        0.0897
@<TRIPOS>BOND
     1    19    20    1
     2    20    13    1
     3    13    14   ar
     4    14    15   ar
     5    15    16   ar
     6    16    17   ar
     7    17    18   ar
     8    18    11    1
     9    11    12    1
    10    11     1    1
    11     1     2    2
    12     2    21    1
    13    21    22    1
    14    22    23    1
    15    23    24    1
    16    23    25    1
    17     2     3    1
    18     3     4    1
    19     4     5   ar
    20     5     6   ar
    21     6     7    1
    22     6     8   ar
    23     8     9   ar
    24     9    10   ar
    25    18    13   ar
    26    10     1    1
    27    10     4   ar
@<TRIPOS>MOLECULE
*****
 25 27 0 0 0
SMALL
GASTEIGER

@<TRIPOS>ATOM
      1 C          -7.3060  -18.4278   21.8413 C.2     1  UNL1       -0.0245
      2 C          -7.0519  -17.4042   22.9078 C.2     1  UNL1       -0.0421
      3 C          -5.5782  -17.3808   23.1862 C.3     1  UNL1        0.0481
      4 C          -4.9214  -18.3901   22.2917 C.ar    1  UNL1       -0.0162
      5 C          -3.4890  -18.8034   22.1267 C.ar    1  UNL1        0.0257
      6 C          -3.1245  -19.8638   21.1304 C.ar    1  UNL1        0.1398
      7 F          -1.6920  -20.2773   20.9654 F       1  UNL1       -0.2042
      8 C          -4.1924  -20.5109   20.2992 C.ar    1  UNL1        0.0296
      9 C          -5.6248  -20.0976   20.4642 C.ar    1  UNL1        0.0017
     10 C          -5.9893  -19.0371   21.4605 C.ar    1  UNL1       -0.0077
     11 C          -8.6422  -18.7803   21.2579 C.3     1  UNL1        0.0666
     12 C          -8.7277  -19.3685   19.8806 C.3     1  UNL1        0.0112
     13 C         -10.8329  -17.4429   21.6609 C.ar    1  UNL1        0.2393
     14 N         -12.0836  -17.2074   22.4547 N.ar    1  UNL1       -0.2075
     15 C         -12.3944  -18.0734   23.6393 C.ar    1  UNL1        0.1227
     16 C         -11.4545  -19.1752   24.0301 C.ar    1  UNL1        0.1193
     17 N         -10.2038  -19.4108   23.2363 N.ar    1  UNL1       -0.2415
     18 C          -9.8929  -18.5447   22.0517 C.ar    1  UNL1        0.1156
     19 C         -11.6372  -15.9573   19.6871 C.3     1  UNL1        0.2543
     20 O         -10.5221  -16.5768   20.4763 O.3     1  UNL1       -0.4553
     21 C          -8.0894  -16.5532   23.5783 C.3     1  UNL1        0.0394
     22 C          -7.6768  -15.3309   24.3435 C.3     1  UNL1        0.0765
     23 N          -7.2187  -15.4559   25.7664 N.3     1  UNL1       -0.2700
     24 C          -5.7784  -15.2212   26.1139 C.3     1  UNL1        0.0897
     25 C          -8.2007  -15.8156   26.8416 C.3     1  UNL1        0.0897
@<TRIPOS>BOND
     1    19    20    1
     2    20    13    1
     3    13    14   ar
     4    14    15   ar
     5    15    16   ar
     6    16    17   ar
     7    17    18   ar
     8    18    11    1
     9    11    12    1
    10    11     1    1
    11     1     2    2
    12     2    21    1
    13    21    22    1
    14    22    23    1
    15    23    24    1
    16    23    25    1
    17     2     3    1
    18     3     4    1
    19     4     5   ar
    20     5     6   ar
    21     6     7    1
    22     6     8   ar
    23     8     9   ar
    24     9    10   ar
    25    18    13   ar
    26    10     1    1
    27    10     4   ar
@<TRIPOS>MOLECULE
*****
 25 27 0 0 0
SMALL
GASTEIGER

@<TRIPOS>ATOM
      1 C          -7.3889  -18.4277   21.6641 C.2     1  UNL1       -0.0245
      2 C          -7.1920  -17.5136   22.8369 C.2     1  UNL1       -0.0421
      3 C          -5.7416  -17.5538   23.2174 C.3     1  UNL1        0.0481
      4 C          -5.0422  -18.4927   22.2797 C.ar    1  UNL1       -0.0162
      5 C          -3.6098  -18.9256   22.1760 C.ar    1  UNL1        0.0257
      6 C          -3.1955  -19.8987   21.1123 C.ar    1  UNL1        0.1398
      7 F          -1.7631  -20.3316   21.0086 F       1  UNL1       -0.2042
      8 C          -4.2137  -20.4388   20.1523 C.ar    1  UNL1        0.0296
      9 C          -5.6461  -20.0059   20.2560 C.ar    1  UNL1        0.0017
     10 C          -6.0603  -19.0329   21.3197 C.ar    1  UNL1       -0.0077
     11 C          -8.6867  -18.6906   20.9593 C.3     1  UNL1        0.0666
     12 C          -8.7107  -19.5430   19.7252 C.3     1  UNL1        0.0112
     13 C         -10.7885  -18.8686   22.4761 C.ar    1  UNL1        0.2393
     14 N         -12.0623  -18.2790   23.0052 N.ar    1  UNL1       -0.2075
     15 C         -12.5080  -16.9222   22.5468 C.ar    1  UNL1        0.1227
     16 C         -11.6799  -16.1547   21.5592 C.ar    1  UNL1        0.1193
     17 N         -10.4061  -16.7442   21.0301 N.ar    1  UNL1       -0.2415
     18 C          -9.9604  -18.1012   21.4885 C.ar    1  UNL1        0.1156
     19 C          -9.5859  -20.3713   24.2212 C.3     1  UNL1        0.2543
     20 O         -10.3429  -20.2255   22.9345 O.3     1  UNL1       -0.4553
     21 C          -8.2582  -16.7019   23.5109 C.3     1  UNL1        0.0394
     22 C          -7.8888  -15.4645   24.2740 C.3     1  UNL1        0.0765
     23 N          -7.3389  -15.5773   25.6651 N.3     1  UNL1       -0.2700
     24 C          -5.9147  -15.1962   25.9417 C.3     1  UNL1        0.0897
     25 C          -8.2132  -16.0711   26.7794 C.3     1  UNL1        0.0897
@<TRIPOS>BOND
     1    19    20    1
     2    20    13    1
     3    13    14   ar
     4    14    15   ar
     5    15    16   ar
     6    16    17   ar
     7    17    18   ar
     8    18    11    1
     9    11    12    1
    10    11     1    1
    11     1     2    2
    12     2    21    1
    13    21    22    1
    14    22    23    1
    15    23    24    1
    16    23    25    1
    17     2     3    1
    18     3     4    1
    19     4     5   ar
    20     5     6   ar
    21     6     7    1
    22     6     8   ar
    23     8     9   ar
    24     9    10   ar
    25    18    13   ar
    26    10     1    1
    27    10     4   ar
@<TRIPOS>MOLECULE
*****
 25 27 0 0 0
SMALL
GASTEIGER

@<TRIPOS>ATOM
      1 C          -8.1075  -17.8094   23.1553 C.2     1  UNL1       -0.0245
      2 C          -6.8083  -17.8709   22.4081 C.2     1  UNL1       -0.0421
      3 C          -5.8039  -17.0454   23.1562 C.3     1  UNL1        0.0481
      4 C          -6.4823  -16.4737   24.3657 C.ar    1  UNL1       -0.0162
      5 C          -5.9876  -15.5841   25.4674 C.ar    1  UNL1        0.0257
      6 C          -6.9166  -15.1667   26.5686 C.ar    1  UNL1        0.1398
      7 F          -6.4219  -14.2771   27.6704 F       1  UNL1       -0.2042
      8 C          -8.3403  -15.6388   26.5681 C.ar    1  UNL1        0.0296
      9 C          -8.8351  -16.5284   25.4663 C.ar    1  UNL1        0.0017
     10 C          -7.9061  -16.9458   24.3651 C.ar    1  UNL1       -0.0077
     11 C          -9.3841  -18.4916   22.7618 C.3     1  UNL1        0.0666
     12 C          -9.5711  -19.9531   23.0431 C.3     1  UNL1        0.0112
     13 C         -10.5668  -17.6951   20.5899 C.ar    1  UNL1        0.2393
     14 N         -11.6565  -16.9159   19.9151 N.ar    1  UNL1       -0.2075
     15 C         -12.6532  -16.1540   20.7373 C.ar    1  UNL1        0.1227
     16 C         -12.5603  -16.1712   22.2343 C.ar    1  UNL1        0.1193
     17 N         -11.4706  -16.9504   22.9091 N.ar    1  UNL1       -0.2415
     18 C         -10.4738  -17.7124   22.0869 C.ar    1  UNL1        0.1156
     19 C          -9.8940  -19.8416   19.2899 C.3     1  UNL1        0.2543
     20 O          -9.5701  -18.4571   19.7677 O.3     1  UNL1       -0.4553
     21 C          -6.5576  -18.6255   21.1362 C.3     1  UNL1        0.0394
     22 C          -5.5480  -19.7346   21.1087 C.3     1  UNL1        0.0765
     23 N          -4.1018  -19.4262   20.8575 N.3     1  UNL1       -0.2700
     24 C          -3.6362  -19.0907   19.4715 C.3     1  UNL1        0.0897
     25 C          -3.1210  -19.4532   21.9921 C.3     1  UNL1        0.0897
@<TRIPOS>BOND
     1    19    20    1
     2    20    13    1
     3    13    14   ar
     4    14    15   ar
     5    15    16   ar
     6    16    17   ar
     7    17    18   ar
     8    18    11    1
     9    11    12    1
    10    11     1    1
    11     1     2    2
    12     2    21    1
    13    21    22    1
    14    22    23    1
    15    23    24    1
    16    23    25    1
    17     2     3    1
    18     3     4    1
    19     4     5   ar
    20     5     6   ar
    21     6     7    1
    22     6     8   ar
    23     8     9   ar
    24     9    10   ar
    25    18    13   ar
    26    10     1    1
    27    10     4   ar
@<TRIPOS>MOLECULE
*****
 25 27 0 0 0
SMALL
GASTEIGER

@<TRIPOS>ATOM
      1 C          -8.6356  -17.2524   23.7446 C.2     1  UNL1       -0.0245
      2 C          -9.7260  -18.0169   24.4351 C.2     1  UNL1       -0.0421
      3 C          -9.6772  -17.6770   25.8953 C.3     1  UNL1        0.0481
      4 C          -8.5567  -16.7025   26.1072 C.ar    1  UNL1       -0.0162
      5 C          -8.0394  -16.0202   27.3388 C.ar    1  UNL1        0.0257
      6 C          -6.8784  -15.0756   27.2412 C.ar    1  UNL1        0.1398
      7 F          -6.3611  -14.3932   28.4729 F       1  UNL1       -0.2042
      8 C          -6.2347  -14.8131   25.9120 C.ar    1  UNL1        0.0296
      9 C          -6.7520  -15.4954   24.6804 C.ar    1  UNL1        0.0017
     10 C          -7.9130  -16.4401   24.7780 C.ar    1  UNL1       -0.0077
     11 C          -8.3228  -17.2931   22.2782 C.3     1  UNL1        0.0666
     12 C          -9.0212  -16.3577   21.3361 C.3     1  UNL1        0.0112
     13 C          -7.7518  -19.4132   20.8893 C.ar    1  UNL1        0.2393
     14 N          -6.7406  -20.3891   20.3649 N.ar    1  UNL1       -0.2075
     15 C          -5.2894  -20.2209   20.7048 C.ar    1  UNL1        0.1227
     16 C          -4.8492  -19.0767   21.5691 C.ar    1  UNL1        0.1193
     17 N          -5.8604  -18.1008   22.0936 N.ar    1  UNL1       -0.2415
     18 C          -7.3118  -18.2690   21.7537 C.ar    1  UNL1        0.1156
     19 C          -9.6226  -19.7625   19.1207 C.3     1  UNL1        0.2543
     20 O          -9.2031  -19.5815   20.5494 O.3     1  UNL1       -0.4553
     21 C         -10.6950  -18.9562   23.7804 C.3     1  UNL1        0.0394
     22 C         -12.0750  -18.4852   23.4287 C.3     1  UNL1        0.0765
     23 N         -12.2641  -17.4452   22.3645 N.3     1  UNL1       -0.2700
     24 C         -12.3081  -17.8492   20.9205 C.3     1  UNL1        0.0897
     25 C         -12.4091  -16.0014   22.7441 C.3     1  UNL1        0.0897
@<TRIPOS>BOND
     1    19    20    1
     2    20    13    1
     3    13    14   ar
     4    14    15   ar
     5    15    16   ar
     6    16    17   ar
     7    17    18   ar
     8    18    11    1
     9    11    12    1
    10    11     1    1
    11     1     2    2
    12     2    21    1
    13    21    22    1
    14    22    23    1
    15    23    24    1
    16    23    25    1
    17     2     3    1
    18     3     4    1
    19     4     5   ar
    20     5     6   ar
    21     6     7    1
    22     6     8   ar
    23     8     9   ar
    24     9    10   ar
    25    18    13   ar
    26    10     1    1
    27    10     4   ar
@<TRIPOS>MOLECULE
*****
 25 27 0 0 0
SMALL
GASTEIGER

@<TRIPOS>ATOM
      1 C          -8.6154  -17.0454   22.4999 C.2     1  UNL1       -0.0245
      2 C          -8.0187  -18.3667   22.1152 C.2     1  UNL1       -0.0421
      3 C          -9.1413  -19.2973   21.7632 C.3     1  UNL1        0.0481
      4 C         -10.4317  -18.5511   21.9305 C.ar    1  UNL1       -0.0162
      5 C         -11.8607  -18.9592   21.7270 C.ar    1  UNL1        0.0257
      6 C         -12.9647  -17.9754   21.9788 C.ar    1  UNL1        0.1398
      7 F         -14.3938  -18.3835   21.7753 F       1  UNL1       -0.2042
      8 C         -12.6397  -16.5836   22.4341 C.ar    1  UNL1        0.0296
      9 C         -11.2107  -16.1756   22.6376 C.ar    1  UNL1        0.0017
     10 C         -10.1067  -17.1593   22.3858 C.ar    1  UNL1       -0.0077
     11 C          -7.8544  -15.8244   22.9243 C.3     1  UNL1        0.0666
     12 C          -7.5352  -14.7539   21.9232 C.3     1  UNL1        0.0112
     13 C          -5.9572  -15.5017   24.6698 C.ar    1  UNL1        0.2393
     14 N          -5.5154  -15.3511   26.0953 N.ar    1  UNL1       -0.2075
     15 C          -6.5289  -15.3727   27.2009 C.ar    1  UNL1        0.1227
     16 C          -7.9843  -15.5448   26.8810 C.ar    1  UNL1        0.1193
     17 N          -8.4261  -15.6954   25.4555 N.ar    1  UNL1       -0.2415
     18 C          -7.4126  -15.6738   24.3498 C.ar    1  UNL1        0.1156
     19 C          -3.9575  -16.6023   23.4289 C.3     1  UNL1        0.2543
     20 O          -4.9437  -15.4802   23.5642 O.3     1  UNL1       -0.4553
     21 C          -6.5563  -18.6991   22.0873 C.3     1  UNL1        0.0394
     22 C          -5.9217  -19.1854   20.8181 C.3     1  UNL1        0.0765
     23 N          -4.4274  -19.2379   20.6989 N.3     1  UNL1       -0.2700
     24 C          -3.6017  -19.7538   21.8400 C.3     1  UNL1        0.0897
     25 C          -3.7588  -18.7744   19.4387 C.3     1  UNL1        0.0897
@<TRIPOS>BOND
     1    19    20    1
     2    20    13    1
     3    13    14   ar
     4    14    15   ar
     5    15    16   ar
     6    16    17   ar
     7    17    18   ar
     8    18    11    1
     9    11    12    1
    10    11     1    1
    11     1     2    2
    12     2    21    1
    13    21    22    1
    14    22    23    1
    15    23    24    1
    16    23    25    1
    17     2     3    1
    18     3     4    1
    19     4     5   ar
    20     5     6   ar
    21     6     7    1
    22     6     8   ar
    23     8     9   ar
    24     9    10   ar
    25    18    13   ar
    26    10     1    1
    27    10     4   ar
@<TRIPOS>MOLECULE
*****
 25 27 0 0 0
SMALL
GASTEIGER

@<TRIPOS>ATOM
      1 C          -8.6940  -17.1608   23.6203 C.2     1  UNL1       -0.0245
      2 C          -9.7180  -18.0570   24.2515 C.2     1  UNL1       -0.0421
      3 C          -9.6629  -17.8501   25.7361 C.3     1  UNL1        0.0481
      4 C          -8.6049  -16.8261   26.0225 C.ar    1  UNL1       -0.0162
      5 C          -8.1094  -16.2265   27.3051 C.ar    1  UNL1        0.0257
      6 C          -7.0151  -15.2009   27.2800 C.ar    1  UNL1        0.1398
      7 F          -6.5196  -14.6013   28.5626 F       1  UNL1       -0.2042
      8 C          -6.4163  -14.7749   25.9723 C.ar    1  UNL1        0.0296
      9 C          -6.9118  -15.3744   24.6898 C.ar    1  UNL1        0.0017
     10 C          -8.0061  -16.4000   24.7149 C.ar    1  UNL1       -0.0077
     11 C          -8.4081  -17.0455   22.1524 C.3     1  UNL1        0.0666
     12 C          -8.7556  -15.7849   21.4173 C.3     1  UNL1        0.0112
     13 C          -6.3528  -18.5712   21.7074 C.ar    1  UNL1        0.2393
     14 N          -5.7196  -19.7164   20.9743 N.ar    1  UNL1       -0.2075
     15 C          -6.5084  -20.4813   19.9533 C.ar    1  UNL1        0.1227
     16 C          -7.9305  -20.1010   19.6652 C.ar    1  UNL1        0.1193
     17 N          -8.5637  -18.9557   20.3982 N.ar    1  UNL1       -0.2415
     18 C          -7.7749  -18.1907   21.4194 C.ar    1  UNL1        0.1156
     19 C          -4.1271  -18.1550   22.9814 C.3     1  UNL1        0.2543
     20 O          -5.5639  -17.8063   22.7284 O.3     1  UNL1       -0.4553
     21 C         -10.6358  -18.9953   23.5255 C.3     1  UNL1        0.0394
     22 C         -11.9740  -18.5152   23.0473 C.3     1  UNL1        0.0765
     23 N         -12.0579  -17.3891   22.0599 N.3     1  UNL1       -0.2700
     24 C         -11.8539  -17.6567   20.5980 C.3     1  UNL1        0.0897
     25 C         -12.3456  -15.9956   22.5342 C.3     1  UNL1        0.0897
@<TRIPOS>BOND
     1    19    20    1
     2    20    13    1
     3    13    14   ar
     4    14    15   ar
     5    15    16   ar
     6    16    17   ar
     7    17    18   ar
     8    18    11    1
     9    11    12    1
    10    11     1    1
    11     1     2    2
    12     2    21    1
    13    21    22    1
    14    22    23    1
    15    23    24    1
    16    23    25    1
    17     2     3    1
    18     3     4    1
    19     4     5   ar
    20     5     6   ar
    21     6     7    1
    22     6     8   ar
    23     8     9   ar
    24     9    10   ar
    25    18    13   ar
    26    10     1    1
    27    10     4   ar
@<TRIPOS>MOLECULE
*****
 25 27 0 0 0
SMALL
GASTEIGER

@<TRIPOS>ATOM
      1 C          -6.9976  -18.1409   22.0525 C.2     1  UNL1       -0.0245
      2 C          -5.6147  -18.6876   21.8555 C.2     1  UNL1       -0.0421
      3 C          -4.7071  -18.0204   22.8460 C.3     1  UNL1        0.0481
      4 C          -5.5290  -17.0614   23.6552 C.ar    1  UNL1       -0.0162
      5 C          -5.1713  -16.1300   24.7752 C.ar    1  UNL1        0.0257
      6 C          -6.2292  -15.2731   25.4048 C.ar    1  UNL1        0.1398
      7 F          -5.8715  -14.3416   26.5249 F       1  UNL1       -0.2042
      8 C          -7.6448  -15.3475   24.9144 C.ar    1  UNL1        0.0296
      9 C          -8.0025  -16.2789   23.7944 C.ar    1  UNL1        0.0017
     10 C          -6.9446  -17.1358   23.1648 C.ar    1  UNL1       -0.0077
     11 C          -8.2190  -18.5307   21.2739 C.3     1  UNL1        0.0666
     12 C          -8.1024  -19.4894   20.1261 C.3     1  UNL1        0.0112
     13 C         -10.4795  -18.7349   22.5381 C.ar    1  UNL1        0.2393
     14 N         -11.8175  -18.1660   22.9072 N.ar    1  UNL1       -0.2075
     15 C         -12.2329  -16.8242   22.3812 C.ar    1  UNL1        0.1227
     16 C         -11.3103  -16.0510   21.4861 C.ar    1  UNL1        0.1193
     17 N          -9.9724  -16.6199   21.1170 N.ar    1  UNL1       -0.2415
     18 C          -9.5569  -17.9619   21.6430 C.ar    1  UNL1        0.1156
     19 C          -9.8306  -20.2669   24.5336 C.3     1  UNL1        0.2543
     20 O         -10.0642  -20.0768   23.0641 O.3     1  UNL1       -0.4553
     21 C          -5.2105  -19.7201   20.8453 C.3     1  UNL1        0.0394
     22 C          -4.3710  -19.3272   19.6660 C.3     1  UNL1        0.0765
     23 N          -2.9537  -18.8804   19.8698 N.3     1  UNL1       -0.2700
     24 C          -2.3966  -17.7551   19.0490 C.3     1  UNL1        0.0897
     25 C          -2.0934  -19.5589   20.8942 C.3     1  UNL1        0.0897
@<TRIPOS>BOND
     1    19    20    1
     2    20    13    1
     3    13    14   ar
     4    14    15   ar
     5    15    16   ar
     6    16    17   ar
     7    17    18   ar
     8    18    11    1
     9    11    12    1
    10    11     1    1
    11     1     2    2
    12     2    21    1
    13    21    22    1
    14    22    23    1
    15    23    24    1
    16    23    25    1
    17     2     3    1
    18     3     4    1
    19     4     5   ar
    20     5     6   ar
    21     6     7    1
    22     6     8   ar
    23     8     9   ar
    24     9    10   ar
    25    18    13   ar
    26    10     1    1
    27    10     4   ar
