@<TRIPOS>MOLECULE
*****
 30 33 0 0 0
SMALL
GASTEIGER

@<TRIPOS>ATOM
      1 C           4.5256    3.5824   18.2241 C.3     1  UNL1        0.0282
      2 C           3.1835    2.9906   18.5378 C.3     1  UNL1        0.1189
      3 C           1.9328    3.7478   18.2024 C.ar    1  UNL1        0.1138
      4 N           1.7112    5.0873   17.5648 N.ar    1  UNL1       -0.1315
      5 N           0.2320    5.3233   17.4845 N.ar    1  UNL1       -0.0576
      6 N          -0.4604    4.1297   18.0725 N.ar    1  UNL1       -0.1813
      7 C           0.5907    3.1559   18.5162 C.ar    1  UNL1        0.0837
      8 C           0.4993    1.8068   19.1653 C.3     1  UNL1        0.0688
      9 C           1.7499    1.0496   19.5008 C.3     1  UNL1        0.1004
     10 N           3.0919    1.6414   19.1870 N.am    1  UNL1       -0.2719
     11 C           4.3426    0.8841   19.5224 C.2     1  UNL1        0.2501
     12 O           5.6847    1.4760   19.2087 O.2     1  UNL1       -0.2699
     13 C          -1.9437    3.9426   18.1952 C.ar    1  UNL1        0.2543
     14 N          -2.5675    3.7628   19.5474 N.ar    1  UNL1       -0.2060
     15 C          -4.0508    3.5758   19.6702 C.ar    1  UNL1        0.1332
     16 C          -4.9101    3.5685   18.4408 C.ar    1  UNL1        0.1784
     17 F          -6.3933    3.3814   18.5635 F       1  UNL1       -0.2009
     18 C          -4.2861    3.7483   17.0885 C.ar    1  UNL1        0.1332
     19 N          -2.8030    3.9353   16.9657 N.ar    1  UNL1       -0.2060
     20 C           4.2511   -0.4651   20.1716 C.ar    1  UNL1        0.0641
     21 C           3.9891   -0.5723   21.6446 C.ar    1  UNL1        0.0054
     22 C           3.8976   -1.9216   22.2938 C.ar    1  UNL1        0.0001
     23 C           4.0681   -3.1633   21.4700 C.ar    1  UNL1        0.0047
     24 C           4.3302   -3.0560   19.9969 C.ar    1  UNL1        0.0821
     25 C           4.4217   -1.7069   19.3477 C.ar    1  UNL1        0.0659
     26 CL          4.6837   -1.5996   17.8747 Cl      1  UNL1       -0.0822
     27 C           4.5008   -4.2979   19.1730 C.3     1  UNL1        0.4194
     28 F           4.6713   -5.5397   18.3492 F       1  UNL1       -0.1658
     29 F           3.0329   -4.2947   18.8643 F       1  UNL1       -0.1658
     30 F           5.9687   -4.3011   19.4818 F       1  UNL1       -0.1658
@<TRIPOS>BOND
     1     2     1    1
     2     2     3    1
     3     3     4   ar
     4     4     5   ar
     5     5     6   ar
     6     6    13    1
     7    13    14   ar
     8    14    15   ar
     9    15    16   ar
    10    16    17    1
    11    16    18   ar
    12    18    19   ar
    13     6     7   ar
    14     7     8    1
    15     8     9    1
    16     9    10    1
    17    10    11   am
    18    11    12    2
    19    11    20    1
    20    20    21   ar
    21    21    22   ar
    22    22    23   ar
    23    23    24   ar
    24    24    27    1
    25    27    28    1
    26    27    29    1
    27    27    30    1
    28    24    25   ar
    29    25    26    1
    30    10     2    1
    31    25    20   ar
    32     7     3   ar
    33    19    13   ar
@<TRIPOS>MOLECULE
*****
 30 33 0 0 0
SMALL
GASTEIGER

@<TRIPOS>ATOM
      1 C           8.6466   -6.8080   22.8588 C.3     1  UNL1        0.0282
      2 C           8.0790   -5.8523   23.8660 C.3     1  UNL1        0.1189
      3 C           8.1433   -6.1783   25.3287 C.ar    1  UNL1        0.1138
      4 N           8.7009   -7.3566   26.0708 N.ar    1  UNL1       -0.1315
      5 N           8.4780   -7.1291   27.5365 N.ar    1  UNL1       -0.0576
      6 N           7.7826   -5.8101   27.7004 N.ar    1  UNL1       -0.1813
      7 C           7.5757   -5.2226   26.3359 C.ar    1  UNL1        0.0837
      8 C           6.9438   -3.9407   25.8803 C.3     1  UNL1        0.0688
      9 C           6.8795   -3.6146   24.4176 C.3     1  UNL1        0.1004
     10 N           7.4471   -4.5703   23.4105 N.am    1  UNL1       -0.2719
     11 C           7.3828   -4.2442   21.9477 C.2     1  UNL1        0.2501
     12 O           7.9504   -5.2000   20.9406 O.2     1  UNL1       -0.2699
     13 C           7.3670   -5.1881   29.0005 C.ar    1  UNL1        0.2543
     14 N           7.3621   -6.0080   30.2565 N.ar    1  UNL1       -0.2060
     15 C           6.9465   -5.3860   31.5567 C.ar    1  UNL1        0.1332
     16 C           6.5358   -3.9440   31.6008 C.ar    1  UNL1        0.1784
     17 F           6.1203   -3.3220   32.9009 F       1  UNL1       -0.2009
     18 C           6.5408   -3.1240   30.3447 C.ar    1  UNL1        0.1332
     19 N           6.9563   -3.7460   29.0446 N.ar    1  UNL1       -0.2060
     20 C           6.7509   -2.9623   21.4921 C.ar    1  UNL1        0.0641
     21 C           7.5865   -1.7254   21.3443 C.ar    1  UNL1        0.0054
     22 C           6.9545   -0.4435   20.8887 C.ar    1  UNL1        0.0001
     23 C           5.4872   -0.3986   20.5810 C.ar    1  UNL1        0.0047
     24 C           4.6516   -1.6356   20.7289 C.ar    1  UNL1        0.0821
     25 C           5.2835   -2.9175   21.1844 C.ar    1  UNL1        0.0659
     26 CL          4.4479   -4.1544   21.3322 Cl      1  UNL1       -0.0822
     27 C           3.1842   -1.5907   20.4211 C.3     1  UNL1        0.4194
     28 F           1.7168   -1.5457   20.1134 F       1  UNL1       -0.1658
     29 F           3.4771   -1.8906   18.9809 F       1  UNL1       -0.1658
     30 F           2.8914   -1.2907   21.8614 F       1  UNL1       -0.1658
@<TRIPOS>BOND
     1     2     1    1
     2     2     3    1
     3     3     4   ar
     4     4     5   ar
     5     5     6   ar
     6     6    13    1
     7    13    14   ar
     8    14    15   ar
     9    15    16   ar
    10    16    17    1
    11    16    18   ar
    12    18    19   ar
    13     6     7   ar
    14     7     8    1
    15     8     9    1
    16     9    10    1
    17    10    11   am
    18    11    12    2
    19    11    20    1
    20    20    21   ar
    21    21    22   ar
    22    22    23   ar
    23    23    24   ar
    24    24    27    1
    25    27    28    1
    26    27    29    1
    27    27    30    1
    28    24    25   ar
    29    25    26    1
    30    10     2    1
    31    25    20   ar
    32     7     3   ar
    33    19    13   ar
@<TRIPOS>MOLECULE
*****
 30 33 0 0 0
SMALL
GASTEIGER

@<TRIPOS>ATOM
      1 C           3.0084    3.6032   23.2113 C.3     1  UNL1        0.0282
      2 C           3.1112    2.1068   23.1875 C.3     1  UNL1        0.1189
      3 C           3.5071    1.4022   21.9239 C.ar    1  UNL1        0.1138
      4 N           3.8537    1.9124   20.5565 N.ar    1  UNL1       -0.1315
      5 N           4.1706    0.7314   19.6878 N.ar    1  UNL1       -0.0576
      6 N           4.0199   -0.5087   20.5181 N.ar    1  UNL1       -0.1813
      7 C           3.6098   -0.0941   21.9001 C.ar    1  UNL1        0.0837
      8 C           3.3166   -0.8858   23.1400 C.3     1  UNL1        0.0688
      9 C           2.9207   -0.1811   24.4036 C.3     1  UNL1        0.1004
     10 N           2.8180    1.3151   24.4274 N.am    1  UNL1       -0.2719
     11 C           2.4221    2.0198   25.6911 C.2     1  UNL1        0.2501
     12 O           2.3194    3.5161   25.7148 O.2     1  UNL1       -0.2699
     13 C           4.2405   -1.9162   20.0489 C.ar    1  UNL1        0.2543
     14 N           3.0883   -2.7217   19.5257 N.ar    1  UNL1       -0.2060
     15 C           3.3089   -4.1292   19.0564 C.ar    1  UNL1        0.1332
     16 C           4.6817   -4.7313   19.1103 C.ar    1  UNL1        0.1784
     17 F           4.9023   -6.1388   18.6410 F       1  UNL1       -0.2009
     18 C           5.8339   -3.9257   19.6335 C.ar    1  UNL1        0.1332
     19 N           5.6134   -2.5183   20.1028 N.ar    1  UNL1       -0.2060
     20 C           2.1289    1.2281   26.9310 C.ar    1  UNL1        0.0641
     21 C           3.2510    0.5959   27.6999 C.ar    1  UNL1        0.0054
     22 C           2.9577   -0.1957   28.9399 C.ar    1  UNL1        0.0001
     23 C           1.5426   -0.3552   29.4107 C.ar    1  UNL1        0.0047
     24 C           0.4205    0.2771   28.6417 C.ar    1  UNL1        0.0821
     25 C           0.7137    1.0687   27.4018 C.ar    1  UNL1        0.0659
     26 CL         -0.4084    1.7010   26.6329 Cl      1  UNL1       -0.0822
     27 C          -0.9947    0.1177   29.1127 C.3     1  UNL1        0.4194
     28 F          -2.4099   -0.0418   29.5836 F       1  UNL1       -0.1658
     29 F          -1.1993   -0.9906   28.1227 F       1  UNL1       -0.1658
     30 F          -0.7901    1.2259   30.1026 F       1  UNL1       -0.1658
@<TRIPOS>BOND
     1     2     1    1
     2     2     3    1
     3     3     4   ar
     4     4     5   ar
     5     5     6   ar
     6     6    13    1
     7    13    14   ar
     8    14    15   ar
     9    15    16   ar
    10    16    17    1
    11    16    18   ar
    12    18    19   ar
    13     6     7   ar
    14     7     8    1
    15     8     9    1
    16     9    10    1
    17    10    11   am
    18    11    12    2
    19    11    20    1
    20    20    21   ar
    21    21    22   ar
    22    22    23   ar
    23    23    24   ar
    24    24    27    1
    25    27    28    1
    26    27    29    1
    27    27    30    1
    28    24    25   ar
    29    25    26    1
    30    10     2    1
    31    25    20   ar
    32     7     3   ar
    33    19    13   ar
@<TRIPOS>MOLECULE
*****
 30 33 0 0 0
SMALL
GASTEIGER

@<TRIPOS>ATOM
      1 C           3.0897    2.1858   23.6255 C.3     1  UNL1        0.0282
      2 C           2.1240    1.9980   22.4931 C.3     1  UNL1        0.1189
      3 C           0.7886    2.6804   22.5252 C.ar    1  UNL1        0.1138
      4 N           0.1508    3.5910   23.5321 N.ar    1  UNL1       -0.1315
      5 N          -1.2091    3.9660   23.0220 N.ar    1  UNL1       -0.0576
      6 N          -1.4117    3.2871   21.6998 N.ar    1  UNL1       -0.1813
      7 C          -0.1770    2.4925   21.3928 C.ar    1  UNL1        0.0837
      8 C           0.1928    1.6222   20.2284 C.3     1  UNL1        0.0688
      9 C           1.5281    0.9398   20.1963 C.3     1  UNL1        0.1004
     10 N           2.4937    1.1276   21.3287 N.am    1  UNL1       -0.2719
     11 C           3.8292    0.4452   21.2966 C.2     1  UNL1        0.2501
     12 O           4.7948    0.6330   22.4290 O.2     1  UNL1       -0.2699
     13 C          -2.6343    3.3855   20.8363 C.ar    1  UNL1        0.2543
     14 N          -2.5112    3.8346   19.4105 N.ar    1  UNL1       -0.2060
     15 C          -3.7338    3.9330   18.5469 C.ar    1  UNL1        0.1332
     16 C          -5.0794    3.5823   19.1093 C.ar    1  UNL1        0.1784
     17 F          -6.3020    3.6807   18.2458 F       1  UNL1       -0.2009
     18 C          -5.2024    3.1332   20.5353 C.ar    1  UNL1        0.1332
     19 N          -3.9799    3.0348   21.3988 N.ar    1  UNL1       -0.2060
     20 C           4.1989   -0.4251   20.1322 C.ar    1  UNL1        0.0641
     21 C           4.6849    0.1959   18.8562 C.ar    1  UNL1        0.0054
     22 C           5.0547   -0.6745   17.6918 C.ar    1  UNL1        0.0001
     23 C           4.9384   -2.1657   17.8034 C.ar    1  UNL1        0.0047
     24 C           4.4524   -2.7868   19.0794 C.ar    1  UNL1        0.0821
     25 C           4.0826   -1.9165   20.2438 C.ar    1  UNL1        0.0659
     26 CL          3.5966   -2.5375   21.5198 Cl      1  UNL1       -0.0822
     27 C           4.3362   -4.2781   19.1910 C.3     1  UNL1        0.4194
     28 F           4.2199   -5.7694   19.3025 F       1  UNL1       -0.1658
     29 F           5.7765   -4.3596   19.6020 F       1  UNL1       -0.1658
     30 F           2.8959   -4.1966   18.7800 F       1  UNL1       -0.1658
@<TRIPOS>BOND
     1     2     1    1
     2     2     3    1
     3     3     4   ar
     4     4     5   ar
     5     5     6   ar
     6     6    13    1
     7    13    14   ar
     8    14    15   ar
     9    15    16   ar
    10    16    17    1
    11    16    18   ar
    12    18    19   ar
    13     6     7   ar
    14     7     8    1
    15     8     9    1
    16     9    10    1
    17    10    11   am
    18    11    12    2
    19    11    20    1
    20    20    21   ar
    21    21    22   ar
    22    22    23   ar
    23    23    24   ar
    24    24    27    1
    25    27    28    1
    26    27    29    1
    27    27    30    1
    28    24    25   ar
    29    25    26    1
    30    10     2    1
    31    25    20   ar
    32     7     3   ar
    33    19    13   ar
@<TRIPOS>MOLECULE
*****
 30 33 0 0 0
SMALL
GASTEIGER

@<TRIPOS>ATOM
      1 C           7.6867   -4.5836   25.0187 C.3     1  UNL1        0.0282
      2 C           6.5563   -3.5975   25.0090 C.3     1  UNL1        0.1189
      3 C           6.1228   -2.9409   26.2861 C.ar    1  UNL1        0.1138
      4 N           6.6168   -3.0659   27.6969 N.ar    1  UNL1       -0.1315
      5 N           5.7917   -2.1572   28.5591 N.ar    1  UNL1       -0.0576
      6 N           4.7878   -1.4706   27.6812 N.ar    1  UNL1       -0.1813
      7 C           4.9924   -1.9549   26.2764 C.ar    1  UNL1        0.0837
      8 C           4.2955   -1.6256   24.9896 C.3     1  UNL1        0.0688
      9 C           4.7290   -2.2822   23.7126 C.3     1  UNL1        0.1004
     10 N           5.8593   -3.2681   23.7222 N.am    1  UNL1       -0.2719
     11 C           6.2928   -3.9248   22.4451 C.2     1  UNL1        0.2501
     12 O           7.4231   -4.9108   22.4548 O.2     1  UNL1       -0.2699
     13 C           3.7598   -0.4745   28.1295 C.ar    1  UNL1        0.2543
     14 N           2.3732   -0.9312   28.4740 N.ar    1  UNL1       -0.2060
     15 C           1.3451    0.0649   28.9223 C.ar    1  UNL1        0.1332
     16 C           1.7036    1.5176   29.0260 C.ar    1  UNL1        0.1784
     17 F           0.6756    2.5137   29.4742 F       1  UNL1       -0.2009
     18 C           3.0903    1.9744   28.6814 C.ar    1  UNL1        0.1332
     19 N           4.1183    0.9784   28.2332 N.ar    1  UNL1       -0.2060
     20 C           5.5958   -3.5954   21.1583 C.ar    1  UNL1        0.0641
     21 C           4.2982   -4.2652   20.8154 C.ar    1  UNL1        0.0054
     22 C           3.6013   -3.9358   19.5286 C.ar    1  UNL1        0.0001
     23 C           4.2020   -2.9367   18.5847 C.ar    1  UNL1        0.0047
     24 C           5.4997   -2.2669   18.9277 C.ar    1  UNL1        0.0821
     25 C           6.1966   -2.5963   20.2144 C.ar    1  UNL1        0.0659
     26 CL          7.4942   -1.9265   20.5573 Cl      1  UNL1       -0.0822
     27 C           6.1004   -1.2678   17.9838 C.3     1  UNL1        0.4194
     28 F           6.7011   -0.2687   17.0399 F       1  UNL1       -0.1658
     29 F           5.1687   -0.2145   18.5057 F       1  UNL1       -0.1658
     30 F           7.0321   -2.3211   17.4618 F       1  UNL1       -0.1658
@<TRIPOS>BOND
     1     2     1    1
     2     2     3    1
     3     3     4   ar
     4     4     5   ar
     5     5     6   ar
     6     6    13    1
     7    13    14   ar
     8    14    15   ar
     9    15    16   ar
    10    16    17    1
    11    16    18   ar
    12    18    19   ar
    13     6     7   ar
    14     7     8    1
    15     8     9    1
    16     9    10    1
    17    10    11   am
    18    11    12    2
    19    11    20    1
    20    20    21   ar
    21    21    22   ar
    22    22    23   ar
    23    23    24   ar
    24    24    27    1
    25    27    28    1
    26    27    29    1
    27    27    30    1
    28    24    25   ar
    29    25    26    1
    30    10     2    1
    31    25    20   ar
    32     7     3   ar
    33    19    13   ar
@<TRIPOS>MOLECULE
*****
 30 33 0 0 0
SMALL
GASTEIGER

@<TRIPOS>ATOM
      1 C           1.5205    2.4047   20.9383 C.3     1  UNL1        0.0282
      2 C           1.9780    1.4516   22.0024 C.3     1  UNL1        0.1189
      3 C           1.7023    1.7506   23.4462 C.ar    1  UNL1        0.1138
      4 N           1.0069    2.8969   24.1187 N.ar    1  UNL1       -0.1315
      5 N           1.0347    2.6522   25.5983 N.ar    1  UNL1       -0.0576
      6 N           1.7473    1.3546   25.8403 N.ar    1  UNL1       -0.1813
      7 C           2.1599    0.7974   24.5102 C.ar    1  UNL1        0.0837
      8 C           2.8932   -0.4548   24.1304 C.3     1  UNL1        0.0688
      9 C           3.1689   -0.7538   22.6866 C.3     1  UNL1        0.1004
     10 N           2.7113    0.1993   21.6227 N.am    1  UNL1       -0.2719
     11 C           2.9871   -0.0998   20.1788 C.2     1  UNL1        0.2501
     12 O           2.5295    0.8534   19.1148 O.2     1  UNL1       -0.2699
     13 C           2.0024    0.7249   27.1776 C.ar    1  UNL1        0.2543
     14 N           3.3973    0.3376   27.5703 N.ar    1  UNL1       -0.2060
     15 C           3.6525   -0.2921   28.9077 C.ar    1  UNL1        0.1332
     16 C           2.5128   -0.5346   29.8522 C.ar    1  UNL1        0.1784
     17 F           2.7679   -1.1643   31.1894 F       1  UNL1       -0.2009
     18 C           1.1178   -0.1473   29.4594 C.ar    1  UNL1        0.1332
     19 N           0.8626    0.4824   28.1221 N.ar    1  UNL1       -0.2060
     20 C           3.7203   -1.3520   19.7990 C.ar    1  UNL1        0.0641
     21 C           2.9588   -2.6188   19.5436 C.ar    1  UNL1        0.0054
     22 C           3.6922   -3.8711   19.1638 C.ar    1  UNL1        0.0001
     23 C           5.1869   -3.8564   19.0394 C.ar    1  UNL1        0.0047
     24 C           5.9484   -2.5895   19.2947 C.ar    1  UNL1        0.0821
     25 C           5.2151   -1.3373   19.6746 C.ar    1  UNL1        0.0659
     26 CL          5.9766   -0.0705   19.9299 Cl      1  UNL1       -0.0822
     27 C           7.4432   -2.5749   19.1703 C.3     1  UNL1        0.4194
     28 F           8.9379   -2.5603   19.0459 F       1  UNL1       -0.1658
     29 F           7.3181   -2.3174   17.6979 F       1  UNL1       -0.1658
     30 F           7.5683   -2.8323   20.6428 F       1  UNL1       -0.1658
@<TRIPOS>BOND
     1     2     1    1
     2     2     3    1
     3     3     4   ar
     4     4     5   ar
     5     5     6   ar
     6     6    13    1
     7    13    14   ar
     8    14    15   ar
     9    15    16   ar
    10    16    17    1
    11    16    18   ar
    12    18    19   ar
    13     6     7   ar
    14     7     8    1
    15     8     9    1
    16     9    10    1
    17    10    11   am
    18    11    12    2
    19    11    20    1
    20    20    21   ar
    21    21    22   ar
    22    22    23   ar
    23    23    24   ar
    24    24    27    1
    25    27    28    1
    26    27    29    1
    27    27    30    1
    28    24    25   ar
    29    25    26    1
    30    10     2    1
    31    25    20   ar
    32     7     3   ar
    33    19    13   ar
@<TRIPOS>MOLECULE
*****
 30 33 0 0 0
SMALL
GASTEIGER

@<TRIPOS>ATOM
      1 C           1.2944    1.7290   19.0268 C.3     1  UNL1        0.0282
      2 C           1.5934    1.1175   20.3635 C.3     1  UNL1        0.1189
      3 C           1.0100    1.7155   21.6093 C.ar    1  UNL1        0.1138
      4 N           0.1126    2.8970   21.8304 N.ar    1  UNL1       -0.1315
      5 N          -0.1429    3.0156   23.3037 N.ar    1  UNL1       -0.0576
      6 N           0.5966    1.9075   23.9931 N.ar    1  UNL1       -0.1813
      7 C           1.3091    1.1040   22.9459 C.ar    1  UNL1        0.0837
      8 C           2.1917   -0.1055   23.0368 C.3     1  UNL1        0.0688
      9 C           2.7751   -0.7035   21.7910 C.3     1  UNL1        0.1004
     10 N           2.4760   -0.0920   20.4544 N.am    1  UNL1       -0.2719
     11 C           3.0595   -0.6901   19.2085 C.2     1  UNL1        0.2501
     12 O           2.7604   -0.0786   17.8719 O.2     1  UNL1       -0.2699
     13 C           0.6195    1.6485   25.4704 C.ar    1  UNL1        0.2543
     14 N          -0.6669    1.5683   26.2378 N.ar    1  UNL1       -0.2060
     15 C          -0.6440    1.3092   27.7151 C.ar    1  UNL1        0.1332
     16 C           0.6651    1.1304   28.4250 C.ar    1  UNL1        0.1784
     17 F           0.6880    0.8713   29.9023 F       1  UNL1       -0.2009
     18 C           1.9515    1.2106   27.6575 C.ar    1  UNL1        0.1332
     19 N           1.9287    1.4696   26.1803 N.ar    1  UNL1       -0.2060
     20 C           3.9420   -1.8995   19.2994 C.ar    1  UNL1        0.0641
     21 C           3.3492   -3.2717   19.1738 C.ar    1  UNL1        0.0054
     22 C           4.2318   -4.4812   19.2646 C.ar    1  UNL1        0.0001
     23 C           5.7071   -4.3185   19.4811 C.ar    1  UNL1        0.0047
     24 C           6.2999   -2.9463   19.6067 C.ar    1  UNL1        0.0821
     25 C           5.4174   -1.7368   19.5159 C.ar    1  UNL1        0.0659
     26 CL          6.0102   -0.3647   19.6415 Cl      1  UNL1       -0.0822
     27 C           7.7753   -2.7837   19.8232 C.3     1  UNL1        0.4194
     28 F           9.2507   -2.6210   20.0397 F       1  UNL1       -0.1658
     29 F           7.9619   -2.5259   18.3573 F       1  UNL1       -0.1658
     30 F           7.5886   -3.0415   21.2890 F       1  UNL1       -0.1658
@<TRIPOS>BOND
     1     2     1    1
     2     2     3    1
     3     3     4   ar
     4     4     5   ar
     5     5     6   ar
     6     6    13    1
     7    13    14   ar
     8    14    15   ar
     9    15    16   ar
    10    16    17    1
    11    16    18   ar
    12    18    19   ar
    13     6     7   ar
    14     7     8    1
    15     8     9    1
    16     9    10    1
    17    10    11   am
    18    11    12    2
    19    11    20    1
    20    20    21   ar
    21    21    22   ar
    22    22    23   ar
    23    23    24   ar
    24    24    27    1
    25    27    28    1
    26    27    29    1
    27    27    30    1
    28    24    25   ar
    29    25    26    1
    30    10     2    1
    31    25    20   ar
    32     7     3   ar
    33    19    13   ar
@<TRIPOS>MOLECULE
*****
 30 33 0 0 0
SMALL
GASTEIGER

@<TRIPOS>ATOM
      1 C           6.3970   -1.7970   32.8585 C.3     1  UNL1        0.0282
      2 C           5.6453   -1.5660   31.5811 C.3     1  UNL1        0.1189
      3 C           4.3764   -0.7661   31.5917 C.ar    1  UNL1        0.1138
      4 N           3.6280   -0.0859   32.6995 N.ar    1  UNL1       -0.1315
      5 N           2.4137    0.5655   32.1068 N.ar    1  UNL1       -0.0576
      6 N           2.4117    0.2879   30.6327 N.ar    1  UNL1       -0.1813
      7 C           3.6247   -0.5351   30.3144 C.ar    1  UNL1        0.0837
      8 C           4.1419   -1.1039   29.0264 C.3     1  UNL1        0.0688
      9 C           5.4108   -1.9038   29.0158 C.3     1  UNL1        0.1004
     10 N           6.1624   -2.1348   30.2931 N.am    1  UNL1       -0.2719
     11 C           7.4314   -2.9347   30.2824 C.2     1  UNL1        0.2501
     12 O           8.1831   -3.1658   31.5598 O.2     1  UNL1       -0.2699
     13 C           1.3781    0.7518   29.6496 C.ar    1  UNL1        0.2543
     14 N           0.1475   -0.0718   29.4105 N.ar    1  UNL1       -0.2060
     15 C          -0.8861    0.3921   28.4273 C.ar    1  UNL1        0.1332
     16 C          -0.6891    1.6796   27.6834 C.ar    1  UNL1        0.1784
     17 F          -1.7226    2.1435   26.7003 F       1  UNL1       -0.2009
     18 C           0.5416    2.5032   27.9226 C.ar    1  UNL1        0.1332
     19 N           1.5752    2.0394   28.9057 N.ar    1  UNL1       -0.2060
     20 C           7.9486   -3.5036   28.9945 C.ar    1  UNL1        0.0641
     21 C           8.7550   -2.6451   28.0657 C.ar    1  UNL1        0.0054
     22 C           9.2723   -3.2141   26.7777 C.ar    1  UNL1        0.0001
     23 C           8.9830   -4.6413   26.4185 C.ar    1  UNL1        0.0047
     24 C           8.1765   -5.4999   27.3474 C.ar    1  UNL1        0.0821
     25 C           7.6593   -4.9310   28.6353 C.ar    1  UNL1        0.0659
     26 CL          6.8529   -5.7895   29.5641 Cl      1  UNL1       -0.0822
     27 C           7.8873   -6.9272   26.9882 C.3     1  UNL1        0.4194
     28 F           7.5981   -8.3546   26.6290 F       1  UNL1       -0.1658
     29 F           6.5362   -6.5245   26.4760 F       1  UNL1       -0.1658
     30 F           9.2384   -7.3299   27.5003 F       1  UNL1       -0.1658
@<TRIPOS>BOND
     1     2     1    1
     2     2     3    1
     3     3     4   ar
     4     4     5   ar
     5     5     6   ar
     6     6    13    1
     7    13    14   ar
     8    14    15   ar
     9    15    16   ar
    10    16    17    1
    11    16    18   ar
    12    18    19   ar
    13     6     7   ar
    14     7     8    1
    15     8     9    1
    16     9    10    1
    17    10    11   am
    18    11    12    2
    19    11    20    1
    20    20    21   ar
    21    21    22   ar
    22    22    23   ar
    23    23    24   ar
    24    24    27    1
    25    27    28    1
    26    27    29    1
    27    27    30    1
    28    24    25   ar
    29    25    26    1
    30    10     2    1
    31    25    20   ar
    32     7     3   ar
    33    19    13   ar
@<TRIPOS>MOLECULE
*****
 30 33 0 0 0
SMALL
GASTEIGER

@<TRIPOS>ATOM
      1 C           2.7493    5.4499   18.3413 C.3     1  UNL1        0.0282
      2 C           2.3360    4.0081   18.3631 C.3     1  UNL1        0.1189
      3 C           3.3711    2.9333   18.5152 C.ar    1  UNL1        0.1138
      4 N           4.8627    2.9901   18.6636 N.ar    1  UNL1       -0.1315
      5 N           5.3711    1.5835   18.7771 N.ar    1  UNL1       -0.0576
      6 N           4.1938    0.6573   18.6988 N.ar    1  UNL1       -0.1813
      7 C           2.9577    1.4915   18.5369 C.ar    1  UNL1        0.0837
      8 C           1.5091    1.1246   18.4065 C.3     1  UNL1        0.0688
      9 C           0.4740    2.1995   18.2543 C.3     1  UNL1        0.1004
     10 N           0.8874    3.6411   18.2326 N.am    1  UNL1       -0.2719
     11 C          -0.1478    4.7160   18.0805 C.2     1  UNL1        0.2501
     12 O           0.2656    6.1578   18.0588 O.2     1  UNL1       -0.2699
     13 C           4.2438   -0.8402   18.7698 C.ar    1  UNL1        0.2543
     14 N           3.2134   -1.5882   19.5628 N.ar    1  UNL1       -0.2060
     15 C           3.2634   -3.0857   19.6339 C.ar    1  UNL1        0.1332
     16 C           4.3437   -3.8352   18.9121 C.ar    1  UNL1        0.1784
     17 F           4.3937   -5.3326   18.9831 F       1  UNL1       -0.2009
     18 C           5.3741   -3.0871   18.1190 C.ar    1  UNL1        0.1332
     19 N           5.3241   -1.5897   18.0479 N.ar    1  UNL1       -0.2060
     20 C          -1.5964    4.3491   17.9500 C.ar    1  UNL1        0.0641
     21 C          -2.1523    3.9527   16.6145 C.ar    1  UNL1        0.0054
     22 C          -3.6010    3.5858   16.4841 C.ar    1  UNL1        0.0001
     23 C          -4.4935    3.6153   17.6892 C.ar    1  UNL1        0.0047
     24 C          -3.9376    4.0118   19.0248 C.ar    1  UNL1        0.0821
     25 C          -2.4890    4.3787   19.1552 C.ar    1  UNL1        0.0659
     26 CL         -1.9331    4.7751   20.4908 Cl      1  UNL1       -0.0822
     27 C          -4.8302    4.0413   20.2299 C.3     1  UNL1        0.4194
     28 F          -5.7228    4.0708   21.4351 F       1  UNL1       -0.1658
     29 F          -5.3442    5.3884   19.8162 F       1  UNL1       -0.1658
     30 F          -4.3162    2.6942   20.6436 F       1  UNL1       -0.1658
@<TRIPOS>BOND
     1     2     1    1
     2     2     3    1
     3     3     4   ar
     4     4     5   ar
     5     5     6   ar
     6     6    13    1
     7    13    14   ar
     8    14    15   ar
     9    15    16   ar
    10    16    17    1
    11    16    18   ar
    12    18    19   ar
    13     6     7   ar
    14     7     8    1
    15     8     9    1
    16     9    10    1
    17    10    11   am
    18    11    12    2
    19    11    20    1
    20    20    21   ar
    21    21    22   ar
    22    22    23   ar
    23    23    24   ar
    24    24    27    1
    25    27    28    1
    26    27    29    1
    27    27    30    1
    28    24    25   ar
    29    25    26    1
    30    10     2    1
    31    25    20   ar
    32     7     3   ar
    33    19    13   ar
