@<TRIPOS>MOLECULE
*****
 36 39 0 0 0
SMALL
GASTEIGER

@<TRIPOS>ATOM
      1 C          -5.2033  -19.7200   20.8009 C.3     1  UNL1        0.1225
      2 O          -6.2284  -20.6117   20.1653 O.3     1  UNL1       -0.3559
      3 C          -7.6752  -20.4748   20.5365 C.3     1  UNL1        0.1441
      4 C          -8.0971  -19.4461   21.5434 C.3     1  UNL1        0.0589
      5 C          -7.0720  -18.5544   22.1790 C.3     1  UNL1        0.1466
      6 C          -7.4939  -17.5256   23.1859 C.ar    1  UNL1        0.0618
      7 C          -8.9407  -17.3887   23.5571 C.ar    1  UNL1        0.1407
      8 F         -10.1963  -18.0912   23.1329 F       1  UNL1       -0.2043
      9 C          -9.3626  -16.3600   24.5640 C.ar    1  UNL1        0.0319
     10 C          -8.3375  -15.4682   25.1997 C.ar    1  UNL1        0.0351
     11 C          -6.8906  -15.6051   24.8284 C.ar    1  UNL1        0.1737
     12 F          -5.8656  -14.7133   25.4640 F       1  UNL1       -0.2010
     13 C          -6.4688  -16.6338   23.8215 C.ar    1  UNL1        0.1655
     14 O          -5.0220  -16.7708   23.4502 O.3     1  UNL1       -0.4732
     15 C          -4.6001  -17.7995   22.4434 C.3     1  UNL1        0.2098
     16 C          -5.6252  -18.6913   21.8077 C.3     1  UNL1        0.0957
     17 S          -8.5189  -18.4174   22.5502 S.O2    1  UNL1        0.0094
     18 O          -8.7919  -18.8532   23.1593 O.2     1  UNL1       -0.1684
     19 O          -9.0511  -17.4125   21.5721 O.2     1  UNL1       -0.1684
     20 C          -9.9658  -18.2805   22.9215 C.ar    1  UNL1        0.1059
     21 C         -10.5133  -19.0354   24.0965 C.ar    1  UNL1        0.0192
     22 C         -11.9601  -18.8985   24.4677 C.ar    1  UNL1        0.0127
     23 C         -12.8595  -18.0066   23.6640 C.ar    1  UNL1        0.0578
     24 CL        -14.3064  -17.8697   24.0352 Cl      1  UNL1       -0.0822
     25 C         -12.3120  -17.2518   22.4891 C.ar    1  UNL1        0.0127
     26 C         -10.8651  -17.3888   22.1178 C.ar    1  UNL1        0.0192
     27 C          -3.7565  -19.8569   20.4296 C.3     1  UNL1        0.0550
     28 C          -3.2283  -19.1711   19.2046 C.3     1  UNL1        0.1534
     29 S          -1.8995  -18.4767   19.2480 S.O2    1  UNL1       -0.0085
     30 O          -1.4414  -19.4203   20.3202 O.2     1  UNL1       -0.1729
     31 O          -2.3576  -17.5331   18.1757 O.2     1  UNL1       -0.1729
     32 C          -0.5706  -17.7823   19.2913 C.3     1  UNL1        0.1678
     33 C          -0.2162  -16.9133   20.4614 C.3     1  UNL1        0.0942
     34 C          -2.1271  -15.7652   21.7957 C.3     1  UNL1        0.0859
     35 N          -1.1167  -16.8655   21.6601 N.3     1  UNL1       -0.2948
     36 H          -1.6345  -17.7442   21.6746 H       1  UNL1        0.1233
@<TRIPOS>BOND
     1    34    35    1
     2    35    33    1
     3    33    32    1
     4    32    29    1
     5    29    30    2
     6    29    31    2
     7    29    28    1
     8    28    27    1
     9     1    27    1
    10     1     2    1
    11     2     3    1
    12     3     4    1
    13     4     5    1
    14     5    17    1
    15    17    18    2
    16    17    19    2
    17    17    20    1
    18    20    21   ar
    19    21    22   ar
    20    22    23   ar
    21    23    24    1
    22    23    25   ar
    23    25    26   ar
    24     5     6    1
    25     6     7   ar
    26     7     8    1
    27     7     9   ar
    28     9    10   ar
    29    10    11   ar
    30    11    12    1
    31    11    13   ar
    32    13    14    1
    33    14    15    1
    34    16    15    1
    35    16     1    1
    36    16     5    1
    37    26    20   ar
    38    13     6   ar
    39    35    36    1
@<TRIPOS>MOLECULE
*****
 36 39 0 0 0
SMALL
GASTEIGER

@<TRIPOS>ATOM
      1 C          -5.8382  -16.2771   23.8028 C.3     1  UNL1        0.1225
      2 O          -6.4752  -15.6889   25.0268 O.3     1  UNL1       -0.3559
      3 C          -7.9341  -15.9127   25.2943 C.3     1  UNL1        0.1441
      4 C          -8.7560  -16.7248   24.3377 C.3     1  UNL1        0.0589
      5 C          -8.1190  -17.3130   23.1137 C.3     1  UNL1        0.1466
      6 C          -8.9409  -18.1251   22.1571 C.ar    1  UNL1        0.0618
      7 C         -10.3998  -18.3489   22.4246 C.ar    1  UNL1        0.1407
      8 F         -11.3364  -17.9229   23.5160 F       1  UNL1       -0.2043
      9 C         -11.2217  -19.1610   21.4680 C.ar    1  UNL1        0.0319
     10 C         -10.5847  -19.7492   20.2440 C.ar    1  UNL1        0.0351
     11 C          -9.1258  -19.5254   19.9765 C.ar    1  UNL1        0.1737
     12 F          -8.4888  -20.1136   18.7525 F       1  UNL1       -0.2010
     13 C          -8.3039  -18.7133   20.9331 C.ar    1  UNL1        0.1655
     14 O          -6.8450  -18.4895   20.6657 O.3     1  UNL1       -0.4732
     15 C          -6.0231  -17.6774   21.6222 C.3     1  UNL1        0.2098
     16 C          -6.6601  -17.0892   22.8463 C.3     1  UNL1        0.0957
     17 S          -9.5779  -17.5368   23.3812 S.O2    1  UNL1        0.0094
     18 O          -9.7994  -18.2405   23.6831 O.2     1  UNL1       -0.1684
     19 O         -10.2256  -16.2513   22.9595 O.2     1  UNL1       -0.1684
     20 C         -11.0368  -17.7607   23.6486 C.ar    1  UNL1        0.1059
     21 C         -11.4654  -18.7709   24.6713 C.ar    1  UNL1        0.0192
     22 C         -12.9243  -18.9948   24.9387 C.ar    1  UNL1        0.0127
     23 C         -13.9545  -18.2083   24.1835 C.ar    1  UNL1        0.0578
     24 CL        -15.4134  -18.4322   24.4510 Cl      1  UNL1       -0.0822
     25 C         -13.5259  -17.1981   23.1610 C.ar    1  UNL1        0.0127
     26 C         -12.0670  -16.9743   22.8935 C.ar    1  UNL1        0.0192
     27 C          -4.3793  -16.0533   23.5354 C.3     1  UNL1        0.0550
     28 C          -3.4816  -17.2204   23.2490 C.3     1  UNL1        0.1534
     29 S          -2.4856  -17.1436   22.1300 S.O2    1  UNL1       -0.0085
     30 O          -2.8980  -15.7269   21.8601 O.2     1  UNL1       -0.1729
     31 O          -2.0733  -18.5604   22.3999 O.2     1  UNL1       -0.1729
     32 C          -1.4897  -17.0669   21.0110 C.3     1  UNL1        0.1678
     33 C          -1.9041  -17.4178   19.6128 C.3     1  UNL1        0.0942
     34 C          -3.5664  -19.4048   19.4171 C.3     1  UNL1        0.0859
     35 N          -3.2878  -17.9326   19.3474 N.3     1  UNL1       -0.2948
     36 H          -3.9039  -17.4839   20.0253 H       1  UNL1        0.1233
@<TRIPOS>BOND
     1    34    35    1
     2    35    33    1
     3    33    32    1
     4    32    29    1
     5    29    30    2
     6    29    31    2
     7    29    28    1
     8    28    27    1
     9     1    27    1
    10     1     2    1
    11     2     3    1
    12     3     4    1
    13     4     5    1
    14     5    17    1
    15    17    18    2
    16    17    19    2
    17    17    20    1
    18    20    21   ar
    19    21    22   ar
    20    22    23   ar
    21    23    24    1
    22    23    25   ar
    23    25    26   ar
    24     5     6    1
    25     6     7   ar
    26     7     8    1
    27     7     9   ar
    28     9    10   ar
    29    10    11   ar
    30    11    12    1
    31    11    13   ar
    32    13    14    1
    33    14    15    1
    34    16    15    1
    35    16     1    1
    36    16     5    1
    37    26    20   ar
    38    13     6   ar
    39    35    36    1
@<TRIPOS>MOLECULE
*****
 36 39 0 0 0
SMALL
GASTEIGER

@<TRIPOS>ATOM
      1 C         -14.7566   -0.8695   18.5743 C.3     1  UNL1        0.1225
      2 O         -16.2089   -1.1924   18.3832 O.3     1  UNL1       -0.3559
      3 C         -16.6544   -2.6222   18.2984 C.3     1  UNL1        0.1441
      4 C         -15.6477   -3.7290   18.4047 C.3     1  UNL1        0.0589
      5 C         -14.1955   -3.4061   18.5958 C.3     1  UNL1        0.1466
      6 C         -13.1887   -4.5130   18.7021 C.ar    1  UNL1        0.0618
      7 C         -13.6342   -5.9428   18.6173 C.ar    1  UNL1        0.1407
      8 F         -14.9650   -6.6104   18.4349 F       1  UNL1       -0.2043
      9 C         -12.6275   -7.0497   18.7236 C.ar    1  UNL1        0.0319
     10 C         -11.1752   -6.7268   18.9147 C.ar    1  UNL1        0.0351
     11 C         -10.7296   -5.2970   18.9995 C.ar    1  UNL1        0.1737
     12 F          -9.2773   -4.9741   19.1906 F       1  UNL1       -0.2010
     13 C         -11.7364   -4.1901   18.8932 C.ar    1  UNL1        0.1655
     14 O         -11.2908   -2.7603   18.9780 O.3     1  UNL1       -0.4732
     15 C         -12.2975   -1.6535   18.8717 C.3     1  UNL1        0.2098
     16 C         -13.7499   -1.9763   18.6806 C.3     1  UNL1        0.0957
     17 S         -14.6410   -4.8359   18.5110 S.O2    1  UNL1        0.0094
     18 O         -14.7766   -5.1435   17.7882 O.2     1  UNL1       -0.1684
     19 O         -14.6984   -5.2837   19.9414 O.2     1  UNL1       -0.1684
     20 C         -15.0866   -6.2657   18.4262 C.ar    1  UNL1        0.1059
     21 C         -15.6078   -6.9626   19.6480 C.ar    1  UNL1        0.0192
     22 C         -16.0533   -8.3923   19.5633 C.ar    1  UNL1        0.0127
     23 C         -15.9778   -9.1252   18.2566 C.ar    1  UNL1        0.0578
     24 CL        -16.4234  -10.5550   18.1718 Cl      1  UNL1       -0.0822
     25 C         -15.4566   -8.4284   17.0349 C.ar    1  UNL1        0.0127
     26 C         -15.0111   -6.9986   17.1197 C.ar    1  UNL1        0.0192
     27 C         -14.3110    0.5603   18.6590 C.3     1  UNL1        0.0550
     28 C         -15.2995    1.6679   18.4447 C.3     1  UNL1        0.1534
     29 S         -15.6208    2.6135   19.5639 S.O2    1  UNL1       -0.0085
     30 O         -14.6242    3.5945   19.0213 O.2     1  UNL1       -0.1729
     31 O         -16.6174    1.6325   20.1066 O.2     1  UNL1       -0.1729
     32 C         -15.9421    3.5590   20.6832 C.3     1  UNL1        0.1678
     33 C         -15.2466    4.8853   20.7675 C.3     1  UNL1        0.0942
     34 C         -14.2337    5.1615   23.1440 C.3     1  UNL1        0.0859
     35 N         -14.0518    5.0503   21.6592 N.3     1  UNL1       -0.2948
     36 H         -13.4490    4.2439   21.4960 H       1  UNL1        0.1233
@<TRIPOS>BOND
     1    34    35    1
     2    35    33    1
     3    33    32    1
     4    32    29    1
     5    29    30    2
     6    29    31    2
     7    29    28    1
     8    28    27    1
     9     1    27    1
    10     1     2    1
    11     2     3    1
    12     3     4    1
    13     4     5    1
    14     5    17    1
    15    17    18    2
    16    17    19    2
    17    17    20    1
    18    20    21   ar
    19    21    22   ar
    20    22    23   ar
    21    23    24    1
    22    23    25   ar
    23    25    26   ar
    24     5     6    1
    25     6     7   ar
    26     7     8    1
    27     7     9   ar
    28     9    10   ar
    29    10    11   ar
    30    11    12    1
    31    11    13   ar
    32    13    14    1
    33    14    15    1
    34    16    15    1
    35    16     1    1
    36    16     5    1
    37    26    20   ar
    38    13     6   ar
    39    35    36    1
@<TRIPOS>MOLECULE
*****
 36 39 0 0 0
SMALL
GASTEIGER

@<TRIPOS>ATOM
      1 C         -14.1109   -0.6917   18.3139 C.3     1  UNL1        0.1225
      2 O         -15.5822   -0.8726   18.0854 O.3     1  UNL1       -0.3559
      3 C         -16.1686   -2.2521   18.0297 C.3     1  UNL1        0.1441
      4 C         -15.2835   -3.4507   18.2026 C.3     1  UNL1        0.0589
      5 C         -13.8121   -3.2698   18.4311 C.3     1  UNL1        0.1466
      6 C         -12.9270   -4.4685   18.6040 C.ar    1  UNL1        0.0618
      7 C         -13.5133   -5.8480   18.5484 C.ar    1  UNL1        0.1407
      8 F         -14.8993   -6.3837   18.3430 F       1  UNL1       -0.2043
      9 C         -12.6283   -7.0466   18.7213 C.ar    1  UNL1        0.0319
     10 C         -11.1568   -6.8658   18.9498 C.ar    1  UNL1        0.0351
     11 C         -10.5705   -5.4862   19.0055 C.ar    1  UNL1        0.1737
     12 F          -9.0991   -5.3053   19.2340 F       1  UNL1       -0.2010
     13 C         -11.4556   -4.2876   18.8326 C.ar    1  UNL1        0.1655
     14 O         -10.8693   -2.9080   18.8882 O.3     1  UNL1       -0.4732
     15 C         -11.7543   -1.7094   18.7153 C.3     1  UNL1        0.2098
     16 C         -13.2258   -1.8903   18.4868 C.3     1  UNL1        0.0957
     17 S         -14.3985   -4.6494   18.3755 S.O2    1  UNL1        0.0094
     18 O         -14.6106   -4.9374   17.6632 O.2     1  UNL1       -0.1684
     19 O         -14.4041   -5.0993   19.8064 O.2     1  UNL1       -0.1684
     20 C         -14.9848   -6.0289   18.3199 C.ar    1  UNL1        0.1059
     21 C         -14.9911   -6.7896   17.0270 C.ar    1  UNL1        0.0192
     22 C         -15.5774   -8.1691   16.9714 C.ar    1  UNL1        0.0127
     23 C         -16.1574   -8.7880   18.2086 C.ar    1  UNL1        0.0578
     24 CL        -16.7437  -10.1675   18.1530 Cl      1  UNL1       -0.0822
     25 C         -16.1511   -8.0273   19.5014 C.ar    1  UNL1        0.0127
     26 C         -15.5648   -6.6478   19.5570 C.ar    1  UNL1        0.0192
     27 C         -13.5245    0.6879   18.3695 C.3     1  UNL1        0.0550
     28 C         -12.9070    1.2904   17.1425 C.3     1  UNL1        0.1534
     29 S         -13.2908    2.6752   16.7125 S.O2    1  UNL1       -0.0085
     30 O         -11.9550    3.1860   17.1652 O.2     1  UNL1       -0.1729
     31 O         -14.6265    2.1644   16.2598 O.2     1  UNL1       -0.1729
     32 C         -13.6746    4.0600   16.2824 C.3     1  UNL1        0.1678
     33 C         -13.4417    5.2224   17.2015 C.3     1  UNL1        0.0942
     34 C         -15.4108    4.9509   18.8745 C.3     1  UNL1        0.0859
     35 N         -13.9516    5.1775   18.6115 N.3     1  UNL1       -0.2948
     36 H         -13.4473    4.4268   19.0832 H       1  UNL1        0.1233
@<TRIPOS>BOND
     1    34    35    1
     2    35    33    1
     3    33    32    1
     4    32    29    1
     5    29    30    2
     6    29    31    2
     7    29    28    1
     8    28    27    1
     9     1    27    1
    10     1     2    1
    11     2     3    1
    12     3     4    1
    13     4     5    1
    14     5    17    1
    15    17    18    2
    16    17    19    2
    17    17    20    1
    18    20    21   ar
    19    21    22   ar
    20    22    23   ar
    21    23    24    1
    22    23    25   ar
    23    25    26   ar
    24     5     6    1
    25     6     7   ar
    26     7     8    1
    27     7     9   ar
    28     9    10   ar
    29    10    11   ar
    30    11    12    1
    31    11    13   ar
    32    13    14    1
    33    14    15    1
    34    16    15    1
    35    16     1    1
    36    16     5    1
    37    26    20   ar
    38    13     6   ar
    39    35    36    1
@<TRIPOS>MOLECULE
*****
 36 39 0 0 0
SMALL
GASTEIGER

@<TRIPOS>ATOM
      1 C         -16.3212   -1.4373   19.7538 C.3     1  UNL1        0.1225
      2 O         -17.7669   -1.8353   19.7167 O.3     1  UNL1       -0.3559
      3 C         -18.1443   -3.2712   19.5028 C.3     1  UNL1        0.1441
      4 C         -17.0759   -4.3091   19.3260 C.3     1  UNL1        0.0589
      5 C         -15.6302   -3.9111   19.3631 C.3     1  UNL1        0.1466
      6 C         -14.5617   -4.9491   19.1863 C.ar    1  UNL1        0.0618
      7 C         -14.9391   -6.3850   18.9724 C.ar    1  UNL1        0.1407
      8 F         -16.2454   -7.1167   18.8818 F       1  UNL1       -0.2043
      9 C         -13.8708   -7.4229   18.7956 C.ar    1  UNL1        0.0319
     10 C         -12.4249   -7.0249   18.8326 C.ar    1  UNL1        0.0351
     11 C         -12.0476   -5.5890   19.0465 C.ar    1  UNL1        0.1737
     12 F         -10.6018   -5.1910   19.0836 F       1  UNL1       -0.2010
     13 C         -13.1160   -4.5511   19.2233 C.ar    1  UNL1        0.1655
     14 O         -12.7386   -3.1152   19.4372 O.3     1  UNL1       -0.4732
     15 C         -13.8070   -2.0772   19.6140 C.3     1  UNL1        0.2098
     16 C         -15.2528   -2.4752   19.5770 C.3     1  UNL1        0.0957
     17 S         -16.0076   -5.3470   19.1492 S.O2    1  UNL1        0.0094
     18 O         -16.3004   -5.7535   19.7693 O.2     1  UNL1       -0.1684
     19 O         -15.6881   -5.5951   17.7048 O.2     1  UNL1       -0.1684
     20 C         -16.3849   -6.7830   18.9353 C.ar    1  UNL1        0.1059
     21 C         -16.6943   -7.2794   17.5540 C.ar    1  UNL1        0.0192
     22 C         -17.0717   -8.7153   17.3401 C.ar    1  UNL1        0.0127
     23 C         -17.1397   -9.6548   18.5076 C.ar    1  UNL1        0.0578
     24 CL        -17.5171  -11.0907   18.2937 Cl      1  UNL1       -0.0822
     25 C         -16.8303   -9.1584   19.8888 C.ar    1  UNL1        0.0127
     26 C         -16.4529   -7.7224   20.1026 C.ar    1  UNL1        0.0192
     27 C         -15.9438   -0.0014   19.9677 C.3     1  UNL1        0.0550
     28 C         -16.9882    1.0709   19.8712 C.3     1  UNL1        0.1534
     29 S         -17.2229    1.9956   21.0287 S.O2    1  UNL1       -0.0085
     30 O         -16.2551    2.9787   20.4396 O.2     1  UNL1       -0.1729
     31 O         -18.1906    1.0126   21.6178 O.2     1  UNL1       -0.1729
     32 C         -17.4576    2.9203   22.1862 C.3     1  UNL1        0.1678
     33 C         -17.3956    2.3954   23.5900 C.3     1  UNL1        0.0942
     34 C         -19.7283    2.9553   24.5876 C.3     1  UNL1        0.0859
     35 N         -18.6516    1.9564   24.2827 N.3     1  UNL1       -0.2948
     36 H         -19.0749    1.2368   23.6966 H       1  UNL1        0.1233
@<TRIPOS>BOND
     1    34    35    1
     2    35    33    1
     3    33    32    1
     4    32    29    1
     5    29    30    2
     6    29    31    2
     7    29    28    1
     8    28    27    1
     9     1    27    1
    10     1     2    1
    11     2     3    1
    12     3     4    1
    13     4     5    1
    14     5    17    1
    15    17    18    2
    16    17    19    2
    17    17    20    1
    18    20    21   ar
    19    21    22   ar
    20    22    23   ar
    21    23    24    1
    22    23    25   ar
    23    25    26   ar
    24     5     6    1
    25     6     7   ar
    26     7     8    1
    27     7     9   ar
    28     9    10   ar
    29    10    11   ar
    30    11    12    1
    31    11    13   ar
    32    13    14    1
    33    14    15    1
    34    16    15    1
    35    16     1    1
    36    16     5    1
    37    26    20   ar
    38    13     6   ar
    39    35    36    1
@<TRIPOS>MOLECULE
*****
 36 39 0 0 0
SMALL
GASTEIGER

@<TRIPOS>ATOM
      1 C         -16.3074   -1.3794   19.6881 C.3     1  UNL1        0.1225
      2 O         -17.7516   -1.7803   19.6301 O.3     1  UNL1       -0.3559
      3 C         -18.1230   -3.2189   19.4246 C.3     1  UNL1        0.1441
      4 C         -17.0502   -4.2568   19.2772 C.3     1  UNL1        0.0589
      5 C         -15.6059   -3.8560   19.3353 C.3     1  UNL1        0.1466
      6 C         -14.5330   -4.8939   19.1879 C.ar    1  UNL1        0.0618
      7 C         -14.9044   -6.3326   18.9825 C.ar    1  UNL1        0.1407
      8 F         -16.2078   -7.0674   18.8769 F       1  UNL1       -0.2043
      9 C         -13.8316   -7.3705   18.8351 C.ar    1  UNL1        0.0319
     10 C         -12.3872   -6.9697   18.8931 C.ar    1  UNL1        0.0351
     11 C         -12.0158   -5.5310   19.0986 C.ar    1  UNL1        0.1737
     12 F         -10.5716   -5.1302   19.1566 F       1  UNL1       -0.2010
     13 C         -13.0887   -4.4931   19.2460 C.ar    1  UNL1        0.1655
     14 O         -12.7173   -3.0544   19.4514 O.3     1  UNL1       -0.4732
     15 C         -13.7902   -2.0165   19.5988 C.3     1  UNL1        0.2098
     16 C         -15.2345   -2.4173   19.5407 C.3     1  UNL1        0.0957
     17 S         -15.9774   -5.2947   19.1299 S.O2    1  UNL1        0.0094
     18 O         -16.2615   -5.7008   19.7542 O.2     1  UNL1       -0.1684
     19 O         -15.6713   -5.5456   17.6830 O.2     1  UNL1       -0.1684
     20 C         -16.3488   -6.7334   18.9244 C.ar    1  UNL1        0.1059
     21 C         -16.4357   -7.6608   20.1002 C.ar    1  UNL1        0.0192
     22 C         -16.8071   -9.0995   19.8948 C.ar    1  UNL1        0.0127
     23 C         -17.0916   -9.6108   18.5136 C.ar    1  UNL1        0.0578
     24 CL        -17.4630  -11.0495   18.3081 Cl      1  UNL1       -0.0822
     25 C         -17.0047   -8.6834   17.3379 C.ar    1  UNL1        0.0127
     26 C         -16.6333   -7.2447   17.5433 C.ar    1  UNL1        0.0192
     27 C         -15.9359    0.0593   19.8935 C.3     1  UNL1        0.0550
     28 C         -16.0551    1.0339   18.7596 C.3     1  UNL1        0.1534
     29 S         -14.9615    1.1331   17.7378 S.O2    1  UNL1       -0.0085
     30 O         -15.9481    0.8214   16.6517 O.2     1  UNL1       -0.1729
     31 O         -13.9750    1.4448   18.8238 O.2     1  UNL1       -0.1729
     32 C         -13.8680    1.2323   16.7159 C.3     1  UNL1        0.1678
     33 C         -12.4764    1.5982   17.1397 C.3     1  UNL1        0.0942
     34 C         -12.9732    4.0965   16.6280 C.3     1  UNL1        0.0859
     35 N         -12.0132    3.0217   17.0441 N.3     1  UNL1       -0.2948
     36 H         -11.6637    3.2802   17.9668 H       1  UNL1        0.1233
@<TRIPOS>BOND
     1    34    35    1
     2    35    33    1
     3    33    32    1
     4    32    29    1
     5    29    30    2
     6    29    31    2
     7    29    28    1
     8    28    27    1
     9     1    27    1
    10     1     2    1
    11     2     3    1
    12     3     4    1
    13     4     5    1
    14     5    17    1
    15    17    18    2
    16    17    19    2
    17    17    20    1
    18    20    21   ar
    19    21    22   ar
    20    22    23   ar
    21    23    24    1
    22    23    25   ar
    23    25    26   ar
    24     5     6    1
    25     6     7   ar
    26     7     8    1
    27     7     9   ar
    28     9    10   ar
    29    10    11   ar
    30    11    12    1
    31    11    13   ar
    32    13    14    1
    33    14    15    1
    34    16    15    1
    35    16     1    1
    36    16     5    1
    37    26    20   ar
    38    13     6   ar
    39    35    36    1
@<TRIPOS>MOLECULE
*****
 36 39 0 0 0
SMALL
GASTEIGER

@<TRIPOS>ATOM
      1 C           5.6459   -2.1925   25.2586 C.3     1  UNL1        0.1225
      2 O           5.0450   -0.8998   25.7251 O.3     1  UNL1       -0.3559
      3 C           4.2035   -0.0832   24.7897 C.3     1  UNL1        0.1441
      4 C           3.9628   -0.5593   23.3879 C.3     1  UNL1        0.0589
      5 C           4.5637   -1.8521   22.9214 C.3     1  UNL1        0.1466
      6 C           4.3230   -2.3283   21.5194 C.ar    1  UNL1        0.0618
      7 C           3.4815   -1.5117   20.5840 C.ar    1  UNL1        0.1407
      8 F           2.7473   -0.2097   20.7102 F       1  UNL1       -0.2043
      9 C           3.2408   -1.9878   19.1821 C.ar    1  UNL1        0.0319
     10 C           3.8417   -3.2806   18.7156 C.ar    1  UNL1        0.0351
     11 C           4.6833   -4.0972   19.6509 C.ar    1  UNL1        0.1737
     12 F           5.2842   -5.3900   19.1844 F       1  UNL1       -0.2010
     13 C           4.9239   -3.6210   21.0529 C.ar    1  UNL1        0.1655
     14 O           5.7655   -4.4376   21.9883 O.3     1  UNL1       -0.4732
     15 C           6.0062   -3.9615   23.3902 C.3     1  UNL1        0.2098
     16 C           5.4052   -2.6687   23.8567 C.3     1  UNL1        0.0957
     17 S           3.7221   -1.0355   21.9860 S.O2    1  UNL1        0.0094
     18 O           2.9338   -1.1534   21.9921 O.2     1  UNL1       -0.1684
     19 O           4.7145   -0.1726   21.2644 O.2     1  UNL1       -0.1684
     20 C           2.8806   -0.2188   21.0506 C.ar    1  UNL1        0.1059
     21 C           1.4077   -0.4820   20.9433 C.ar    1  UNL1        0.0192
     22 C           0.5661    0.3346   20.0079 C.ar    1  UNL1        0.0127
     23 C           1.1975    1.4144   19.1798 C.ar    1  UNL1        0.0578
     24 CL          0.3559    2.2310   18.2444 Cl      1  UNL1       -0.0822
     25 C           2.6703    1.6775   19.2872 C.ar    1  UNL1        0.0127
     26 C           3.5118    0.8609   20.2226 C.ar    1  UNL1        0.0192
     27 C           6.4875   -3.0091   26.1940 C.3     1  UNL1        0.0550
     28 C           6.0921   -3.1441   27.6346 C.3     1  UNL1        0.1534
     29 S           6.4889   -4.3652   28.4101 S.O2    1  UNL1       -0.0085
     30 O           6.4656   -3.5667   29.6796 O.2     1  UNL1       -0.1729
     31 O           6.5122   -5.1638   27.1405 O.2     1  UNL1       -0.1729
     32 C           6.8857   -5.5864   29.1855 C.3     1  UNL1        0.1678
     33 C           7.9861   -6.4713   28.6796 C.3     1  UNL1        0.0942
     34 C           8.5378   -8.2122   26.8316 C.3     1  UNL1        0.0859
     35 N           7.6535   -7.7368   27.9460 N.3     1  UNL1       -0.2948
     36 H           7.6296   -8.4826   28.6414 H       1  UNL1        0.1233
@<TRIPOS>BOND
     1    34    35    1
     2    35    33    1
     3    33    32    1
     4    32    29    1
     5    29    30    2
     6    29    31    2
     7    29    28    1
     8    28    27    1
     9     1    27    1
    10     1     2    1
    11     2     3    1
    12     3     4    1
    13     4     5    1
    14     5    17    1
    15    17    18    2
    16    17    19    2
    17    17    20    1
    18    20    21   ar
    19    21    22   ar
    20    22    23   ar
    21    23    24    1
    22    23    25   ar
    23    25    26   ar
    24     5     6    1
    25     6     7   ar
    26     7     8    1
    27     7     9   ar
    28     9    10   ar
    29    10    11   ar
    30    11    12    1
    31    11    13   ar
    32    13    14    1
    33    14    15    1
    34    16    15    1
    35    16     1    1
    36    16     5    1
    37    26    20   ar
    38    13     6   ar
    39    35    36    1
@<TRIPOS>MOLECULE
*****
 36 39 0 0 0
SMALL
GASTEIGER

@<TRIPOS>ATOM
      1 C           0.7054    1.8278   25.0835 C.3     1  UNL1        0.1225
      2 O           1.7456    0.8978   25.6339 O.3     1  UNL1       -0.3559
      3 C           2.6215    0.1155   24.7008 C.3     1  UNL1        0.1441
      4 C           2.4571    0.2632   23.2172 C.3     1  UNL1        0.0589
      5 C           1.4169    1.1932   22.6667 C.3     1  UNL1        0.1466
      6 C           1.2525    1.3409   21.1831 C.ar    1  UNL1        0.0618
      7 C           2.1284    0.5586   20.2499 C.ar    1  UNL1        0.1407
      8 F           3.2372   -0.4324   20.4464 F       1  UNL1       -0.2043
      9 C           1.9641    0.7063   18.7663 C.ar    1  UNL1        0.0319
     10 C           0.9238    1.6363   18.2158 C.ar    1  UNL1        0.0351
     11 C           0.0479    2.4186   19.1489 C.ar    1  UNL1        0.1737
     12 F          -0.9923    3.3486   18.5985 F       1  UNL1       -0.2010
     13 C           0.2123    2.2709   20.6326 C.ar    1  UNL1        0.1655
     14 O          -0.6636    3.0532   21.5658 O.3     1  UNL1       -0.4732
     15 C          -0.4992    2.9055   23.0494 C.3     1  UNL1        0.2098
     16 C           0.5410    1.9755   23.5999 C.3     1  UNL1        0.0957
     17 S           2.2928    0.4109   21.7336 S.O2    1  UNL1        0.0094
     18 O           2.1137   -0.3554   21.6062 O.2     1  UNL1       -0.1684
     19 O           3.3271    1.4024   21.2897 O.2     1  UNL1       -0.1684
     20 C           3.1687   -0.3714   20.8004 C.ar    1  UNL1        0.1059
     21 C           4.5085    0.1702   20.3983 C.ar    1  UNL1        0.0192
     22 C           5.3844   -0.6121   19.4652 C.ar    1  UNL1        0.0127
     23 C           4.9205   -1.9360   18.9340 C.ar    1  UNL1        0.0578
     24 CL          5.7964   -2.7183   18.0009 Cl      1  UNL1       -0.0822
     25 C           3.5807   -2.4776   19.3361 C.ar    1  UNL1        0.0127
     26 C           2.7048   -1.6953   20.2693 C.ar    1  UNL1        0.0192
     27 C          -0.1705    2.6101   26.0167 C.3     1  UNL1        0.0550
     28 C          -0.9366    1.9036   27.0955 C.3     1  UNL1        0.1534
     29 S          -0.2268    1.4181   28.3245 S.O2    1  UNL1       -0.0085
     30 O           0.4089    2.7666   28.4900 O.2     1  UNL1       -0.1729
     31 O          -0.8625    0.0696   28.1590 O.2     1  UNL1       -0.1729
     32 C           0.4830    0.9327   29.5535 C.3     1  UNL1        0.1678
     33 C           1.3596   -0.2824   29.4827 C.3     1  UNL1        0.0942
     34 C           3.4958   -0.9485   28.1625 C.3     1  UNL1        0.0859
     35 N           2.0256   -0.6525   28.1906 N.3     1  UNL1       -0.2948
     36 H           1.5508   -1.4855   27.8426 H       1  UNL1        0.1233
@<TRIPOS>BOND
     1    34    35    1
     2    35    33    1
     3    33    32    1
     4    32    29    1
     5    29    30    2
     6    29    31    2
     7    29    28    1
     8    28    27    1
     9     1    27    1
    10     1     2    1
    11     2     3    1
    12     3     4    1
    13     4     5    1
    14     5    17    1
    15    17    18    2
    16    17    19    2
    17    17    20    1
    18    20    21   ar
    19    21    22   ar
    20    22    23   ar
    21    23    24    1
    22    23    25   ar
    23    25    26   ar
    24     5     6    1
    25     6     7   ar
    26     7     8    1
    27     7     9   ar
    28     9    10   ar
    29    10    11   ar
    30    11    12    1
    31    11    13   ar
    32    13    14    1
    33    14    15    1
    34    16    15    1
    35    16     1    1
    36    16     5    1
    37    26    20   ar
    38    13     6   ar
    39    35    36    1
