@<TRIPOS>MOLECULE
*****
 28 30 0 0 0
SMALL
GASTEIGER

@<TRIPOS>ATOM
      1 C          -9.8769  -18.3164   22.7403 C.3     1  UNL1        0.0386
      2 C         -10.6056  -19.0218   21.6353 C.3     1  UNL1        0.0075
      3 C          -9.8491  -19.5351   20.4461 C.3     1  UNL1        0.0219
      4 C          -8.3638  -19.3430   20.3619 C.3     1  UNL1        0.0950
      5 N          -7.6351  -18.6375   21.4670 N.am    1  UNL1       -0.2636
      6 C          -6.1498  -18.4454   21.3829 C.2     1  UNL1        0.3077
      7 O          -5.4211  -17.7399   22.4880 O.2     1  UNL1       -0.2522
      8 N          -5.3933  -18.9587   20.1937 N.am    1  UNL1       -0.2681
      9 C          -8.3916  -18.1242   22.6562 C.3     1  UNL1        0.0989
     10 H          -5.8716  -19.4217   19.4684 H       1  UNL1        0.1564
     11 C          -3.9081  -18.7665   20.1096 C.ar    1  UNL1        0.0516
     12 C          -3.0070  -19.4435   21.0996 C.ar    1  UNL1        0.0156
     13 C          -1.5219  -19.2514   21.0156 C.ar    1  UNL1        0.0127
     14 C          -0.9375  -18.3822   19.9417 C.ar    1  UNL1        0.0578
     15 CL          0.5478  -18.1901   19.8577 Cl      1  UNL1       -0.0822
     16 C          -1.8385  -17.7052   18.9518 C.ar    1  UNL1        0.0127
     17 C          -3.3238  -17.8974   19.0358 C.ar    1  UNL1        0.0156
     18 C         -11.2781  -18.2563   23.2725 C.ar    1  UNL1       -0.0211
     19 C         -12.3560  -17.5866   22.4727 C.ar    1  UNL1       -0.0042
     20 C         -13.7571  -17.5266   23.0048 C.ar    1  UNL1       -0.0003
     21 C         -14.0803  -18.1361   24.3368 C.ar    1  UNL1       -0.0000
     22 C         -13.0024  -18.8057   25.1365 C.ar    1  UNL1       -0.0003
     23 C         -11.6013  -18.8658   24.6044 C.ar    1  UNL1       -0.0042
     24 C          -9.6347  -17.5900   24.0303 C.3     1  UNL1        0.0230
     25 C          -9.2401  -16.1430   24.0135 C.3     1  UNL1        0.0726
     26 C          -6.8857  -15.1044   24.3716 C.3     1  UNL1        0.0897
     27 N          -8.1651  -15.6481   24.9352 N.3     1  UNL1       -0.2703
     28 C          -8.3695  -15.6968   26.4204 C.3     1  UNL1        0.0897
@<TRIPOS>BOND
     1    26    27    1
     2    27    28    1
     3    27    25    1
     4    25    24    1
     5    24     1    1
     6     1    18    1
     7    18    19   ar
     8    19    20   ar
     9    20    21   ar
    10    21    22   ar
    11    22    23   ar
    12     1     2    1
    13     2     3    1
    14     3     4    1
    15     4     5    1
    16     5     6   am
    17     6     7    2
    18     6     8   am
    19     8    11    1
    20    11    12   ar
    21    12    13   ar
    22    13    14   ar
    23    14    15    1
    24    14    16   ar
    25    16    17   ar
    26     5     9    1
    27     9     1    1
    28    23    18   ar
    29    17    11   ar
    30     8    10    1
@<TRIPOS>MOLECULE
*****
 28 30 0 0 0
SMALL
GASTEIGER

@<TRIPOS>ATOM
      1 C         -10.5926  -18.5198   23.2687 C.3     1  UNL1        0.0386
      2 C         -10.7256  -19.8488   23.9512 C.3     1  UNL1        0.0075
      3 C          -9.5567  -20.7876   23.9994 C.3     1  UNL1        0.0219
      4 C          -8.2546  -20.3971   23.3651 C.3     1  UNL1        0.0950
      5 N          -8.1215  -19.0681   22.6827 N.am    1  UNL1       -0.2636
      6 C          -6.8195  -18.6777   22.0484 C.2     1  UNL1        0.3077
      7 O          -6.6865  -17.3486   21.3659 O.2     1  UNL1       -0.2522
      8 N          -5.6505  -19.6164   22.0967 N.am    1  UNL1       -0.2681
      9 C          -9.2905  -18.1294   22.6344 C.3     1  UNL1        0.0989
     10 H          -5.7378  -20.4887   22.5446 H       1  UNL1        0.1564
     11 C          -4.3485  -19.2259   21.4624 C.ar    1  UNL1        0.0516
     12 C          -3.2083  -18.7580   22.3175 C.ar    1  UNL1        0.0156
     13 C          -1.9063  -18.3675   21.6833 C.ar    1  UNL1        0.0127
     14 C          -1.7444  -18.4449   20.1940 C.ar    1  UNL1        0.0578
     15 CL         -0.4423  -18.0544   19.5598 Cl      1  UNL1       -0.0822
     16 C          -2.8846  -18.9128   19.3390 C.ar    1  UNL1        0.0127
     17 C          -4.1866  -19.3033   19.9732 C.ar    1  UNL1        0.0156
     18 C         -12.0207  -18.4388   23.7204 C.ar    1  UNL1       -0.0211
     19 C         -13.1026  -18.1169   22.7327 C.ar    1  UNL1       -0.0042
     20 C         -14.5307  -18.0359   23.1844 C.ar    1  UNL1       -0.0003
     21 C         -14.8768  -18.2769   24.6239 C.ar    1  UNL1       -0.0000
     22 C         -13.7948  -18.5988   25.6116 C.ar    1  UNL1       -0.0003
     23 C         -12.3668  -18.6798   25.1599 C.ar    1  UNL1       -0.0042
     24 C         -10.9555  -17.1625   22.7431 C.3     1  UNL1        0.0230
     25 C         -10.2939  -16.6367   21.5038 C.3     1  UNL1        0.0726
     26 C         -11.0434  -18.2124   19.5788 C.3     1  UNL1        0.0897
     27 N         -10.9419  -16.8357   20.1657 N.3     1  UNL1       -0.2703
     28 C         -11.4884  -15.6579   19.4145 C.3     1  UNL1        0.0897
@<TRIPOS>BOND
     1    26    27    1
     2    27    28    1
     3    27    25    1
     4    25    24    1
     5    24     1    1
     6     1    18    1
     7    18    19   ar
     8    19    20   ar
     9    20    21   ar
    10    21    22   ar
    11    22    23   ar
    12     1     2    1
    13     2     3    1
    14     3     4    1
    15     4     5    1
    16     5     6   am
    17     6     7    2
    18     6     8   am
    19     8    11    1
    20    11    12   ar
    21    12    13   ar
    22    13    14   ar
    23    14    15    1
    24    14    16   ar
    25    16    17   ar
    26     5     9    1
    27     9     1    1
    28    23    18   ar
    29    17    11   ar
    30     8    10    1
