@<TRIPOS>MOLECULE
*****
 25 27 0 0 0
SMALL
GASTEIGER

@<TRIPOS>ATOM
      1 N          -4.7708  -17.0957   23.3763 N.ar    1  UNL1       -0.3165
      2 C          -3.4814  -17.8218   23.1307 C.ar    1  UNL1        0.0779
      3 C          -3.7884  -19.0544   22.3328 C.ar    1  UNL1        0.0392
      4 C          -5.2674  -19.0900   22.0853 C.ar    1  UNL1        0.0985
      5 N          -6.1397  -20.0682   21.3559 N.ar    1  UNL1       -0.2423
      6 C          -7.6192  -19.8360   21.2715 C.ar    1  UNL1        0.0989
      7 C          -8.2263  -18.6254   21.9165 C.ar    1  UNL1        0.0206
      8 C          -7.3540  -17.6471   22.6458 C.ar    1  UNL1        0.0203
      9 C          -5.8746  -17.8794   22.7302 C.ar    1  UNL1        0.0782
     10 C          -9.7059  -18.3932   21.8320 C.ar    1  UNL1        0.0015
     11 C         -10.3348  -18.0331   20.5187 C.ar    1  UNL1        0.0000
     12 C         -11.8144  -17.8009   20.4343 C.ar    1  UNL1       -0.0001
     13 C         -12.6649  -17.9288   21.6632 C.ar    1  UNL1        0.0039
     14 C         -12.0359  -18.2889   22.9765 C.ar    1  UNL1        0.0714
     15 C         -10.5565  -18.5211   23.0609 C.ar    1  UNL1        0.0039
     16 C         -12.8865  -18.4168   24.2054 C.3     1  UNL1        0.4186
     17 F         -13.7371  -18.5446   25.4343 F       1  UNL1       -0.1659
     18 F         -14.0800  -17.9456   23.4284 F       1  UNL1       -0.1659
     19 F         -11.6931  -18.8879   24.9824 F       1  UNL1       -0.1659
     20 C          -4.9287  -15.8113   24.1349 C.3     1  UNL1        0.1920
     21 C          -7.6025  -15.3163   27.0254 C.3     1  UNL1        0.1150
     22 N          -6.9667  -15.3116   25.6669 N.am    1  UNL1       -0.2744
     23 C          -7.7327  -14.8028   24.4819 C.3     1  UNL1        0.1150
     24 C          -5.5646  -15.8159   25.4934 C.2     1  UNL1        0.2488
     25 O          -4.7986  -16.3247   26.6784 O.2     1  UNL1       -0.2728
@<TRIPOS>BOND
     1    21    22    1
     2    22    23    1
     3    22    24   am
     4    24    25    2
     5    24    20    1
     6    20     1    1
     7     1     2   ar
     8     2     3   ar
     9     3     4   ar
    10     4     5   ar
    11     5     6   ar
    12     6     7   ar
    13     7    10    1
    14    10    11   ar
    15    11    12   ar
    16    12    13   ar
    17    13    14   ar
    18    14    16    1
    19    16    17    1
    20    16    18    1
    21    16    19    1
    22    14    15   ar
    23     7     8   ar
    24     8     9   ar
    25     9     1   ar
    26     9     4   ar
    27    15    10   ar
@<TRIPOS>MOLECULE
*****
 25 27 0 0 0
SMALL
GASTEIGER

@<TRIPOS>ATOM
      1 N         -10.3385  -17.5864   22.0350 N.ar    1  UNL1       -0.3165
      2 C         -11.6028  -17.9602   21.3196 C.ar    1  UNL1        0.0779
      3 C         -11.2398  -18.8632   20.1782 C.ar    1  UNL1        0.0392
      4 C          -9.7511  -19.0475   20.1882 C.ar    1  UNL1        0.0985
      5 N          -8.8309  -19.8318   19.3006 N.ar    1  UNL1       -0.2423
      6 C          -7.3536  -19.8271   19.5606 C.ar    1  UNL1        0.0989
      7 C          -6.7966  -19.0379   20.7082 C.ar    1  UNL1        0.0206
      8 C          -7.7169  -18.2536   21.5958 C.ar    1  UNL1        0.0203
      9 C          -9.1941  -18.2583   21.3358 C.ar    1  UNL1        0.0782
     10 C          -5.3193  -19.0332   20.9682 C.ar    1  UNL1        0.0015
     11 C          -4.7925  -19.4488   22.3097 C.ar    1  UNL1        0.0000
     12 C          -3.3152  -19.4441   22.5696 C.ar    1  UNL1       -0.0001
     13 C          -2.3647  -19.0237   21.4881 C.ar    1  UNL1        0.0039
     14 C          -2.8915  -18.6080   20.1465 C.ar    1  UNL1        0.0714
     15 C          -4.3688  -18.6127   19.8866 C.ar    1  UNL1        0.0039
     16 C          -1.9410  -18.1876   19.0649 C.3     1  UNL1        0.4186
     17 F          -0.9906  -17.7671   17.9833 F       1  UNL1       -0.1659
     18 F          -0.8446  -18.9706   19.7241 F       1  UNL1       -0.1659
     19 F          -3.0375  -17.4045   18.4057 F       1  UNL1       -0.1659
     20 C         -10.2365  -16.6968   23.2384 C.3     1  UNL1        0.1920
     21 C          -8.4443  -17.1107   26.7550 C.3     1  UNL1        0.1150
     22 N          -8.8507  -16.5365   25.4303 N.am    1  UNL1       -0.2744
     23 C          -8.2780  -15.2279   24.9725 C.3     1  UNL1        0.1150
     24 C          -9.8300  -17.2710   24.5633 C.2     1  UNL1        0.2488
     25 O         -10.4027  -18.5796   25.0211 O.2     1  UNL1       -0.2728
@<TRIPOS>BOND
     1    21    22    1
     2    22    23    1
     3    22    24   am
     4    24    25    2
     5    24    20    1
     6    20     1    1
     7     1     2   ar
     8     2     3   ar
     9     3     4   ar
    10     4     5   ar
    11     5     6   ar
    12     6     7   ar
    13     7    10    1
    14    10    11   ar
    15    11    12   ar
    16    12    13   ar
    17    13    14   ar
    18    14    16    1
    19    16    17    1
    20    16    18    1
    21    16    19    1
    22    14    15   ar
    23     7     8   ar
    24     8     9   ar
    25     9     1   ar
    26     9     4   ar
    27    15    10   ar
@<TRIPOS>MOLECULE
*****
 25 27 0 0 0
SMALL
GASTEIGER

@<TRIPOS>ATOM
      1 N         -10.1729  -16.7562   23.2181 N.ar    1  UNL1       -0.3165
      2 C         -11.6107  -16.7103   22.7928 C.ar    1  UNL1        0.0779
      3 C         -11.7571  -17.5552   21.5620 C.ar    1  UNL1        0.0392
      4 C         -10.4099  -18.1231   21.2266 C.ar    1  UNL1        0.0985
      5 N          -9.9482  -19.0261   20.1215 N.ar    1  UNL1       -0.2423
      6 C          -8.5074  -19.4354   20.0399 C.ar    1  UNL1        0.0989
      7 C          -7.5284  -18.9416   21.0634 C.ar    1  UNL1        0.0206
      8 C          -7.9901  -18.0386   22.1685 C.ar    1  UNL1        0.0203
      9 C          -9.4308  -17.6294   22.2501 C.ar    1  UNL1        0.0782
     10 C          -6.0875  -19.3509   20.9818 C.ar    1  UNL1        0.0015
     11 C          -5.6631  -20.4117   20.0100 C.ar    1  UNL1        0.0000
     12 C          -4.2223  -20.8209   19.9283 C.ar    1  UNL1       -0.0001
     13 C          -3.2059  -20.1693   20.8185 C.ar    1  UNL1        0.0039
     14 C          -3.6304  -19.1085   21.7904 C.ar    1  UNL1        0.0714
     15 C          -5.0712  -18.6992   21.8720 C.ar    1  UNL1        0.0039
     16 C          -2.6141  -18.4569   22.6806 C.3     1  UNL1        0.4186
     17 F          -1.5978  -17.8053   23.5708 F       1  UNL1       -0.1659
     18 F          -1.5408  -18.7612   21.6779 F       1  UNL1       -0.1659
     19 F          -3.6874  -18.1525   23.6833 F       1  UNL1       -0.1659
     20 C          -9.5812  -16.0525   24.4032 C.3     1  UNL1        0.1920
     21 C          -5.8859  -15.1663   25.5477 C.3     1  UNL1        0.1150
     22 N          -7.3072  -15.6437   25.5916 N.am    1  UNL1       -0.2744
     23 C          -7.8760  -16.1896   26.8677 C.3     1  UNL1        0.1150
     24 C          -8.1598  -15.5751   24.3594 C.2     1  UNL1        0.2488
     25 O          -7.5910  -15.0292   23.0832 O.2     1  UNL1       -0.2728
@<TRIPOS>BOND
     1    21    22    1
     2    22    23    1
     3    22    24   am
     4    24    25    2
     5    24    20    1
     6    20     1    1
     7     1     2   ar
     8     2     3   ar
     9     3     4   ar
    10     4     5   ar
    11     5     6   ar
    12     6     7   ar
    13     7    10    1
    14    10    11   ar
    15    11    12   ar
    16    12    13   ar
    17    13    14   ar
    18    14    16    1
    19    16    17    1
    20    16    18    1
    21    16    19    1
    22    14    15   ar
    23     7     8   ar
    24     8     9   ar
    25     9     1   ar
    26     9     4   ar
    27    15    10   ar
@<TRIPOS>MOLECULE
*****
 25 27 0 0 0
SMALL
GASTEIGER

@<TRIPOS>ATOM
      1 N          -8.8194  -16.4029   23.8949 N.ar    1  UNL1       -0.3165
      2 C          -9.1800  -15.5544   25.0782 C.ar    1  UNL1        0.0779
      3 C          -7.9129  -15.2037   25.8003 C.ar    1  UNL1        0.0392
      4 C          -6.7693  -15.8354   25.0634 C.ar    1  UNL1        0.0985
      5 N          -5.2901  -15.8316   25.3126 N.ar    1  UNL1       -0.2423
      6 C          -4.3713  -16.5689   24.3841 C.ar    1  UNL1        0.0989
      7 C          -4.9316  -17.3100   23.2065 C.ar    1  UNL1        0.0206
      8 C          -6.4107  -17.3139   22.9573 C.ar    1  UNL1        0.0203
      9 C          -7.3295  -16.5766   23.8858 C.ar    1  UNL1        0.0782
     10 C          -4.0126  -18.0473   22.2780 C.ar    1  UNL1        0.0015
     11 C          -4.3544  -19.4382   21.8326 C.ar    1  UNL1        0.0000
     12 C          -3.4355  -20.1756   20.9041 C.ar    1  UNL1       -0.0001
     13 C          -2.1748  -19.5218   20.4211 C.ar    1  UNL1        0.0039
     14 C          -1.8330  -18.1308   20.8665 C.ar    1  UNL1        0.0714
     15 C          -2.7520  -17.3936   21.7949 C.ar    1  UNL1        0.0039
     16 C          -0.5724  -17.4771   20.3835 C.3     1  UNL1        0.4186
     17 F           0.6883  -16.8234   19.9004 F       1  UNL1       -0.1659
     18 F          -0.1309  -18.7762   19.7774 F       1  UNL1       -0.1659
     19 F          -1.0138  -16.1779   20.9895 F       1  UNL1       -0.1659
     20 C          -9.7801  -16.9769   22.8961 C.3     1  UNL1        0.1920
     21 C         -11.5416  -15.8100   19.5367 C.3     1  UNL1        0.1150
     22 N         -11.2923  -16.5227   20.8328 N.am    1  UNL1       -0.2744
     23 C         -12.3055  -17.4942   21.3615 C.3     1  UNL1        0.1150
     24 C         -10.0296  -16.2641   21.6000 C.2     1  UNL1        0.2488
     25 O          -9.0163  -15.2926   21.0712 O.2     1  UNL1       -0.2728
@<TRIPOS>BOND
     1    21    22    1
     2    22    23    1
     3    22    24   am
     4    24    25    2
     5    24    20    1
     6    20     1    1
     7     1     2   ar
     8     2     3   ar
     9     3     4   ar
    10     4     5   ar
    11     5     6   ar
    12     6     7   ar
    13     7    10    1
    14    10    11   ar
    15    11    12   ar
    16    12    13   ar
    17    13    14   ar
    18    14    16    1
    19    16    17    1
    20    16    18    1
    21    16    19    1
    22    14    15   ar
    23     7     8   ar
    24     8     9   ar
    25     9     1   ar
    26     9     4   ar
    27    15    10   ar
@<TRIPOS>MOLECULE
*****
 25 27 0 0 0
SMALL
GASTEIGER

@<TRIPOS>ATOM
      1 N          -8.8229  -16.9943   23.8516 N.ar    1  UNL1       -0.3165
      2 C          -9.2846  -15.9576   24.8324 C.ar    1  UNL1        0.0779
      3 C          -8.0833  -15.1839   25.2888 C.ar    1  UNL1        0.0392
      4 C          -6.8792  -15.7424   24.5900 C.ar    1  UNL1        0.0985
      5 N          -5.4257  -15.3767   24.6478 N.ar    1  UNL1       -0.2423
      6 C          -4.4293  -16.1299   23.8173 C.ar    1  UNL1        0.0989
      7 C          -4.8864  -17.2488   22.9290 C.ar    1  UNL1        0.0206
      8 C          -6.3400  -17.6145   22.8712 C.ar    1  UNL1        0.0203
      9 C          -7.3364  -16.8613   23.7017 C.ar    1  UNL1        0.0782
     10 C          -3.8899  -18.0020   22.0984 C.ar    1  UNL1        0.0015
     11 C          -4.1475  -19.4338   21.7333 C.ar    1  UNL1        0.0000
     12 C          -3.1510  -20.1870   20.9027 C.ar    1  UNL1       -0.0001
     13 C          -1.8969  -19.5083   20.4374 C.ar    1  UNL1        0.0039
     14 C          -1.6393  -18.0763   20.8026 C.ar    1  UNL1        0.0714
     15 C          -2.6358  -17.3232   21.6331 C.ar    1  UNL1        0.0039
     16 C          -0.3852  -17.3976   20.3372 C.3     1  UNL1        0.4186
     17 F           0.8689  -16.7189   19.8719 F       1  UNL1       -0.1659
     18 F          -0.8600  -16.1081   20.9386 F       1  UNL1       -0.1659
     19 F           0.0896  -18.6871   19.7358 F       1  UNL1       -0.1659
     20 C          -9.6948  -17.9893   23.1446 C.3     1  UNL1        0.1920
     21 C         -13.6166  -17.9346   23.7498 C.3     1  UNL1        0.1150
     22 N         -12.2628  -17.5985   23.1983 N.am    1  UNL1       -0.2744
     23 C         -12.1230  -16.5355   22.1493 C.3     1  UNL1        0.1150
     24 C         -11.0488  -18.3254   23.6960 C.2     1  UNL1        0.2488
     25 O         -11.1886  -19.3884   24.7450 O.2     1  UNL1       -0.2728
@<TRIPOS>BOND
     1    21    22    1
     2    22    23    1
     3    22    24   am
     4    24    25    2
     5    24    20    1
     6    20     1    1
     7     1     2   ar
     8     2     3   ar
     9     3     4   ar
    10     4     5   ar
    11     5     6   ar
    12     6     7   ar
    13     7    10    1
    14    10    11   ar
    15    11    12   ar
    16    12    13   ar
    17    13    14   ar
    18    14    16    1
    19    16    17    1
    20    16    18    1
    21    16    19    1
    22    14    15   ar
    23     7     8   ar
    24     8     9   ar
    25     9     1   ar
    26     9     4   ar
    27    15    10   ar
@<TRIPOS>MOLECULE
*****
 25 27 0 0 0
SMALL
GASTEIGER

@<TRIPOS>ATOM
      1 N           3.6593   -0.3700   27.7020 N.ar    1  UNL1       -0.3165
      2 C           4.5371   -0.7145   28.8685 C.ar    1  UNL1        0.0779
      3 C           5.5950   -1.6633   28.3882 C.ar    1  UNL1        0.0392
      4 C           5.3709   -1.9052   26.9248 C.ar    1  UNL1        0.0985
      5 N           6.1017   -2.7500   25.9237 N.ar    1  UNL1       -0.2423
      6 C           5.6361   -2.7954   24.4986 C.ar    1  UNL1        0.0989
      7 C           4.4398   -1.9961   24.0745 C.ar    1  UNL1        0.0206
      8 C           3.7090   -1.1513   25.0756 C.ar    1  UNL1        0.0203
      9 C           4.1746   -1.1058   26.5008 C.ar    1  UNL1        0.0782
     10 C           3.9742   -2.0416   22.6493 C.ar    1  UNL1        0.0015
     11 C           3.0860   -0.9571   22.1155 C.ar    1  UNL1        0.0000
     12 C           2.6204   -1.0026   20.6902 C.ar    1  UNL1       -0.0001
     13 C           3.0431   -2.1326   19.7988 C.ar    1  UNL1        0.0039
     14 C           3.9314   -3.2170   20.3327 C.ar    1  UNL1        0.0714
     15 C           4.3970   -3.1715   21.7579 C.ar    1  UNL1        0.0039
     16 C           4.3542   -4.3470   19.4414 C.3     1  UNL1        0.4186
     17 F           4.7769   -5.4769   18.5500 F       1  UNL1       -0.1659
     18 F           5.7574   -4.2297   19.9582 F       1  UNL1       -0.1659
     19 F           2.9509   -4.4642   18.9245 F       1  UNL1       -0.1659
     20 C           2.4742    0.5491   27.7316 C.3     1  UNL1        0.1920
     21 C          -1.3338    0.1210   28.7643 C.3     1  UNL1        0.1150
     22 N          -0.1115    0.4984   27.9810 N.am    1  UNL1       -0.2744
     23 C          -0.2523    1.2025   26.6640 C.3     1  UNL1        0.1150
     24 C           1.2517    0.1717   28.5148 C.2     1  UNL1        0.2488
     25 O           1.3926   -0.5324   29.8318 O.2     1  UNL1       -0.2728
@<TRIPOS>BOND
     1    21    22    1
     2    22    23    1
     3    22    24   am
     4    24    25    2
     5    24    20    1
     6    20     1    1
     7     1     2   ar
     8     2     3   ar
     9     3     4   ar
    10     4     5   ar
    11     5     6   ar
    12     6     7   ar
    13     7    10    1
    14    10    11   ar
    15    11    12   ar
    16    12    13   ar
    17    13    14   ar
    18    14    16    1
    19    16    17    1
    20    16    18    1
    21    16    19    1
    22    14    15   ar
    23     7     8   ar
    24     8     9   ar
    25     9     1   ar
    26     9     4   ar
    27    15    10   ar
@<TRIPOS>MOLECULE
*****
 25 27 0 0 0
SMALL
GASTEIGER

@<TRIPOS>ATOM
      1 N           7.1607   -3.0832   26.6073 N.ar    1  UNL1       -0.3165
      2 C           7.0833   -2.5870   28.0208 C.ar    1  UNL1        0.0779
      3 C           5.8901   -1.6846   28.1304 C.ar    1  UNL1        0.0392
      4 C           5.2301   -1.6231   26.7848 C.ar    1  UNL1        0.0985
      5 N           4.0155   -0.8918   26.2951 N.ar    1  UNL1       -0.2423
      6 C           3.5863   -1.0248   24.8640 C.ar    1  UNL1        0.0989
      7 C           4.3716   -1.8892   23.9227 C.ar    1  UNL1        0.0206
      8 C           5.5862   -2.6205   24.4124 C.ar    1  UNL1        0.0203
      9 C           6.0154   -2.4875   25.8435 C.ar    1  UNL1        0.0782
     10 C           3.9423   -2.0222   22.4915 C.ar    1  UNL1        0.0015
     11 C           3.0535   -0.9828   21.8755 C.ar    1  UNL1        0.0000
     12 C           2.6242   -1.1158   20.4443 C.ar    1  UNL1       -0.0001
     13 C           3.0838   -2.2882   19.6293 C.ar    1  UNL1        0.0039
     14 C           3.9727   -3.3276   20.2455 C.ar    1  UNL1        0.0714
     15 C           4.4019   -3.1946   21.6765 C.ar    1  UNL1        0.0039
     16 C           4.4323   -4.5000   19.4305 C.3     1  UNL1        0.4186
     17 F           4.8919   -5.6724   18.6154 F       1  UNL1       -0.1659
     18 F           5.8504   -4.2249   19.8344 F       1  UNL1       -0.1659
     19 F           3.0141   -4.7751   19.0265 F       1  UNL1       -0.1659
     20 C           8.2009   -4.0120   26.0548 C.3     1  UNL1        0.1920
     21 C           7.2767   -7.8699   26.1679 C.3     1  UNL1        0.1150
     22 N           7.6637   -6.4914   26.6152 N.am    1  UNL1       -0.2744
     23 C           7.9004   -6.2139   28.0701 C.3     1  UNL1        0.1150
     24 C           7.8139   -5.3905   25.6075 C.2     1  UNL1        0.2488
     25 O           7.5771   -5.6681   24.1525 O.2     1  UNL1       -0.2728
@<TRIPOS>BOND
     1    21    22    1
     2    22    23    1
     3    22    24   am
     4    24    25    2
     5    24    20    1
     6    20     1    1
     7     1     2   ar
     8     2     3   ar
     9     3     4   ar
    10     4     5   ar
    11     5     6   ar
    12     6     7   ar
    13     7    10    1
    14    10    11   ar
    15    11    12   ar
    16    12    13   ar
    17    13    14   ar
    18    14    16    1
    19    16    17    1
    20    16    18    1
    21    16    19    1
    22    14    15   ar
    23     7     8   ar
    24     8     9   ar
    25     9     1   ar
    26     9     4   ar
    27    15    10   ar
@<TRIPOS>MOLECULE
*****
 25 27 0 0 0
SMALL
GASTEIGER

@<TRIPOS>ATOM
      1 N          -0.0811    2.7989   23.3531 N.ar    1  UNL1       -0.3165
      2 C          -0.2202    2.8084   24.8466 C.ar    1  UNL1        0.0779
      3 C           0.6498    1.7189   25.4000 C.ar    1  UNL1        0.0392
      4 C           1.3264    1.0361   24.2485 C.ar    1  UNL1        0.0985
      5 N           2.2955   -0.1072   24.1885 N.ar    1  UNL1       -0.2423
      6 C           2.8129   -0.5830   22.8634 C.ar    1  UNL1        0.0989
      7 C           2.3612    0.0845   21.5984 C.ar    1  UNL1        0.0206
      8 C           1.3921    1.2278   21.6584 C.ar    1  UNL1        0.0203
      9 C           0.8747    1.7036   22.9835 C.ar    1  UNL1        0.0782
     10 C           2.8786   -0.3914   20.2732 C.ar    1  UNL1        0.0015
     11 C           2.9323    0.5504   19.1070 C.ar    1  UNL1        0.0000
     12 C           3.4497    0.0745   17.7819 C.ar    1  UNL1       -0.0001
     13 C           3.9134   -1.3432   17.6231 C.ar    1  UNL1        0.0039
     14 C           3.8597   -2.2850   18.7894 C.ar    1  UNL1        0.0714
     15 C           3.3423   -1.8091   20.1144 C.ar    1  UNL1        0.0039
     16 C           4.3234   -3.7026   18.6306 C.3     1  UNL1        0.4186
     17 F           4.7871   -5.1203   18.4718 F       1  UNL1       -0.1659
     18 F           2.9910   -4.1927   19.1150 F       1  UNL1       -0.1659
     19 F           5.6557   -3.2126   18.1461 F       1  UNL1       -0.1659
     20 C          -0.7760    3.7226   22.3971 C.3     1  UNL1        0.1920
     21 C          -4.6560    3.2025   21.7450 C.3     1  UNL1        0.1150
     22 N          -3.3723    3.6243   22.3962 N.am    1  UNL1       -0.2744
     23 C          -3.4009    4.3695   23.6976 C.3     1  UNL1        0.1150
     24 C          -2.0598    3.3008   21.7459 C.2     1  UNL1        0.2488
     25 O          -2.0312    2.5556   20.4444 O.2     1  UNL1       -0.2728
@<TRIPOS>BOND
     1    21    22    1
     2    22    23    1
     3    22    24   am
     4    24    25    2
     5    24    20    1
     6    20     1    1
     7     1     2   ar
     8     2     3   ar
     9     3     4   ar
    10     4     5   ar
    11     5     6   ar
    12     6     7   ar
    13     7    10    1
    14    10    11   ar
    15    11    12   ar
    16    12    13   ar
    17    13    14   ar
    18    14    16    1
    19    16    17    1
    20    16    18    1
    21    16    19    1
    22    14    15   ar
    23     7     8   ar
    24     8     9   ar
    25     9     1   ar
    26     9     4   ar
    27    15    10   ar
@<TRIPOS>MOLECULE
*****
 25 27 0 0 0
SMALL
GASTEIGER

@<TRIPOS>ATOM
      1 N          -7.7176  -15.8191   24.4888 N.ar    1  UNL1       -0.3165
      2 C          -6.8237  -14.9389   25.3112 C.ar    1  UNL1        0.0779
      3 C          -5.4019  -15.2874   24.9841 C.ar    1  UNL1        0.0392
      4 C          -5.4170  -16.3830   23.9596 C.ar    1  UNL1        0.0985
      5 N          -4.3125  -17.1238   23.2660 N.ar    1  UNL1       -0.2423
      6 C          -4.6391  -18.1932   22.2662 C.ar    1  UNL1        0.0989
      7 C          -6.0703  -18.5217   21.9600 C.ar    1  UNL1        0.0206
      8 C          -7.1748  -17.7809   22.6537 C.ar    1  UNL1        0.0203
      9 C          -6.8482  -16.7115   23.6535 C.ar    1  UNL1        0.0782
     10 C          -6.3970  -19.5912   20.9602 C.ar    1  UNL1        0.0015
     11 C          -5.4691  -20.7555   20.7772 C.ar    1  UNL1        0.0000
     12 C          -5.7958  -21.8249   19.7774 C.ar    1  UNL1       -0.0001
     13 C          -7.0503  -21.7300   18.9605 C.ar    1  UNL1        0.0039
     14 C          -7.9781  -20.5656   19.1435 C.ar    1  UNL1        0.0714
     15 C          -7.6514  -19.4963   20.1433 C.ar    1  UNL1        0.0039
     16 C          -9.2326  -20.4707   18.3266 C.3     1  UNL1        0.4186
     17 F         -10.4871  -20.3758   17.5098 F       1  UNL1       -0.1659
     18 F          -9.6626  -19.2764   19.1258 F       1  UNL1       -0.1659
     19 F          -8.8026  -21.6650   17.5275 F       1  UNL1       -0.1659
     20 C          -9.2175  -15.8086   24.4997 C.3     1  UNL1        0.1920
     21 C         -11.7852  -18.5807   23.2863 C.3     1  UNL1        0.1150
     22 N         -11.0257  -17.2897   23.3651 N.am    1  UNL1       -0.2744
     23 C         -11.3147  -16.1886   22.3884 C.3     1  UNL1        0.1150
     24 C          -9.9771  -17.0997   24.4208 C.2     1  UNL1        0.2488
     25 O          -9.6881  -18.2008   25.3976 O.2     1  UNL1       -0.2728
@<TRIPOS>BOND
     1    21    22    1
     2    22    23    1
     3    22    24   am
     4    24    25    2
     5    24    20    1
     6    20     1    1
     7     1     2   ar
     8     2     3   ar
     9     3     4   ar
    10     4     5   ar
    11     5     6   ar
    12     6     7   ar
    13     7    10    1
    14    10    11   ar
    15    11    12   ar
    16    12    13   ar
    17    13    14   ar
    18    14    16    1
    19    16    17    1
    20    16    18    1
    21    16    19    1
    22    14    15   ar
    23     7     8   ar
    24     8     9   ar
    25     9     1   ar
    26     9     4   ar
    27    15    10   ar
