@<TRIPOS>MOLECULE
*****
 33 36 0 0 0
SMALL
GASTEIGER

@<TRIPOS>ATOM
      1 C         -10.3814  -17.6522   24.3309 C.ar    1  UNL1        0.0284
      2 C          -9.9592  -16.2390   24.0577 C.ar    1  UNL1        0.0027
      3 C          -8.9351  -15.5796   24.9331 C.ar    1  UNL1        0.0339
      4 C          -8.3332  -16.3334   26.0818 C.ar    1  UNL1        0.1311
      5 N          -8.7554  -17.7466   26.3550 N.ar    1  UNL1       -0.2035
      6 C          -9.7795  -18.4060   25.4796 C.ar    1  UNL1        0.2196
      7 F         -10.2016  -19.8192   25.7528 F       1  UNL1       -0.1835
      8 N          -7.3091  -15.6739   26.9572 N.pl3   1  UNL1       -0.3144
      9 H          -7.4156  -15.6881   27.9359 H       1  UNL1        0.1485
     10 C          -6.1228  -14.9930   26.3416 C.3     1  UNL1        0.1169
     11 C          -5.2263  -15.7485   25.4060 C.ar    1  UNL1        0.0166
     12 C          -4.4154  -16.9039   25.9135 C.ar    1  UNL1        0.0014
     13 C          -3.5190  -17.6594   24.9779 C.ar    1  UNL1        0.0305
     14 C          -3.4333  -17.2597   23.5347 C.ar    1  UNL1        0.1383
     15 CL         -2.5368  -18.0152   22.5990 Cl      1  UNL1       -0.0613
     16 N          -4.2443  -16.1043   23.0272 N.ar    1  UNL1       -0.2327
     17 C          -5.1407  -15.3488   23.9628 C.ar    1  UNL1        0.0972
     18 C         -11.4055  -18.3116   23.4554 C.3     1  UNL1        0.0603
     19 C          -7.6212  -19.7070   20.7262 C.2     1  UNL1        0.0934
     20 C          -7.8739  -19.5489   19.2562 C.2     1  UNL1        0.2476
     21 N          -9.1877  -19.0084   18.7749 N.2     1  UNL1       -0.0297
     22 C         -10.2488  -18.6259   19.7637 C.2     1  UNL1        0.3717
     23 N         -11.6310  -18.0703   19.5881 N.2     1  UNL1       -0.0311
     24 C         -12.2325  -17.8849   20.9497 C.2     1  UNL1        0.2319
     25 C         -11.2221  -18.3260   21.9667 C.2     1  UNL1        0.0329
     26 C          -9.9961  -18.7840   21.2337 C.2     1  UNL1        0.0720
     27 C          -8.6823  -19.3245   21.7150 C.3     1  UNL1        0.0804
     28 N          -6.3073  -20.2475   21.2075 N.pl3   1  UNL1       -0.2187
     29 H          -6.2709  -20.8006   22.0212 H       1  UNL1        0.1731
     30 C          -3.7905  -19.6433   19.6907 C.3     1  UNL1        0.1996
     31 S          -5.0490  -19.9455   20.4491 S.O2    1  UNL1        0.0557
     32 O          -5.1729  -18.4974   20.8203 O.2     1  UNL1       -0.1544
     33 O          -4.9251  -21.3935   20.0780 O.2     1  UNL1       -0.1544
@<TRIPOS>BOND
     1    30    31    1
     2    31    32    2
     3    31    33    2
     4    31    28    1
     5    28    19    1
     6    19    20    2
     7    20    21    1
     8    21    22    2
     9    22    23    1
    10    23    24    2
    11    24    25    1
    12    25    18    1
    13    18     1    1
    14     1     2   ar
    15     2     3   ar
    16     3     4   ar
    17     4     8    1
    18     8    10    1
    19    10    11    1
    20    11    12   ar
    21    12    13   ar
    22    13    14   ar
    23    14    15    1
    24    14    16   ar
    25    16    17   ar
    26     4     5   ar
    27     5     6   ar
    28     6     7    1
    29    25    26    2
    30    26    27    1
    31    27    19    1
    32    26    22    1
    33     6     1   ar
    34    17    11   ar
    35    28    29    1
    36     8     9    1
@<TRIPOS>MOLECULE
*****
 33 36 0 0 0
SMALL
GASTEIGER

@<TRIPOS>ATOM
      1 C          -6.7399  -20.2943   20.3791 C.ar    1  UNL1        0.0284
      2 C          -7.5186  -19.7382   19.2239 C.ar    1  UNL1        0.0027
      3 C          -8.9086  -19.2166   19.4380 C.ar    1  UNL1        0.0339
      4 C          -9.5199  -19.2511   20.8073 C.ar    1  UNL1        0.1311
      5 N          -8.7412  -19.8072   21.9626 N.ar    1  UNL1       -0.2035
      6 C          -7.3512  -20.3288   21.7485 C.ar    1  UNL1        0.2196
      7 F          -6.5726  -20.8848   22.9037 F       1  UNL1       -0.1835
      8 N         -10.9099  -18.7295   21.0214 N.pl3   1  UNL1       -0.3144
      9 H         -11.4322  -18.3922   20.2581 H       1  UNL1        0.1485
     10 C         -11.5042  -18.7217   22.3987 C.3     1  UNL1        0.1169
     11 C         -10.7117  -18.1867   23.5544 C.ar    1  UNL1        0.0166
     12 C         -10.1709  -16.7884   23.5099 C.ar    1  UNL1        0.0014
     13 C          -9.3784  -16.2535   24.6656 C.ar    1  UNL1        0.0305
     14 C          -9.1266  -17.1170   25.8660 C.ar    1  UNL1        0.1383
     15 CL         -8.3341  -16.5821   27.0218 Cl      1  UNL1       -0.0613
     16 N          -9.6675  -18.5155   25.9106 N.ar    1  UNL1       -0.2327
     17 C         -10.4599  -19.0503   24.7548 C.ar    1  UNL1        0.0972
     18 C          -5.3499  -20.8159   20.1650 C.3     1  UNL1        0.0603
     19 C          -3.8411  -17.3512   23.2367 C.2     1  UNL1        0.0934
     20 C          -2.6253  -16.6245   22.7428 C.2     1  UNL1        0.2476
     21 N          -2.0108  -16.9990   21.4268 N.2     1  UNL1       -0.0297
     22 C          -2.6119  -18.1001   20.6045 C.2     1  UNL1        0.3717
     23 N          -2.2289  -18.6858   19.2778 N.2     1  UNL1       -0.0311
     24 C          -3.2079  -19.7744   18.9516 C.2     1  UNL1        0.2319
     25 C          -4.1961  -19.8616   20.0768 C.2     1  UNL1        0.0329
     26 C          -3.8277  -18.8267   21.0983 C.2     1  UNL1        0.0720
     27 C          -4.4422  -18.4523   22.4144 C.3     1  UNL1        0.0804
     28 N          -4.4557  -16.9767   24.5528 N.pl3   1  UNL1       -0.2187
     29 H          -4.2056  -17.4659   25.3697 H       1  UNL1        0.1731
     30 C          -6.4467  -14.7371   24.6955 C.3     1  UNL1        0.1996
     31 S          -5.4511  -15.8570   24.6241 S.O2    1  UNL1        0.0557
     32 O          -4.9949  -15.5401   26.0174 O.2     1  UNL1       -0.1544
     33 O          -5.9074  -16.1738   23.2308 O.2     1  UNL1       -0.1544
@<TRIPOS>BOND
     1    30    31    1
     2    31    32    2
     3    31    33    2
     4    31    28    1
     5    28    19    1
     6    19    20    2
     7    20    21    1
     8    21    22    2
     9    22    23    1
    10    23    24    2
    11    24    25    1
    12    25    18    1
    13    18     1    1
    14     1     2   ar
    15     2     3   ar
    16     3     4   ar
    17     4     8    1
    18     8    10    1
    19    10    11    1
    20    11    12   ar
    21    12    13   ar
    22    13    14   ar
    23    14    15    1
    24    14    16   ar
    25    16    17   ar
    26     4     5   ar
    27     5     6   ar
    28     6     7    1
    29    25    26    2
    30    26    27    1
    31    27    19    1
    32    26    22    1
    33     6     1   ar
    34    17    11   ar
    35    28    29    1
    36     8     9    1
@<TRIPOS>MOLECULE
*****
 33 36 0 0 0
SMALL
GASTEIGER

@<TRIPOS>ATOM
      1 C          -4.6284  -15.9605   24.0031 C.ar    1  UNL1        0.0284
      2 C          -4.3383  -17.3766   24.4035 C.ar    1  UNL1        0.0027
      3 C          -3.3497  -18.1897   23.6215 C.ar    1  UNL1        0.0339
      4 C          -2.6510  -17.5866   22.4390 C.ar    1  UNL1        0.1311
      5 N          -2.9411  -16.1703   22.0387 N.ar    1  UNL1       -0.2035
      6 C          -3.9298  -15.3573   22.8206 C.ar    1  UNL1        0.2196
      7 F          -4.2198  -13.9411   22.4202 F       1  UNL1       -0.1835
      8 N          -1.6624  -18.3996   21.6571 N.pl3   1  UNL1       -0.3144
      9 H          -0.7031  -18.3483   21.8723 H       1  UNL1        0.1485
     10 C          -2.1353  -19.2908   20.5471 C.3     1  UNL1        0.1169
     11 C          -3.6046  -19.4826   20.3137 C.ar    1  UNL1        0.0166
     12 C          -4.2438  -20.8076   20.6063 C.ar    1  UNL1        0.0014
     13 C          -5.7130  -20.9995   20.3728 C.ar    1  UNL1        0.0305
     14 C          -6.5431  -19.8662   19.8468 C.ar    1  UNL1        0.1383
     15 CL         -8.0124  -20.0580   19.6133 Cl      1  UNL1       -0.0613
     16 N          -5.9038  -18.5411   19.5541 N.ar    1  UNL1       -0.2327
     17 C          -4.4346  -18.3494   19.7876 C.ar    1  UNL1        0.0972
     18 C          -5.6171  -15.1474   24.7851 C.3     1  UNL1        0.0603
     19 C          -9.3890  -17.1593   22.4524 C.2     1  UNL1        0.0934
     20 C         -10.4365  -17.6880   23.3869 C.2     1  UNL1        0.2476
     21 N         -10.2505  -17.5629   24.8700 N.2     1  UNL1       -0.0297
     22 C          -9.0171  -16.9091   25.4188 C.2     1  UNL1        0.3717
     23 N          -8.5614  -16.6448   26.8232 N.2     1  UNL1       -0.0311
     24 C          -7.2323  -15.9527   26.7568 C.2     1  UNL1        0.2319
     25 C          -6.8665  -15.7893   25.3113 C.2     1  UNL1        0.0329
     26 C          -7.9696  -16.3804   24.4843 C.2     1  UNL1        0.0720
     27 C          -8.1556  -16.5055   23.0012 C.3     1  UNL1        0.0804
     28 N          -9.5749  -17.2845   20.9693 N.pl3   1  UNL1       -0.2187
     29 H          -8.9242  -17.7924   20.4327 H       1  UNL1        0.1731
     30 C         -11.9295  -15.9869   19.6379 C.3     1  UNL1        0.1996
     31 S         -10.7522  -16.6357   20.3036 S.O2    1  UNL1        0.0557
     32 O         -10.1351  -15.2869   20.5268 O.2     1  UNL1       -0.1544
     33 O         -11.3693  -17.9846   20.0805 O.2     1  UNL1       -0.1544
@<TRIPOS>BOND
     1    30    31    1
     2    31    32    2
     3    31    33    2
     4    31    28    1
     5    28    19    1
     6    19    20    2
     7    20    21    1
     8    21    22    2
     9    22    23    1
    10    23    24    2
    11    24    25    1
    12    25    18    1
    13    18     1    1
    14     1     2   ar
    15     2     3   ar
    16     3     4   ar
    17     4     8    1
    18     8    10    1
    19    10    11    1
    20    11    12   ar
    21    12    13   ar
    22    13    14   ar
    23    14    15    1
    24    14    16   ar
    25    16    17   ar
    26     4     5   ar
    27     5     6   ar
    28     6     7    1
    29    25    26    2
    30    26    27    1
    31    27    19    1
    32    26    22    1
    33     6     1   ar
    34    17    11   ar
    35    28    29    1
    36     8     9    1
@<TRIPOS>MOLECULE
*****
 33 36 0 0 0
SMALL
GASTEIGER

@<TRIPOS>ATOM
      1 C          -5.1626  -20.0874   20.8123 C.ar    1  UNL1        0.0284
      2 C          -5.6912  -19.7151   22.1658 C.ar    1  UNL1        0.0027
      3 C          -5.1282  -18.5286   22.8905 C.ar    1  UNL1        0.0339
      4 C          -4.0365  -17.7143   22.2618 C.ar    1  UNL1        0.1311
      5 N          -3.5079  -18.0867   20.9082 N.ar    1  UNL1       -0.2035
      6 C          -4.0709  -19.2732   20.1835 C.ar    1  UNL1        0.2196
      7 F          -3.5423  -19.6455   18.8300 F       1  UNL1       -0.1835
      8 N          -3.4735  -16.5278   22.9865 N.pl3   1  UNL1       -0.3144
      9 H          -2.5399  -16.5392   23.2986 H       1  UNL1        0.1485
     10 C          -4.3331  -15.3241   23.2357 C.3     1  UNL1        0.1169
     11 C          -5.4029  -15.3709   24.2861 C.ar    1  UNL1        0.0166
     12 C          -5.0280  -15.4871   25.7338 C.ar    1  UNL1        0.0014
     13 C          -6.0979  -15.5340   26.7842 C.ar    1  UNL1        0.0305
     14 C          -7.5426  -15.4647   26.3868 C.ar    1  UNL1        0.1383
     15 CL         -8.6124  -15.5115   27.4372 Cl      1  UNL1       -0.0613
     16 N          -7.9175  -15.3485   24.9390 N.ar    1  UNL1       -0.2327
     17 C          -6.8476  -15.3016   23.8887 C.ar    1  UNL1        0.0972
     18 C          -5.7256  -21.2739   20.0876 C.3     1  UNL1        0.0603
     19 C          -9.5218  -18.3213   20.8543 C.2     1  UNL1        0.0934
     20 C         -10.6470  -18.5577   19.8910 C.2     1  UNL1        0.2476
     21 N         -10.5212  -19.6166   18.8361 N.2     1  UNL1       -0.0297
     22 C          -9.2703  -20.4392   18.7445 C.2     1  UNL1        0.3717
     23 N          -8.8621  -21.5454   17.8173 N.2     1  UNL1       -0.0311
     24 C          -7.4845  -21.9928   18.2076 C.2     1  UNL1        0.2319
     25 C          -7.0414  -21.1630   19.3760 C.2     1  UNL1        0.0329
     26 C          -8.1451  -20.2029   19.7078 C.2     1  UNL1        0.0720
     27 C          -8.2708  -19.1439   20.7627 C.3     1  UNL1        0.0804
     28 N          -9.6475  -17.2623   21.9092 N.pl3   1  UNL1       -0.2187
     29 H          -8.8554  -16.9824   22.4225 H       1  UNL1        0.1731
     30 C         -12.3125  -15.9973   22.4546 C.3     1  UNL1        0.1996
     31 S         -10.9799  -16.6298   22.1819 S.O2    1  UNL1        0.0557
     32 O         -11.2615  -17.6720   23.2232 O.2     1  UNL1       -0.1544
     33 O         -10.6984  -15.5876   21.1405 O.2     1  UNL1       -0.1544
@<TRIPOS>BOND
     1    30    31    1
     2    31    32    2
     3    31    33    2
     4    31    28    1
     5    28    19    1
     6    19    20    2
     7    20    21    1
     8    21    22    2
     9    22    23    1
    10    23    24    2
    11    24    25    1
    12    25    18    1
    13    18     1    1
    14     1     2   ar
    15     2     3   ar
    16     3     4   ar
    17     4     8    1
    18     8    10    1
    19    10    11    1
    20    11    12   ar
    21    12    13   ar
    22    13    14   ar
    23    14    15    1
    24    14    16   ar
    25    16    17   ar
    26     4     5   ar
    27     5     6   ar
    28     6     7    1
    29    25    26    2
    30    26    27    1
    31    27    19    1
    32    26    22    1
    33     6     1   ar
    34    17    11   ar
    35    28    29    1
    36     8     9    1
@<TRIPOS>MOLECULE
*****
 33 36 0 0 0
SMALL
GASTEIGER

@<TRIPOS>ATOM
      1 C           6.7927   -3.2550   21.5716 C.ar    1  UNL1        0.0284
      2 C           7.3203   -2.8093   20.2401 C.ar    1  UNL1        0.0027
      3 C           6.3691   -2.4907   19.1249 C.ar    1  UNL1        0.0339
      4 C           4.8902   -2.6178   19.3412 C.ar    1  UNL1        0.1311
      5 N           4.3626   -3.0635   20.6728 N.ar    1  UNL1       -0.2035
      6 C           5.3138   -3.3820   21.7880 C.ar    1  UNL1        0.2196
      7 F           4.7861   -3.8277   23.1195 F       1  UNL1       -0.1835
      8 N           3.9390   -2.2992   18.2260 N.pl3   1  UNL1       -0.3144
      9 H           3.5061   -3.0278   17.7249 H       1  UNL1        0.1485
     10 C           3.6474   -0.8705   17.8741 C.3     1  UNL1        0.1169
     11 C           2.5993   -0.1105   18.6316 C.ar    1  UNL1        0.0166
     12 C           1.7909   -0.8001   19.6903 C.ar    1  UNL1        0.0014
     13 C           0.7428   -0.0401   20.4478 C.ar    1  UNL1        0.0305
     14 C           0.5031    1.4097   20.1466 C.ar    1  UNL1        0.1383
     15 CL         -0.5450    2.1697   20.9041 Cl      1  UNL1       -0.0613
     16 N           1.3115    2.0993   19.0879 N.ar    1  UNL1       -0.2327
     17 C           2.3595    1.3393   18.3304 C.ar    1  UNL1        0.0972
     18 C           7.7439   -3.5736   22.6869 C.3     1  UNL1        0.0603
     19 C           6.6858   -6.1718   26.6675 C.2     1  UNL1        0.0934
     20 C           7.1817   -7.5853   26.5890 C.2     1  UNL1        0.2476
     21 N           7.9167   -8.0555   25.3689 N.2     1  UNL1       -0.0297
     22 C           8.1558   -7.1123   24.2274 C.2     1  UNL1        0.3717
     23 N           8.8440   -7.2893   22.9063 N.2     1  UNL1       -0.0311
     24 C           8.7734   -5.9853   22.1685 C.2     1  UNL1        0.2319
     25 C           8.0417   -5.0023   23.0334 C.2     1  UNL1        0.0329
     26 C           7.6600   -5.6989   24.3059 C.2     1  UNL1        0.0720
     27 C           6.9250   -5.2286   25.5260 C.3     1  UNL1        0.0804
     28 N           5.9508   -5.7016   27.8876 N.pl3   1  UNL1       -0.2187
     29 H           4.9992   -5.9249   28.0056 H       1  UNL1        0.1731
     30 C           7.3804   -4.0808   29.9684 C.3     1  UNL1        0.1996
     31 S           6.6655   -4.8912   28.9280 S.O2    1  UNL1        0.0557
     32 O           7.2164   -6.1498   29.5299 O.2     1  UNL1       -0.1544
     33 O           6.1147   -3.6326   28.3260 O.2     1  UNL1       -0.1544
@<TRIPOS>BOND
     1    30    31    1
     2    31    32    2
     3    31    33    2
     4    31    28    1
     5    28    19    1
     6    19    20    2
     7    20    21    1
     8    21    22    2
     9    22    23    1
    10    23    24    2
    11    24    25    1
    12    25    18    1
    13    18     1    1
    14     1     2   ar
    15     2     3   ar
    16     3     4   ar
    17     4     8    1
    18     8    10    1
    19    10    11    1
    20    11    12   ar
    21    12    13   ar
    22    13    14   ar
    23    14    15    1
    24    14    16   ar
    25    16    17   ar
    26     4     5   ar
    27     5     6   ar
    28     6     7    1
    29    25    26    2
    30    26    27    1
    31    27    19    1
    32    26    22    1
    33     6     1   ar
    34    17    11   ar
    35    28    29    1
    36     8     9    1
@<TRIPOS>MOLECULE
*****
 33 36 0 0 0
SMALL
GASTEIGER

@<TRIPOS>ATOM
      1 C           5.1221   -3.6102   21.6541 C.ar    1  UNL1        0.0284
      2 C           4.3534   -3.0319   22.8050 C.ar    1  UNL1        0.0027
      3 C           5.0448   -2.7613   24.1083 C.ar    1  UNL1        0.0339
      4 C           6.5049   -3.0691   24.2608 C.ar    1  UNL1        0.1311
      5 N           7.2737   -3.6474   23.1099 N.ar    1  UNL1       -0.2035
      6 C           6.5823   -3.9179   21.8065 C.ar    1  UNL1        0.2196
      7 F           7.3511   -4.4962   20.6556 F       1  UNL1       -0.1835
      8 N           7.1963   -2.7985   25.5642 N.pl3   1  UNL1       -0.3144
      9 H           8.1793   -2.8186   25.6135 H       1  UNL1        0.1485
     10 C           6.3898   -2.4974   26.7926 C.3     1  UNL1        0.1169
     11 C           6.5490   -3.3441   28.0205 C.ar    1  UNL1        0.0166
     12 C           6.7167   -2.6952   29.3624 C.ar    1  UNL1        0.0014
     13 C           6.8759   -3.5420   30.5903 C.ar    1  UNL1        0.0305
     14 C           6.8673   -5.0376   30.4763 C.ar    1  UNL1        0.1383
     15 CL          7.0265   -5.8843   31.7042 Cl      1  UNL1       -0.0613
     16 N           6.6996   -5.6865   29.1343 N.ar    1  UNL1       -0.2327
     17 C           6.5404   -4.8397   27.9065 C.ar    1  UNL1        0.0972
     18 C           4.4307   -3.8807   20.3507 C.3     1  UNL1        0.0603
     19 C           1.3459   -0.1449   19.8575 C.2     1  UNL1        0.0934
     20 C           1.6361    0.6940   18.6484 C.2     1  UNL1        0.2476
     21 N           2.7799    0.3382   17.7456 N.2     1  UNL1       -0.0297
     22 C           3.6335   -0.8566   18.0519 C.2     1  UNL1        0.3717
     23 N           4.8199   -1.4488   17.3507 N.2     1  UNL1       -0.0311
     24 C           5.2630   -2.6538   18.1265 C.2     1  UNL1        0.2319
     25 C           4.3504   -2.8063   19.3071 C.2     1  UNL1        0.0329
     26 C           3.3433   -1.6955   19.2610 C.2     1  UNL1        0.0720
     27 C           2.1995   -1.3396   20.1638 C.3     1  UNL1        0.0804
     28 N           0.2021    0.2110   20.7603 N.pl3   1  UNL1       -0.2187
     29 H          -0.5375   -0.4253   20.8919 H       1  UNL1        0.1731
     30 C           0.1682    2.8617   22.1648 C.3     1  UNL1        0.1996
     31 S           0.1851    1.5363   21.4625 S.O2    1  UNL1        0.0557
     32 O           1.3290    1.0935   22.3259 O.2     1  UNL1       -0.1544
     33 O          -0.9587    1.9792   20.5992 O.2     1  UNL1       -0.1544
@<TRIPOS>BOND
     1    30    31    1
     2    31    32    2
     3    31    33    2
     4    31    28    1
     5    28    19    1
     6    19    20    2
     7    20    21    1
     8    21    22    2
     9    22    23    1
    10    23    24    2
    11    24    25    1
    12    25    18    1
    13    18     1    1
    14     1     2   ar
    15     2     3   ar
    16     3     4   ar
    17     4     8    1
    18     8    10    1
    19    10    11    1
    20    11    12   ar
    21    12    13   ar
    22    13    14   ar
    23    14    15    1
    24    14    16   ar
    25    16    17   ar
    26     4     5   ar
    27     5     6   ar
    28     6     7    1
    29    25    26    2
    30    26    27    1
    31    27    19    1
    32    26    22    1
    33     6     1   ar
    34    17    11   ar
    35    28    29    1
    36     8     9    1
@<TRIPOS>MOLECULE
*****
 33 36 0 0 0
SMALL
GASTEIGER

@<TRIPOS>ATOM
      1 C           5.2471   -3.6490   21.7921 C.ar    1  UNL1        0.0284
      2 C           4.6528   -3.1306   23.0680 C.ar    1  UNL1        0.0027
      3 C           5.5277   -2.9042   24.2652 C.ar    1  UNL1        0.0339
      4 C           6.9969   -3.1961   24.1866 C.ar    1  UNL1        0.1311
      5 N           7.5912   -3.7145   22.9105 N.ar    1  UNL1       -0.2035
      6 C           6.7164   -3.9409   21.7133 C.ar    1  UNL1        0.2196
      7 F           7.3108   -4.4593   20.4374 F       1  UNL1       -0.1835
      8 N           7.8717   -2.9697   25.3838 N.pl3   1  UNL1       -0.3144
      9 H           7.6834   -2.2228   25.9969 H       1  UNL1        0.1485
     10 C           9.0336   -3.8813   25.6468 C.3     1  UNL1        0.1169
     11 C           8.7947   -5.2772   26.1411 C.ar    1  UNL1        0.0166
     12 C           8.6246   -6.4007   25.1620 C.ar    1  UNL1        0.0014
     13 C           8.3857   -7.7966   25.6562 C.ar    1  UNL1        0.0305
     14 C           8.3170   -8.0691   27.1297 C.ar    1  UNL1        0.1383
     15 CL          8.0781   -9.4650   27.6239 Cl      1  UNL1       -0.0613
     16 N           8.4871   -6.9455   28.1088 N.ar    1  UNL1       -0.2327
     17 C           8.7259   -5.5497   27.6145 C.ar    1  UNL1        0.0972
     18 C           4.3723   -3.8754   20.5948 C.3     1  UNL1        0.0603
     19 C           1.2982   -0.1948   19.7466 C.2     1  UNL1        0.0934
     20 C           1.6417    0.5766   18.5068 C.2     1  UNL1        0.2476
     21 N           2.8284    0.1784   17.6803 N.2     1  UNL1       -0.0297
     22 C           3.6717   -0.9912   18.0936 C.2     1  UNL1        0.3717
     23 N           4.8925   -1.6138   17.4836 N.2     1  UNL1       -0.0311
     24 C           5.3035   -2.7700   18.3463 C.2     1  UNL1        0.2319
     25 C           4.3368   -2.8620   19.4895 C.2     1  UNL1        0.0329
     26 C           3.3282   -1.7626   19.3333 C.2     1  UNL1        0.0720
     27 C           2.1415   -1.3644   20.1598 C.3     1  UNL1        0.0804
     28 N           0.1115    0.2035   20.5731 N.pl3   1  UNL1       -0.2187
     29 H          -0.6798   -0.3809   20.6118 H       1  UNL1        0.1731
     30 C           0.1495    2.7808   22.1080 C.3     1  UNL1        0.1996
     31 S           0.1305    1.4921   21.3405 S.O2    1  UNL1        0.0557
     32 O           1.2940    0.9951   22.1462 O.2     1  UNL1       -0.1544
     33 O          -1.0330    1.9891   20.5348 O.2     1  UNL1       -0.1544
@<TRIPOS>BOND
     1    30    31    1
     2    31    32    2
     3    31    33    2
     4    31    28    1
     5    28    19    1
     6    19    20    2
     7    20    21    1
     8    21    22    2
     9    22    23    1
    10    23    24    2
    11    24    25    1
    12    25    18    1
    13    18     1    1
    14     1     2   ar
    15     2     3   ar
    16     3     4   ar
    17     4     8    1
    18     8    10    1
    19    10    11    1
    20    11    12   ar
    21    12    13   ar
    22    13    14   ar
    23    14    15    1
    24    14    16   ar
    25    16    17   ar
    26     4     5   ar
    27     5     6   ar
    28     6     7    1
    29    25    26    2
    30    26    27    1
    31    27    19    1
    32    26    22    1
    33     6     1   ar
    34    17    11   ar
    35    28    29    1
    36     8     9    1
@<TRIPOS>MOLECULE
*****
 33 36 0 0 0
SMALL
GASTEIGER

@<TRIPOS>ATOM
      1 C           4.5045   -2.7794   23.1673 C.ar    1  UNL1        0.0284
      2 C           3.5063   -1.6749   23.3504 C.ar    1  UNL1        0.0027
      3 C           3.5380   -0.8335   24.5918 C.ar    1  UNL1        0.0339
      4 C           4.5679   -1.0966   25.6502 C.ar    1  UNL1        0.1311
      5 N           5.5661   -2.2012   25.4670 N.ar    1  UNL1       -0.2035
      6 C           5.5345   -3.0426   24.2256 C.ar    1  UNL1        0.2196
      7 F           6.5328   -4.1471   24.0426 F       1  UNL1       -0.1835
      8 N           4.5995   -0.2552   26.8916 N.pl3   1  UNL1       -0.3144
      9 H           5.2451   -0.4572   27.6068 H       1  UNL1        0.1485
     10 C           3.6475    0.8940   27.0431 C.3     1  UNL1        0.1169
     11 C           2.2708    0.6601   27.5908 C.ar    1  UNL1        0.0166
     12 C           1.0719    1.1759   26.8515 C.ar    1  UNL1        0.0014
     13 C          -0.3049    0.9420   27.3992 C.ar    1  UNL1        0.0305
     14 C          -0.4827    0.1923   28.6861 C.ar    1  UNL1        0.1383
     15 CL         -1.8595   -0.0415   29.2338 Cl      1  UNL1       -0.0613
     16 N           0.7163   -0.3235   29.4254 N.ar    1  UNL1       -0.2327
     17 C           2.0929   -0.0896   28.8777 C.ar    1  UNL1        0.0972
     18 C           4.4729   -3.6208   21.9260 C.3     1  UNL1        0.0603
     19 C           2.4698   -0.4010   18.8704 C.2     1  UNL1        0.0934
     20 C           3.3286   -0.1230   17.6725 C.2     1  UNL1        0.2476
     21 N           4.6510   -0.8145   17.5210 N.2     1  UNL1       -0.0297
     22 C           5.1146   -1.7840   18.5674 C.2     1  UNL1        0.3717
     23 N           6.3607   -2.6102   18.6886 N.2     1  UNL1       -0.0311
     24 C           6.2720   -3.3988   19.9615 C.2     1  UNL1        0.2319
     25 C           4.9711   -3.0601   20.6270 C.2     1  UNL1        0.0329
     26 C           4.2558   -2.0620   19.7653 C.2     1  UNL1        0.0720
     27 C           2.9334   -1.3705   19.9168 C.3     1  UNL1        0.0804
     28 N           1.1473    0.2906   19.0219 N.pl3   1  UNL1       -0.2187
     29 H           0.4857    0.2525   18.2939 H       1  UNL1        0.1731
     30 C           0.5187    1.7897   21.5433 C.3     1  UNL1        0.1996
     31 S           0.8330    1.0401   20.2826 S.O2    1  UNL1        0.0557
     32 O           1.8826    2.0556   19.9405 O.2     1  UNL1       -0.1544
     33 O          -0.2166    0.0246   20.6247 O.2     1  UNL1       -0.1544
@<TRIPOS>BOND
     1    30    31    1
     2    31    32    2
     3    31    33    2
     4    31    28    1
     5    28    19    1
     6    19    20    2
     7    20    21    1
     8    21    22    2
     9    22    23    1
    10    23    24    2
    11    24    25    1
    12    25    18    1
    13    18     1    1
    14     1     2   ar
    15     2     3   ar
    16     3     4   ar
    17     4     8    1
    18     8    10    1
    19    10    11    1
    20    11    12   ar
    21    12    13   ar
    22    13    14   ar
    23    14    15    1
    24    14    16   ar
    25    16    17   ar
    26     4     5   ar
    27     5     6   ar
    28     6     7    1
    29    25    26    2
    30    26    27    1
    31    27    19    1
    32    26    22    1
    33     6     1   ar
    34    17    11   ar
    35    28    29    1
    36     8     9    1
@<TRIPOS>MOLECULE
*****
 33 36 0 0 0
SMALL
GASTEIGER

@<TRIPOS>ATOM
      1 C           1.5875    0.8677   18.7412 C.ar    1  UNL1        0.0284
      2 C           1.1814    2.2752   18.4189 C.ar    1  UNL1        0.0027
      3 C           0.0704    2.9295   19.1853 C.ar    1  UNL1        0.0339
      4 C          -0.6347    2.1763   20.2741 C.ar    1  UNL1        0.1311
      5 N          -0.2286    0.7687   20.5965 N.ar    1  UNL1       -0.2035
      6 C           0.8825    0.1144   19.8301 C.ar    1  UNL1        0.2196
      7 F           1.2885   -1.2932   20.1526 F       1  UNL1       -0.1835
      8 N          -1.7457    2.8306   21.0405 N.pl3   1  UNL1       -0.3144
      9 H          -1.6378    3.0172   22.0012 H       1  UNL1        0.1485
     10 C          -3.0212    3.2007   20.3433 C.3     1  UNL1        0.1169
     11 C          -4.2469    3.5257   21.1446 C.ar    1  UNL1        0.0166
     12 C          -4.2641    3.2762   22.6236 C.ar    1  UNL1        0.0014
     13 C          -5.4897    3.6013   23.4249 C.ar    1  UNL1        0.0305
     14 C          -6.6983    4.1759   22.7472 C.ar    1  UNL1        0.1383
     15 CL         -7.9239    4.5009   23.5485 Cl      1  UNL1       -0.0613
     16 N          -6.6811    4.4254   21.2682 N.ar    1  UNL1       -0.2327
     17 C          -5.4555    4.1003   20.4670 C.ar    1  UNL1        0.0972
     18 C           2.6985    0.2133   17.9748 C.3     1  UNL1        0.0603
     19 C           5.7058   -2.3226   20.8457 C.2     1  UNL1        0.0934
     20 C           7.0660   -1.7004   20.9580 C.2     1  UNL1        0.2476
     21 N           7.3718   -0.4284   20.2242 N.2     1  UNL1       -0.0297
     22 C           6.3174    0.2214   19.3781 C.2     1  UNL1        0.3717
     23 N           6.3267    1.4689   18.5453 N.2     1  UNL1       -0.0311
     24 C           4.9722    1.6177   17.9182 C.2     1  UNL1        0.2319
     25 C           4.1257    0.4622   18.3635 C.2     1  UNL1        0.0329
     26 C           4.9572   -0.4008   19.2658 C.2     1  UNL1        0.0720
     27 C           4.6514   -1.6728   19.9996 C.3     1  UNL1        0.0804
     28 N           5.3999   -3.5947   21.5795 N.pl3   1  UNL1       -0.2187
     29 H           4.8949   -4.3117   21.1322 H       1  UNL1        0.1731
     30 C           6.3272   -3.9537   24.4099 C.3     1  UNL1        0.1996
     31 S           5.8636   -3.7742   22.9946 S.O2    1  UNL1        0.0557
     32 O           4.8261   -2.7953   23.4587 O.2     1  UNL1       -0.1544
     33 O           6.9011   -4.7530   22.5306 O.2     1  UNL1       -0.1544
@<TRIPOS>BOND
     1    30    31    1
     2    31    32    2
     3    31    33    2
     4    31    28    1
     5    28    19    1
     6    19    20    2
     7    20    21    1
     8    21    22    2
     9    22    23    1
    10    23    24    2
    11    24    25    1
    12    25    18    1
    13    18     1    1
    14     1     2   ar
    15     2     3   ar
    16     3     4   ar
    17     4     8    1
    18     8    10    1
    19    10    11    1
    20    11    12   ar
    21    12    13   ar
    22    13    14   ar
    23    14    15    1
    24    14    16   ar
    25    16    17   ar
    26     4     5   ar
    27     5     6   ar
    28     6     7    1
    29    25    26    2
    30    26    27    1
    31    27    19    1
    32    26    22    1
    33     6     1   ar
    34    17    11   ar
    35    28    29    1
    36     8     9    1
