@<TRIPOS>MOLECULE
*****
 32 34 0 0 0
SMALL
GASTEIGER

@<TRIPOS>ATOM
      1 C          -6.8159  -16.9920   23.0274 C.2     1  UNL1        0.2296
      2 O          -5.4083  -16.7440   23.4822 O.2     1  UNL1       -0.2745
      3 N          -7.2013  -18.3337   22.4784 N.am    1  UNL1       -0.2543
      4 C          -8.6091  -18.5817   22.0235 C.ar    1  UNL1        0.0565
      5 C          -8.8795  -18.9740   20.6012 C.ar    1  UNL1        0.0445
      6 C         -10.2872  -19.2219   20.1464 C.ar    1  UNL1        0.1415
      7 F         -10.5578  -19.6143   18.7241 F       1  UNL1       -0.2041
      8 C         -11.4244  -19.0776   21.1138 C.ar    1  UNL1        0.0328
      9 C         -11.1539  -18.6853   22.5361 C.ar    1  UNL1        0.0406
     10 C          -9.7463  -18.4374   22.9909 C.ar    1  UNL1        0.0181
     11 C         -12.2911  -18.5410   23.5036 C.ar    1  UNL1        0.1807
     12 N         -13.6675  -18.0414   23.1782 N.ar    1  UNL1       -0.1083
     13 N         -14.4787  -18.0625   24.4398 N.ar    1  UNL1       -0.0229
     14 N         -13.6036  -18.5753   25.5449 N.ar    1  UNL1       -0.0464
     15 N         -12.2516  -18.8710   24.9663 N.ar    1  UNL1       -0.2388
     16 H         -11.4747  -19.2203   25.4599 H       1  UNL1        0.1923
     17 C          -7.8383  -15.8983   23.1215 C.3     1  UNL1        0.0856
     18 C          -8.1310  -15.2573   24.4456 C.3     1  UNL1        0.0096
     19 C          -8.1823  -15.5988   27.0206 C.3     1  UNL1        0.0000
     20 C          -8.4535  -16.1100   25.6367 C.3     1  UNL1        0.0005
     21 C          -6.1791  -19.4273   22.3842 C.3     1  UNL1        0.1247
     22 C          -4.9275  -19.2173   21.5844 C.ar    1  UNL1       -0.0018
     23 C          -3.5878  -19.2897   22.2551 C.ar    1  UNL1        0.0005
     24 C          -2.3364  -19.0797   21.4553 C.ar    1  UNL1        0.0369
     25 C          -2.4246  -18.7974   19.9848 C.ar    1  UNL1        0.1468
     26 C          -3.7643  -18.7250   19.3141 C.ar    1  UNL1        0.0369
     27 C          -5.0158  -18.9350   20.1139 C.ar    1  UNL1        0.0005
     28 O          -1.1731  -18.5874   19.1850 O.3     1  UNL1       -0.4045
     29 C           0.0043  -17.8934   19.8030 C.3     1  UNL1        0.5753
     30 F           1.1818  -17.1993   20.4210 F       1  UNL1       -0.1328
     31 F          -0.8033  -16.6357   19.9292 F       1  UNL1       -0.1328
     32 F           0.8119  -19.1511   19.6767 F       1  UNL1       -0.1328
@<TRIPOS>BOND
     1    19    20    1
     2    20    18    1
     3    18    17    1
     4    17     1    1
     5     1     2    2
     6     1     3   am
     7     3    21    1
     8    21    22    1
     9    22    23   ar
    10    23    24   ar
    11    24    25   ar
    12    25    28    1
    13    28    29    1
    14    29    30    1
    15    29    31    1
    16    29    32    1
    17    25    26   ar
    18    26    27   ar
    19     3     4    1
    20     4     5   ar
    21     5     6   ar
    22     6     7    1
    23     6     8   ar
    24     8     9   ar
    25     9    11    1
    26    11    12   ar
    27    12    13   ar
    28    13    14   ar
    29    14    15   ar
    30     9    10   ar
    31    27    22   ar
    32    10     4   ar
    33    15    11   ar
    34    15    16    1
@<TRIPOS>MOLECULE
*****
 32 34 0 0 0
SMALL
GASTEIGER

@<TRIPOS>ATOM
      1 C          -9.9945  -19.2484   19.5762 C.2     1  UNL1        0.2296
      2 O          -9.8463  -19.9218   18.2441 O.2     1  UNL1       -0.2745
      3 N          -8.9678  -19.4701   20.6471 N.am    1  UNL1       -0.2543
      4 C          -9.1160  -18.7966   21.9792 C.ar    1  UNL1        0.0565
      5 C         -10.2914  -19.1164   22.8546 C.ar    1  UNL1        0.0445
      6 C         -10.4396  -18.4429   24.1866 C.ar    1  UNL1        0.1415
      7 F         -11.6149  -18.7627   25.0621 F       1  UNL1       -0.2041
      8 C          -9.4125  -17.4497   24.6433 C.ar    1  UNL1        0.0328
      9 C          -8.2371  -17.1299   23.7680 C.ar    1  UNL1        0.0406
     10 C          -8.0889  -17.8034   22.4359 C.ar    1  UNL1        0.0181
     11 C          -7.2100  -16.1367   24.2247 C.ar    1  UNL1        0.1807
     12 N          -5.8918  -15.8641   23.5630 N.ar    1  UNL1       -0.1083
     13 N          -5.1878  -14.8007   24.3526 N.ar    1  UNL1       -0.0229
     14 N          -6.0710  -14.4160   25.5023 N.ar    1  UNL1       -0.0464
     15 N          -7.3208  -15.2417   25.4232 N.ar    1  UNL1       -0.2388
     16 H          -8.0804  -15.2030   26.0483 H       1  UNL1        0.1923
     17 C         -11.1694  -18.3532   19.8375 C.3     1  UNL1        0.0856
     18 C         -11.0153  -16.8646   19.7361 C.3     1  UNL1        0.0096
     19 C         -12.3610  -16.3466   21.8973 C.3     1  UNL1        0.0000
     20 C         -11.2605  -16.0016   20.9382 C.3     1  UNL1        0.0005
     21 C          -7.7929  -20.3652   20.3858 C.3     1  UNL1        0.1247
     22 C          -6.4021  -19.8789   20.6679 C.ar    1  UNL1       -0.0018
     23 C          -5.8078  -20.0573   22.0335 C.ar    1  UNL1        0.0005
     24 C          -4.4171  -19.5710   22.3155 C.ar    1  UNL1        0.0369
     25 C          -3.6208  -18.9064   21.2319 C.ar    1  UNL1        0.1468
     26 C          -4.2152  -18.7280   19.8663 C.ar    1  UNL1        0.0369
     27 C          -5.6058  -19.2143   19.5843 C.ar    1  UNL1        0.0005
     28 O          -2.2301  -18.4201   21.5140 O.3     1  UNL1       -0.4045
     29 C          -1.9590  -16.9495   21.6305 C.3     1  UNL1        0.5753
     30 F          -1.6879  -15.4787   21.7470 F       1  UNL1       -0.1328
     31 F          -2.8870  -16.8715   22.8063 F       1  UNL1       -0.1328
     32 F          -1.0310  -17.0275   20.4546 F       1  UNL1       -0.1328
@<TRIPOS>BOND
     1    19    20    1
     2    20    18    1
     3    18    17    1
     4    17     1    1
     5     1     2    2
     6     1     3   am
     7     3    21    1
     8    21    22    1
     9    22    23   ar
    10    23    24   ar
    11    24    25   ar
    12    25    28    1
    13    28    29    1
    14    29    30    1
    15    29    31    1
    16    29    32    1
    17    25    26   ar
    18    26    27   ar
    19     3     4    1
    20     4     5   ar
    21     5     6   ar
    22     6     7    1
    23     6     8   ar
    24     8     9   ar
    25     9    11    1
    26    11    12   ar
    27    12    13   ar
    28    13    14   ar
    29    14    15   ar
    30     9    10   ar
    31    27    22   ar
    32    10     4   ar
    33    15    11   ar
    34    15    16    1
@<TRIPOS>MOLECULE
*****
 32 34 0 0 0
SMALL
GASTEIGER

@<TRIPOS>ATOM
      1 C          -7.6263  -15.8989   25.6186 C.2     1  UNL1        0.2296
      2 O          -7.0140  -15.1300   26.7516 O.2     1  UNL1       -0.2745
      3 N          -6.8686  -16.0757   24.3362 N.am    1  UNL1       -0.2543
      4 C          -7.4810  -16.8446   23.2031 C.ar    1  UNL1        0.0565
      5 C          -6.8307  -18.1045   22.7137 C.ar    1  UNL1        0.0445
      6 C          -7.4431  -18.8734   21.5807 C.ar    1  UNL1        0.1415
      7 F          -6.7928  -20.1334   21.0912 F       1  UNL1       -0.2041
      8 C          -8.7059  -18.3823   20.9370 C.ar    1  UNL1        0.0328
      9 C          -9.3562  -17.1223   21.4264 C.ar    1  UNL1        0.0406
     10 C          -8.7438  -16.3535   22.5594 C.ar    1  UNL1        0.0181
     11 C         -10.6189  -16.6312   20.7828 C.ar    1  UNL1        0.1807
     12 N         -10.7066  -15.7570   19.5670 N.ar    1  UNL1       -0.1083
     13 N         -12.1576  -15.5136   19.2747 N.ar    1  UNL1       -0.0229
     14 N         -12.9667  -16.2373   20.3099 N.ar    1  UNL1       -0.0464
     15 N         -12.0157  -16.9280   21.2419 N.ar    1  UNL1       -0.2388
     16 H         -12.2647  -17.4793   22.0186 H       1  UNL1        0.1923
     17 C          -8.9965  -16.4910   25.7679 C.3     1  UNL1        0.0856
     18 C          -9.1588  -17.9724   25.9378 C.3     1  UNL1        0.0096
     19 C          -9.6981  -20.0195   24.4317 C.3     1  UNL1        0.0000
     20 C         -10.1182  -18.7267   25.0657 C.3     1  UNL1        0.0005
     21 C          -5.4986  -15.4836   24.1868 C.3     1  UNL1        0.1247
     22 C          -4.4206  -16.2551   23.4847 C.ar    1  UNL1       -0.0018
     23 C          -4.1583  -17.6846   23.8558 C.ar    1  UNL1        0.0005
     24 C          -3.0804  -18.4560   23.1538 C.ar    1  UNL1        0.0369
     25 C          -2.2647  -17.7979   22.0807 C.ar    1  UNL1        0.1468
     26 C          -2.5269  -16.3684   21.7096 C.ar    1  UNL1        0.0369
     27 C          -3.6048  -15.5970   22.4116 C.ar    1  UNL1        0.0005
     28 O          -1.1867  -18.5694   21.3786 O.3     1  UNL1       -0.4045
     29 C          -0.8958  -18.3042   19.9312 C.3     1  UNL1        0.5753
     30 F          -0.6049  -18.0389   18.4838 F       1  UNL1       -0.1328
     31 F           0.4123  -17.6750   20.3094 F       1  UNL1       -0.1328
     32 F          -2.2039  -18.9333   19.5531 F       1  UNL1       -0.1328
@<TRIPOS>BOND
     1    19    20    1
     2    20    18    1
     3    18    17    1
     4    17     1    1
     5     1     2    2
     6     1     3   am
     7     3    21    1
     8    21    22    1
     9    22    23   ar
    10    23    24   ar
    11    24    25   ar
    12    25    28    1
    13    28    29    1
    14    29    30    1
    15    29    31    1
    16    29    32    1
    17    25    26   ar
    18    26    27   ar
    19     3     4    1
    20     4     5   ar
    21     5     6   ar
    22     6     7    1
    23     6     8   ar
    24     8     9   ar
    25     9    11    1
    26    11    12   ar
    27    12    13   ar
    28    13    14   ar
    29    14    15   ar
    30     9    10   ar
    31    27    22   ar
    32    10     4   ar
    33    15    11   ar
    34    15    16    1
@<TRIPOS>MOLECULE
*****
 32 34 0 0 0
SMALL
GASTEIGER

@<TRIPOS>ATOM
      1 C          -7.0252  -16.7004   23.1131 C.2     1  UNL1        0.2296
      2 O          -7.9662  -15.6551   23.6343 O.2     1  UNL1       -0.2745
      3 N          -7.3328  -17.4137   21.8299 N.am    1  UNL1       -0.2543
      4 C          -6.3917  -18.4592   21.3087 C.ar    1  UNL1        0.0565
      5 C          -6.8864  -19.8512   21.0491 C.ar    1  UNL1        0.0445
      6 C          -5.9453  -20.8965   20.5279 C.ar    1  UNL1        0.1415
      7 F          -6.4400  -22.2886   20.2682 F       1  UNL1       -0.2041
      8 C          -4.5095  -20.5498   20.2664 C.ar    1  UNL1        0.0328
      9 C          -4.0148  -19.1578   20.5261 C.ar    1  UNL1        0.0406
     10 C          -4.9559  -18.1125   21.0473 C.ar    1  UNL1        0.0181
     11 C          -2.5791  -18.8111   20.2647 C.ar    1  UNL1        0.1807
     12 N          -1.5041  -18.6665   21.3008 N.ar    1  UNL1       -0.1083
     13 N          -0.2269  -18.3141   20.5977 N.ar    1  UNL1       -0.0229
     14 N          -0.5124  -18.2410   19.1269 N.ar    1  UNL1       -0.0464
     15 N          -1.9661  -18.5481   18.9211 N.ar    1  UNL1       -0.2388
     16 H          -2.4355  -18.5727   18.0561 H       1  UNL1        0.1923
     17 C          -5.7765  -17.0325   23.8751 C.3     1  UNL1        0.0856
     18 C          -5.0266  -15.9506   24.5942 C.3     1  UNL1        0.0096
     19 C          -6.5029  -15.5331   26.6909 C.3     1  UNL1        0.0000
     20 C          -5.1600  -15.8068   26.0813 C.3     1  UNL1        0.0005
     21 C          -8.5814  -17.0817   21.0679 C.3     1  UNL1        0.1247
     22 C          -9.9247  -17.4068   21.6510 C.ar    1  UNL1       -0.0018
     23 C         -10.2618  -18.8224   22.0146 C.ar    1  UNL1        0.0005
     24 C         -11.6050  -19.1474   22.5976 C.ar    1  UNL1        0.0369
     25 C         -12.6112  -18.0568   22.8170 C.ar    1  UNL1        0.1468
     26 C         -12.2741  -16.6412   22.4534 C.ar    1  UNL1        0.0369
     27 C         -10.9308  -16.3161   21.8704 C.ar    1  UNL1        0.0005
     28 O         -13.9545  -18.3819   23.4001 O.3     1  UNL1       -0.4045
     29 C         -14.1218  -18.4843   24.8872 C.3     1  UNL1        0.5753
     30 F         -14.2891  -18.5867   26.3744 F       1  UNL1       -0.1328
     31 F         -15.6123  -18.4837   24.7196 F       1  UNL1       -0.1328
     32 F         -12.6312  -18.4849   25.0548 F       1  UNL1       -0.1328
@<TRIPOS>BOND
     1    19    20    1
     2    20    18    1
     3    18    17    1
     4    17     1    1
     5     1     2    2
     6     1     3   am
     7     3    21    1
     8    21    22    1
     9    22    23   ar
    10    23    24   ar
    11    24    25   ar
    12    25    28    1
    13    28    29    1
    14    29    30    1
    15    29    31    1
    16    29    32    1
    17    25    26   ar
    18    26    27   ar
    19     3     4    1
    20     4     5   ar
    21     5     6   ar
    22     6     7    1
    23     6     8   ar
    24     8     9   ar
    25     9    11    1
    26    11    12   ar
    27    12    13   ar
    28    13    14   ar
    29    14    15   ar
    30     9    10   ar
    31    27    22   ar
    32    10     4   ar
    33    15    11   ar
    34    15    16    1
@<TRIPOS>MOLECULE
*****
 32 34 0 0 0
SMALL
GASTEIGER

@<TRIPOS>ATOM
      1 C          -2.9361  -18.6822   22.2790 C.2     1  UNL1        0.2296
      2 O          -2.1614  -19.8202   21.6833 O.2     1  UNL1       -0.2745
      3 N          -4.4209  -18.7979   22.4577 N.am    1  UNL1       -0.2543
      4 C          -5.1955  -17.6599   23.0534 C.ar    1  UNL1        0.0565
      5 C          -4.5608  -16.7827   24.0915 C.ar    1  UNL1        0.0445
      6 C          -5.3354  -15.6447   24.6872 C.ar    1  UNL1        0.1415
      7 F          -4.7007  -14.7675   25.7254 F       1  UNL1       -0.2041
      8 C          -6.7448  -15.3839   24.2448 C.ar    1  UNL1        0.0328
      9 C          -7.3795  -16.2611   23.2067 C.ar    1  UNL1        0.0406
     10 C          -6.6049  -17.3990   22.6110 C.ar    1  UNL1        0.0181
     11 C          -8.7888  -16.0003   22.7643 C.ar    1  UNL1        0.1807
     12 N          -9.2399  -15.7583   21.3544 N.ar    1  UNL1       -0.1083
     13 N         -10.7244  -15.5441   21.3728 N.ar    1  UNL1       -0.0229
     14 N         -11.1909  -15.6537   22.7942 N.ar    1  UNL1       -0.0464
     15 N          -9.9946  -15.9356   23.6542 N.ar    1  UNL1       -0.2388
     16 H         -10.0000  -16.0569   24.6312 H       1  UNL1        0.1923
     17 C          -2.2259  -17.4285   22.6961 C.3     1  UNL1        0.0856
     18 C          -1.8577  -16.3983   21.6698 C.3     1  UNL1        0.0096
     19 C          -0.0962  -17.4730   20.0912 C.3     1  UNL1        0.0000
     20 C          -1.4340  -16.8263   20.2960 C.3     1  UNL1        0.0005
     21 C          -5.1311  -20.0516   22.0407 C.3     1  UNL1        0.1247
     22 C          -6.5226  -19.9760   21.4856 C.ar    1  UNL1       -0.0018
     23 C          -6.7332  -19.7845   20.0129 C.ar    1  UNL1        0.0005
     24 C          -8.1247  -19.7090   19.4579 C.ar    1  UNL1        0.0369
     25 C          -9.3055  -19.8250   20.3756 C.ar    1  UNL1        0.1468
     26 C          -9.0949  -20.0165   21.8483 C.ar    1  UNL1        0.0369
     27 C          -7.7034  -20.0920   22.4033 C.ar    1  UNL1        0.0005
     28 O         -10.6971  -19.7495   19.8205 O.3     1  UNL1       -0.4045
     29 C         -11.7121  -18.8497   20.4608 C.3     1  UNL1        0.5753
     30 F         -12.7272  -17.9499   21.1012 F       1  UNL1       -0.1328
     31 F         -11.9349  -19.8684   21.5391 F       1  UNL1       -0.1328
     32 F         -11.4893  -17.8311   19.3826 F       1  UNL1       -0.1328
@<TRIPOS>BOND
     1    19    20    1
     2    20    18    1
     3    18    17    1
     4    17     1    1
     5     1     2    2
     6     1     3   am
     7     3    21    1
     8    21    22    1
     9    22    23   ar
    10    23    24   ar
    11    24    25   ar
    12    25    28    1
    13    28    29    1
    14    29    30    1
    15    29    31    1
    16    29    32    1
    17    25    26   ar
    18    26    27   ar
    19     3     4    1
    20     4     5   ar
    21     5     6   ar
    22     6     7    1
    23     6     8   ar
    24     8     9   ar
    25     9    11    1
    26    11    12   ar
    27    12    13   ar
    28    13    14   ar
    29    14    15   ar
    30     9    10   ar
    31    27    22   ar
    32    10     4   ar
    33    15    11   ar
    34    15    16    1
@<TRIPOS>MOLECULE
*****
 32 34 0 0 0
SMALL
GASTEIGER

@<TRIPOS>ATOM
      1 C          -7.1997  -19.4544   20.7205 C.2     1  UNL1        0.2296
      2 O          -8.0904  -19.9542   19.6219 O.2     1  UNL1       -0.2745
      3 N          -7.4816  -18.1328   21.3717 N.am    1  UNL1       -0.2543
      4 C          -6.5909  -17.6330   22.4704 C.ar    1  UNL1        0.0565
      5 C          -5.1079  -17.8426   22.3875 C.ar    1  UNL1        0.0445
      6 C          -4.2173  -17.3427   23.4861 C.ar    1  UNL1        0.1415
      7 F          -2.7343  -17.5523   23.4032 F       1  UNL1       -0.2041
      8 C          -4.8097  -16.6333   24.6675 C.ar    1  UNL1        0.0328
      9 C          -6.2926  -16.4238   24.7504 C.ar    1  UNL1        0.0406
     10 C          -7.1832  -16.9236   23.6519 C.ar    1  UNL1        0.0181
     11 C          -6.8849  -15.7144   25.9319 C.ar    1  UNL1        0.1807
     12 N          -8.3187  -15.7746   26.3687 N.ar    1  UNL1       -0.1083
     13 N          -8.4674  -14.9176   27.5908 N.ar    1  UNL1       -0.0229
     14 N          -7.1255  -14.3278   27.9093 N.ar    1  UNL1       -0.0464
     15 N          -6.1475  -14.8202   26.8841 N.ar    1  UNL1       -0.2388
     16 H          -5.1898  -14.5959   26.8434 H       1  UNL1        0.1923
     17 C          -6.0272  -20.2761   21.1679 C.3     1  UNL1        0.0856
     18 C          -5.0607  -20.8167   20.1562 C.3     1  UNL1        0.0096
     19 C          -3.2182  -19.1247   19.4546 C.3     1  UNL1        0.0000
     20 C          -3.6276  -20.3741   20.1767 C.3     1  UNL1        0.0005
     21 C          -8.6540  -17.3112   20.9244 C.3     1  UNL1        0.1247
     22 C         -10.0041  -17.5336   21.5393 C.ar    1  UNL1       -0.0018
     23 C         -10.5160  -18.9292   21.7399 C.ar    1  UNL1        0.0005
     24 C         -11.8660  -19.1516   22.3548 C.ar    1  UNL1        0.0369
     25 C         -12.7040  -17.9785   22.7689 C.ar    1  UNL1        0.1468
     26 C         -12.1921  -16.5830   22.5683 C.ar    1  UNL1        0.0369
     27 C         -10.8421  -16.3605   21.9535 C.ar    1  UNL1        0.0005
     28 O         -14.0541  -18.2010   23.3838 O.3     1  UNL1       -0.4045
     29 C         -14.1732  -18.4696   24.8547 C.3     1  UNL1        0.5753
     30 F         -14.2924  -18.7383   26.3257 F       1  UNL1       -0.1328
     31 F         -12.6875  -18.3250   25.0015 F       1  UNL1       -0.1328
     32 F         -15.6590  -18.6142   24.7079 F       1  UNL1       -0.1328
@<TRIPOS>BOND
     1    19    20    1
     2    20    18    1
     3    18    17    1
     4    17     1    1
     5     1     2    2
     6     1     3   am
     7     3    21    1
     8    21    22    1
     9    22    23   ar
    10    23    24   ar
    11    24    25   ar
    12    25    28    1
    13    28    29    1
    14    29    30    1
    15    29    31    1
    16    29    32    1
    17    25    26   ar
    18    26    27   ar
    19     3     4    1
    20     4     5   ar
    21     5     6   ar
    22     6     7    1
    23     6     8   ar
    24     8     9   ar
    25     9    11    1
    26    11    12   ar
    27    12    13   ar
    28    13    14   ar
    29    14    15   ar
    30     9    10   ar
    31    27    22   ar
    32    10     4   ar
    33    15    11   ar
    34    15    16    1
@<TRIPOS>MOLECULE
*****
 32 34 0 0 0
SMALL
GASTEIGER

@<TRIPOS>ATOM
      1 C          -4.3947  -20.2916   20.4731 C.2     1  UNL1        0.2296
      2 O          -4.7984  -21.5635   19.7882 O.2     1  UNL1       -0.2745
      3 N          -5.2411  -19.7339   21.5788 N.am    1  UNL1       -0.2543
      4 C          -4.8373  -18.4620   22.2638 C.ar    1  UNL1        0.0565
      5 C          -3.5468  -17.7904   21.8985 C.ar    1  UNL1        0.0445
      6 C          -3.1431  -16.5185   22.5835 C.ar    1  UNL1        0.1415
      7 F          -1.8525  -15.8469   22.2182 F       1  UNL1       -0.2041
      8 C          -4.0299  -15.9181   23.6337 C.ar    1  UNL1        0.0328
      9 C          -5.3205  -16.5897   23.9990 C.ar    1  UNL1        0.0406
     10 C          -5.7242  -17.8616   23.3141 C.ar    1  UNL1        0.0181
     11 C          -6.2073  -15.9893   25.0493 C.ar    1  UNL1        0.1807
     12 N          -5.7633  -15.4589   26.3803 N.ar    1  UNL1       -0.1083
     13 N          -6.9754  -14.9557   27.1066 N.ar    1  UNL1       -0.0229
     14 N          -8.1686  -15.1751   26.2245 N.ar    1  UNL1       -0.0464
     15 N          -7.6939  -15.8139   24.9530 N.ar    1  UNL1       -0.2388
     16 H          -8.2588  -16.0726   24.1894 H       1  UNL1        0.1923
     17 C          -3.1446  -19.5773   20.0524 C.3     1  UNL1        0.0856
     18 C          -3.1793  -18.6229   18.8957 C.3     1  UNL1        0.0096
     19 C          -0.7791  -17.8189   19.4806 C.3     1  UNL1        0.0000
     20 C          -1.9747  -17.7886   18.5753 C.3     1  UNL1        0.0005
     21 C          -6.4912  -20.4482   21.9996 C.3     1  UNL1        0.1247
     22 C          -7.8335  -19.8430   21.7128 C.ar    1  UNL1       -0.0018
     23 C          -8.1813  -19.4168   20.3174 C.ar    1  UNL1        0.0005
     24 C          -9.5235  -18.8117   20.0306 C.ar    1  UNL1        0.0369
     25 C         -10.5179  -18.6327   21.1394 C.ar    1  UNL1        0.1468
     26 C         -10.1700  -19.0589   22.5348 C.ar    1  UNL1        0.0369
     27 C          -8.8278  -19.6640   22.8215 C.ar    1  UNL1        0.0005
     28 O         -11.8601  -18.0276   20.8526 O.3     1  UNL1       -0.4045
     29 C         -12.3753  -16.9067   21.7059 C.3     1  UNL1        0.5753
     30 F         -12.8904  -15.7858   22.5593 F       1  UNL1       -0.1328
     31 F         -11.4307  -15.9578   21.0297 F       1  UNL1       -0.1328
     32 F         -13.3198  -17.8557   22.3821 F       1  UNL1       -0.1328
@<TRIPOS>BOND
     1    19    20    1
     2    20    18    1
     3    18    17    1
     4    17     1    1
     5     1     2    2
     6     1     3   am
     7     3    21    1
     8    21    22    1
     9    22    23   ar
    10    23    24   ar
    11    24    25   ar
    12    25    28    1
    13    28    29    1
    14    29    30    1
    15    29    31    1
    16    29    32    1
    17    25    26   ar
    18    26    27   ar
    19     3     4    1
    20     4     5   ar
    21     5     6   ar
    22     6     7    1
    23     6     8   ar
    24     8     9   ar
    25     9    11    1
    26    11    12   ar
    27    12    13   ar
    28    13    14   ar
    29    14    15   ar
    30     9    10   ar
    31    27    22   ar
    32    10     4   ar
    33    15    11   ar
    34    15    16    1
@<TRIPOS>MOLECULE
*****
 32 34 0 0 0
SMALL
GASTEIGER

@<TRIPOS>ATOM
      1 C          -7.9139  -16.3105   25.9189 C.2     1  UNL1        0.2296
      2 O          -6.8556  -15.9119   26.9044 O.2     1  UNL1       -0.2745
      3 N          -7.7588  -15.9593   24.4688 N.am    1  UNL1       -0.2543
      4 C          -8.8172  -16.3579   23.4833 C.ar    1  UNL1        0.0565
      5 C         -10.1855  -15.7490   23.5650 C.ar    1  UNL1        0.0445
      6 C         -11.2438  -16.1475   22.5795 C.ar    1  UNL1        0.1415
      7 F         -12.6122  -15.5386   22.6612 F       1  UNL1       -0.2041
      8 C         -10.9336  -17.1550   21.5124 C.ar    1  UNL1        0.0328
      9 C          -9.5653  -17.7639   21.4307 C.ar    1  UNL1        0.0406
     10 C          -8.5070  -17.3654   22.4162 C.ar    1  UNL1        0.0181
     11 C          -9.2551  -18.7714   20.3636 C.ar    1  UNL1        0.1807
     12 N          -7.8859  -19.1710   19.8994 N.ar    1  UNL1       -0.1083
     13 N          -8.0443  -20.2028   18.8222 N.ar    1  UNL1       -0.0229
     14 N          -9.5115  -20.4408   18.6205 N.ar    1  UNL1       -0.0464
     15 N         -10.2598  -19.5562   19.5732 N.ar    1  UNL1       -0.2388
     16 H         -11.2385  -19.5005   19.6637 H       1  UNL1        0.1923
     17 C          -9.1273  -17.0601   26.3834 C.3     1  UNL1        0.0856
     18 C          -9.3405  -18.4816   25.9544 C.3     1  UNL1        0.0096
     19 C         -10.4915  -20.0274   24.2121 C.3     1  UNL1        0.0000
     20 C         -10.5423  -18.8450   25.1337 C.3     1  UNL1        0.0005
     21 C          -6.5455  -15.2097   24.0043 C.3     1  UNL1        0.1247
     22 C          -5.3472  -15.9595   23.5023 C.ar    1  UNL1       -0.0018
     23 C          -5.3034  -17.4556   23.6004 C.ar    1  UNL1        0.0005
     24 C          -4.1052  -18.2054   23.0984 C.ar    1  UNL1        0.0369
     25 C          -2.9507  -17.4590   22.4984 C.ar    1  UNL1        0.1468
     26 C          -2.9944  -15.9629   22.4003 C.ar    1  UNL1        0.0369
     27 C          -4.1927  -15.2131   22.9022 C.ar    1  UNL1        0.0005
     28 O          -1.7524  -18.2088   21.9964 O.3     1  UNL1       -0.4045
     29 C          -1.5290  -18.3647   20.5213 C.3     1  UNL1        0.5753
     30 F          -1.3055  -18.5205   19.0462 F       1  UNL1       -0.1328
     31 F          -0.6271  -17.1662   20.5313 F       1  UNL1       -0.1328
     32 F          -2.4309  -19.5632   20.5114 F       1  UNL1       -0.1328
@<TRIPOS>BOND
     1    19    20    1
     2    20    18    1
     3    18    17    1
     4    17     1    1
     5     1     2    2
     6     1     3   am
     7     3    21    1
     8    21    22    1
     9    22    23   ar
    10    23    24   ar
    11    24    25   ar
    12    25    28    1
    13    28    29    1
    14    29    30    1
    15    29    31    1
    16    29    32    1
    17    25    26   ar
    18    26    27   ar
    19     3     4    1
    20     4     5   ar
    21     5     6   ar
    22     6     7    1
    23     6     8   ar
    24     8     9   ar
    25     9    11    1
    26    11    12   ar
    27    12    13   ar
    28    13    14   ar
    29    14    15   ar
    30     9    10   ar
    31    27    22   ar
    32    10     4   ar
    33    15    11   ar
    34    15    16    1
@<TRIPOS>MOLECULE
*****
 32 34 0 0 0
SMALL
GASTEIGER

@<TRIPOS>ATOM
      1 C          -5.6166  -20.5738   20.2310 C.2     1  UNL1        0.2296
      2 O          -4.2138  -20.5999   19.7007 O.2     1  UNL1       -0.2745
      3 N          -6.0033  -19.5745   21.2807 N.am    1  UNL1       -0.2543
      4 C          -7.4062  -19.5485   21.8109 C.ar    1  UNL1        0.0565
      5 C          -7.7801  -20.4034   22.9854 C.ar    1  UNL1        0.0445
      6 C          -9.1830  -20.3773   23.5156 C.ar    1  UNL1        0.1415
      7 F          -9.5569  -21.2322   24.6901 F       1  UNL1       -0.2041
      8 C         -10.2120  -19.4964   22.8713 C.ar    1  UNL1        0.0328
      9 C          -9.8382  -18.6416   21.6968 C.ar    1  UNL1        0.0406
     10 C          -8.4353  -18.6676   21.1666 C.ar    1  UNL1        0.0181
     11 C         -10.8672  -17.7607   21.0525 C.ar    1  UNL1        0.1807
     12 N         -12.3382  -17.7630   21.3461 N.ar    1  UNL1       -0.1083
     13 N         -12.9861  -16.7266   20.4766 N.ar    1  UNL1       -0.0229
     14 N         -11.9155  -16.0838   19.6455 N.ar    1  UNL1       -0.0464
     15 N         -10.6060  -16.7229   20.0015 N.ar    1  UNL1       -0.2388
     16 H          -9.7290  -16.5003   19.6134 H       1  UNL1        0.1923
     17 C          -6.6330  -21.5471   19.7115 C.3     1  UNL1        0.0856
     18 C          -7.7271  -21.0744   18.8007 C.3     1  UNL1        0.0096
     19 C          -9.2474  -21.5468   16.7476 C.3     1  UNL1        0.0000
     20 C          -8.4227  -22.0478   17.8960 C.3     1  UNL1        0.0005
     21 C          -4.9870  -18.6012   21.8001 C.3     1  UNL1        0.1247
     22 C          -5.3452  -17.6683   22.9188 C.ar    1  UNL1       -0.0018
     23 C          -6.6474  -16.9244   22.8872 C.ar    1  UNL1        0.0005
     24 C          -7.0055  -15.9916   24.0058 C.ar    1  UNL1        0.0369
     25 C          -6.0616  -15.8027   25.1562 C.ar    1  UNL1        0.1468
     26 C          -4.7595  -16.5466   25.1879 C.ar    1  UNL1        0.0369
     27 C          -4.4013  -17.4794   24.0692 C.ar    1  UNL1        0.0005
     28 O          -6.4199  -14.8698   26.2749 O.3     1  UNL1       -0.4045
     29 C          -7.5243  -15.2271   27.2249 C.3     1  UNL1        0.5753
     30 F          -8.6288  -15.5845   28.1749 F       1  UNL1       -0.1328
     31 F          -8.5390  -14.8105   26.2019 F       1  UNL1       -0.1328
     32 F          -6.5095  -15.6437   28.2479 F       1  UNL1       -0.1328
@<TRIPOS>BOND
     1    19    20    1
     2    20    18    1
     3    18    17    1
     4    17     1    1
     5     1     2    2
     6     1     3   am
     7     3    21    1
     8    21    22    1
     9    22    23   ar
    10    23    24   ar
    11    24    25   ar
    12    25    28    1
    13    28    29    1
    14    29    30    1
    15    29    31    1
    16    29    32    1
    17    25    26   ar
    18    26    27   ar
    19     3     4    1
    20     4     5   ar
    21     5     6   ar
    22     6     7    1
    23     6     8   ar
    24     8     9   ar
    25     9    11    1
    26    11    12   ar
    27    12    13   ar
    28    13    14   ar
    29    14    15   ar
    30     9    10   ar
    31    27    22   ar
    32    10     4   ar
    33    15    11   ar
    34    15    16    1
