@<TRIPOS>MOLECULE
*****
 36 40 0 0 0
SMALL
GASTEIGER

@<TRIPOS>ATOM
      1 C           1.6402    0.8695   19.6940 C.3     1  UNL1        0.0933
      2 C           0.5066    0.9426   20.6737 C.3     1  UNL1        0.0442
      3 C          -0.5127    2.0374   20.5608 C.3     1  UNL1        0.0953
      4 N          -0.3983    3.0589   19.4685 N.am    1  UNL1       -0.2794
      5 C          -1.4175    4.1537   19.3556 C.2     1  UNL1        0.2252
      6 O          -1.3031    5.1752   18.2633 O.2     1  UNL1       -0.2749
      7 C           0.7353    2.9858   18.4889 C.3     1  UNL1        0.0953
      8 C           1.7546    1.8910   18.6017 C.3     1  UNL1        0.0442
      9 N           4.2862   -1.9326   19.2332 N.ar    1  UNL1       -0.2773
     10 C           3.3529   -0.9055   18.6639 C.ar    1  UNL1        0.3316
     11 O           3.1490   -0.6104   17.2074 O.2     1  UNL1       -0.2463
     12 N           2.6595   -0.2253   19.8069 N.ar    1  UNL1       -0.2817
     13 C           3.1641   -0.8320   21.0825 C.ar    1  UNL1        0.0796
     14 C           2.8380   -0.5599   22.5211 C.ar    1  UNL1        0.0188
     15 C           3.5174   -1.3431   23.6051 C.ar    1  UNL1        0.0016
     16 C           4.5228   -2.3983   23.2506 C.ar    1  UNL1        0.0016
     17 C           4.8488   -2.6703   21.8120 C.ar    1  UNL1        0.0188
     18 C           4.1695   -1.8872   20.7279 C.ar    1  UNL1        0.0798
     19 C           5.1794   -2.8450   18.4459 C.3     1  UNL1        0.1425
     20 C           6.6036   -2.4558   18.1816 C.3     1  UNL1        0.1667
     21 O           6.9164   -1.4053   17.1575 O.3     1  UNL1       -0.3517
     22 C           6.2820    1.0249   16.4930 C.3     1  UNL1        0.0346
     23 C           6.7908    0.0471   17.5104 C.3     1  UNL1        0.1423
     24 C          -2.5511    4.2268   20.3352 C.3     1  UNL1        0.0795
     25 C          -3.6917    3.2577   20.2361 C.3     1  UNL1        0.0264
     26 C          -4.8254    3.3309   21.2158 C.3     1  UNL1        0.0729
     27 N          -4.8182    4.3731   22.2946 N.3     1  UNL1       -0.2689
     28 C          -3.6776    5.3421   22.3937 C.3     1  UNL1        0.0729
     29 C          -2.5440    5.2690   21.4141 C.3     1  UNL1        0.0264
     30 C          -5.9518    4.4462   23.2741 C.3     1  UNL1        0.0992
     31 C          -5.6724    4.6883   24.7279 C.ar    1  UNL1       -0.0031
     32 C          -4.5891    3.9171   25.4220 C.ar    1  UNL1        0.0178
     33 C          -4.3098    4.1591   26.8757 C.ar    1  UNL1        0.0986
     34 N          -5.1137    5.1724   27.6353 N.ar    1  UNL1       -0.2423
     35 C          -6.1970    5.9435   26.9412 C.ar    1  UNL1        0.0986
     36 C          -6.4764    5.7015   25.4875 C.ar    1  UNL1        0.0178
@<TRIPOS>BOND
     1    22    23    1
     2    23    21    1
     3    21    20    1
     4    20    19    1
     5    19     9    1
     6     9    10   ar
     7    10    11    2
     8    10    12   ar
     9    12     1    1
    10     1     2    1
    11     2     3    1
    12     3     4    1
    13     4     5   am
    14     5     6    2
    15     5    24    1
    16    24    25    1
    17    25    26    1
    18    26    27    1
    19    27    30    1
    20    30    31    1
    21    31    32   ar
    22    32    33   ar
    23    33    34   ar
    24    34    35   ar
    25    35    36   ar
    26    27    28    1
    27    28    29    1
    28     4     7    1
    29     7     8    1
    30    12    13   ar
    31    13    14   ar
    32    14    15   ar
    33    15    16   ar
    34    16    17   ar
    35    17    18   ar
    36    18     9   ar
    37     8     1    1
    38    18    13   ar
    39    29    24    1
    40    36    31   ar
@<TRIPOS>MOLECULE
*****
 36 40 0 0 0
SMALL
GASTEIGER

@<TRIPOS>ATOM
      1 C           8.0356   -4.9013   23.6570 C.3     1  UNL1        0.0933
      2 C           6.7775   -4.2607   23.1500 C.3     1  UNL1        0.0442
      3 C           6.7934   -3.4933   21.8612 C.3     1  UNL1        0.0953
      4 N           8.0673   -3.3665   21.0795 N.am    1  UNL1       -0.2794
      5 C           8.0832   -2.5991   19.7908 C.2     1  UNL1        0.2252
      6 O           9.3571   -2.4723   19.0090 O.2     1  UNL1       -0.2749
      7 C           9.3253   -4.0071   21.5865 C.3     1  UNL1        0.0953
      8 C           9.3094   -4.7745   22.8753 C.3     1  UNL1        0.0442
      9 N           8.3168   -7.4335   26.5852 N.ar    1  UNL1       -0.2773
     10 C           8.5308   -7.0645   25.1471 C.ar    1  UNL1        0.3316
     11 O           9.1475   -7.9380   24.0951 O.2     1  UNL1       -0.2463
     12 N           8.0197   -5.6688   24.9458 N.ar    1  UNL1       -0.2817
     13 C           7.4899   -5.1750   26.2594 C.ar    1  UNL1        0.0796
     14 C           6.8640   -3.8733   26.6638 C.ar    1  UNL1        0.0188
     15 C           6.4218   -3.6622   28.0814 C.ar    1  UNL1        0.0016
     16 C           6.6054   -4.7529   29.0947 C.ar    1  UNL1        0.0016
     17 C           7.2313   -6.0546   28.6903 C.ar    1  UNL1        0.0188
     18 C           7.6736   -6.2657   27.2726 C.ar    1  UNL1        0.0798
     19 C           8.6821   -8.7407   27.2238 C.3     1  UNL1        0.1425
     20 C           7.6060   -9.7026   27.6320 C.3     1  UNL1        0.1667
     21 O           7.9259  -11.1582   27.8014 O.3     1  UNL1       -0.3517
     22 C           5.4341  -11.7604   28.2235 C.3     1  UNL1        0.0346
     23 C           6.8908  -12.0947   28.3506 C.3     1  UNL1        0.1423
     24 C           6.8252   -1.9585   19.2839 C.3     1  UNL1        0.0795
     25 C           6.4841   -0.5541   19.6855 C.3     1  UNL1        0.0264
     26 C           5.2260    0.0864   19.1785 C.3     1  UNL1        0.0729
     27 N           4.3090   -0.6775   18.2699 N.3     1  UNL1       -0.2689
     28 C           4.6500   -2.0819   17.8683 C.3     1  UNL1        0.0729
     29 C           5.9081   -2.7224   18.3752 C.3     1  UNL1        0.0264
     30 C           3.0509   -0.0369   17.7629 C.3     1  UNL1        0.0992
     31 C           1.9670    0.3515   18.7243 C.ar    1  UNL1       -0.0031
     32 C           1.5797   -0.5801   19.8343 C.ar    1  UNL1        0.0178
     33 C           0.4958   -0.1917   20.7957 C.ar    1  UNL1        0.0986
     34 N          -0.2008    1.1284   20.6470 N.ar    1  UNL1       -0.2423
     35 C           0.1865    2.0600   19.5371 C.ar    1  UNL1        0.0986
     36 C           1.2705    1.6716   18.5757 C.ar    1  UNL1        0.0178
@<TRIPOS>BOND
     1    22    23    1
     2    23    21    1
     3    21    20    1
     4    20    19    1
     5    19     9    1
     6     9    10   ar
     7    10    11    2
     8    10    12   ar
     9    12     1    1
    10     1     2    1
    11     2     3    1
    12     3     4    1
    13     4     5   am
    14     5     6    2
    15     5    24    1
    16    24    25    1
    17    25    26    1
    18    26    27    1
    19    27    30    1
    20    30    31    1
    21    31    32   ar
    22    32    33   ar
    23    33    34   ar
    24    34    35   ar
    25    35    36   ar
    26    27    28    1
    27    28    29    1
    28     4     7    1
    29     7     8    1
    30    12    13   ar
    31    13    14   ar
    32    14    15   ar
    33    15    16   ar
    34    16    17   ar
    35    17    18   ar
    36    18     9   ar
    37     8     1    1
    38    18    13   ar
    39    29    24    1
    40    36    31   ar
@<TRIPOS>MOLECULE
*****
 36 40 0 0 0
SMALL
GASTEIGER

@<TRIPOS>ATOM
      1 C         -14.5066   -3.1660   18.6768 C.3     1  UNL1        0.0933
      2 C         -14.6048   -2.3375   19.9235 C.3     1  UNL1        0.0442
      3 C         -15.2244   -0.9725   19.8700 C.3     1  UNL1        0.0953
      4 N         -15.7458   -0.4360   18.5699 N.am    1  UNL1       -0.2794
      5 C         -16.3654    0.9290   18.5164 C.2     1  UNL1        0.2252
      6 O         -16.8868    1.4656   17.2163 O.2     1  UNL1       -0.2749
      7 C         -15.6476   -1.2644   17.3233 C.3     1  UNL1        0.0953
      8 C         -15.0280   -2.6294   17.3768 C.3     1  UNL1        0.0442
      9 N         -13.6164   -6.9416   18.8108 N.ar    1  UNL1       -0.2773
     10 C         -14.6277   -5.8350   18.7589 C.ar    1  UNL1        0.3316
     11 O         -16.1182   -6.0030   18.7390 O.2     1  UNL1       -0.2463
     12 N         -13.8870   -4.5310   18.7303 N.ar    1  UNL1       -0.2817
     13 C         -12.4178   -4.8316   18.7646 C.ar    1  UNL1        0.0796
     14 C         -11.2107   -3.9412   18.7570 C.ar    1  UNL1        0.0188
     15 C          -9.8364   -4.5407   18.7991 C.ar    1  UNL1        0.0016
     16 C          -9.6691   -6.0305   18.8489 C.ar    1  UNL1        0.0016
     17 C         -10.8762   -6.9209   18.8565 C.ar    1  UNL1        0.0188
     18 C         -12.2505   -6.3214   18.8144 C.ar    1  UNL1        0.0798
     19 C         -13.9178   -8.4104   18.8520 C.3     1  UNL1        0.1425
     20 C         -14.8357   -9.0165   17.8323 C.3     1  UNL1        0.1667
     21 O         -15.3643  -10.4062   18.0309 O.3     1  UNL1       -0.3517
     22 C         -17.4348   -9.6720   19.4181 C.3     1  UNL1        0.0346
     23 C         -16.7913  -10.6139   18.4441 C.3     1  UNL1        0.1423
     24 C         -16.4636    1.7574   19.7630 C.3     1  UNL1        0.0795
     25 C         -17.2153    1.2370   20.9521 C.3     1  UNL1        0.0264
     26 C         -17.3134    2.0655   22.1988 C.3     1  UNL1        0.0729
     27 N         -16.6598    3.4144   22.2563 N.3     1  UNL1       -0.2689
     28 C         -15.9081    3.9348   21.0672 C.3     1  UNL1        0.0729
     29 C         -15.8100    3.1063   19.8206 C.3     1  UNL1        0.0264
     30 C         -16.7580    4.2427   23.5029 C.3     1  UNL1        0.0992
     31 C         -15.5115    4.6695   24.2200 C.ar    1  UNL1       -0.0031
     32 C         -14.2096    4.7479   23.4791 C.ar    1  UNL1        0.0178
     33 C         -12.9631    5.1747   24.1961 C.ar    1  UNL1        0.0986
     34 N         -13.0186    5.5230   25.6541 N.ar    1  UNL1       -0.2423
     35 C         -14.3205    5.4446   26.3949 C.ar    1  UNL1        0.0986
     36 C         -15.5670    5.0178   25.6779 C.ar    1  UNL1        0.0178
@<TRIPOS>BOND
     1    22    23    1
     2    23    21    1
     3    21    20    1
     4    20    19    1
     5    19     9    1
     6     9    10   ar
     7    10    11    2
     8    10    12   ar
     9    12     1    1
    10     1     2    1
    11     2     3    1
    12     3     4    1
    13     4     5   am
    14     5     6    2
    15     5    24    1
    16    24    25    1
    17    25    26    1
    18    26    27    1
    19    27    30    1
    20    30    31    1
    21    31    32   ar
    22    32    33   ar
    23    33    34   ar
    24    34    35   ar
    25    35    36   ar
    26    27    28    1
    27    28    29    1
    28     4     7    1
    29     7     8    1
    30    12    13   ar
    31    13    14   ar
    32    14    15   ar
    33    15    16   ar
    34    16    17   ar
    35    17    18   ar
    36    18     9   ar
    37     8     1    1
    38    18    13   ar
    39    29    24    1
    40    36    31   ar
@<TRIPOS>MOLECULE
*****
 36 40 0 0 0
SMALL
GASTEIGER

@<TRIPOS>ATOM
      1 C           6.6695   -3.9266   26.3608 C.3     1  UNL1        0.0933
      2 C           6.8281   -2.7652   27.2969 C.3     1  UNL1        0.0442
      3 C           6.9028   -2.9994   28.7766 C.3     1  UNL1        0.0953
      4 N           6.8188   -4.3949   29.3203 N.am    1  UNL1       -0.2794
      5 C           6.8935   -4.6291   30.8000 C.2     1  UNL1        0.2252
      6 O           6.8096   -6.0245   31.3437 O.2     1  UNL1       -0.2749
      7 C           6.6603   -5.5562   28.3842 C.3     1  UNL1        0.0953
      8 C           6.5856   -5.3220   26.9045 C.3     1  UNL1        0.0442
      9 N           5.9352   -2.8281   22.7113 N.ar    1  UNL1       -0.2773
     10 C           5.6694   -2.7392   24.1849 C.ar    1  UNL1        0.3316
     11 O           4.6560   -1.8528   24.8461 O.2     1  UNL1       -0.2463
     12 N           6.5949   -3.6924   24.8811 N.ar    1  UNL1       -0.2817
     13 C           7.4327   -4.3704   23.8378 C.ar    1  UNL1        0.0796
     14 C           8.5142   -5.4052   23.9357 C.ar    1  UNL1        0.0188
     15 C           9.1879   -5.9057   22.6925 C.ar    1  UNL1        0.0016
     16 C           8.7802   -5.3715   21.3515 C.ar    1  UNL1        0.0016
     17 C           7.6987   -4.3367   21.2536 C.ar    1  UNL1        0.0188
     18 C           7.0250   -3.8362   22.4968 C.ar    1  UNL1        0.0798
     19 C           5.2343   -2.0461   21.6402 C.3     1  UNL1        0.1425
     20 C           3.9404   -2.5473   21.0706 C.3     1  UNL1        0.1667
     21 O           3.8242   -2.8211   19.6004 O.3     1  UNL1       -0.3517
     22 C           4.5496   -5.2099   18.8809 C.3     1  UNL1        0.0346
     23 C           3.4693   -4.1969   19.1195 C.3     1  UNL1        0.1423
     24 C           7.0520   -3.4677   31.7360 C.3     1  UNL1        0.0795
     25 C           5.8406   -2.7491   32.2516 C.3     1  UNL1        0.0264
     26 C           5.9992   -1.5876   33.1876 C.3     1  UNL1        0.0729
     27 N           7.3693   -1.1450   33.6080 N.3     1  UNL1       -0.2689
     28 C           8.5808   -1.8636   33.0925 C.3     1  UNL1        0.0729
     29 C           8.4222   -3.0250   32.1565 C.3     1  UNL1        0.0264
     30 C           7.5279    0.0164   34.5440 C.3     1  UNL1        0.0992
     31 C           6.3315    0.5745   35.2561 C.ar    1  UNL1       -0.0031
     32 C           5.7292   -0.1721   36.4093 C.ar    1  UNL1        0.0178
     33 C           4.5329    0.3860   37.1214 C.ar    1  UNL1        0.0986
     34 N           3.9388    1.6909   36.6804 N.ar    1  UNL1       -0.2423
     35 C           4.5411    2.4375   35.5273 C.ar    1  UNL1        0.0986
     36 C           5.7375    1.8794   34.8151 C.ar    1  UNL1        0.0178
@<TRIPOS>BOND
     1    22    23    1
     2    23    21    1
     3    21    20    1
     4    20    19    1
     5    19     9    1
     6     9    10   ar
     7    10    11    2
     8    10    12   ar
     9    12     1    1
    10     1     2    1
    11     2     3    1
    12     3     4    1
    13     4     5   am
    14     5     6    2
    15     5    24    1
    16    24    25    1
    17    25    26    1
    18    26    27    1
    19    27    30    1
    20    30    31    1
    21    31    32   ar
    22    32    33   ar
    23    33    34   ar
    24    34    35   ar
    25    35    36   ar
    26    27    28    1
    27    28    29    1
    28     4     7    1
    29     7     8    1
    30    12    13   ar
    31    13    14   ar
    32    14    15   ar
    33    15    16   ar
    34    16    17   ar
    35    17    18   ar
    36    18     9   ar
    37     8     1    1
    38    18    13   ar
    39    29    24    1
    40    36    31   ar
@<TRIPOS>MOLECULE
*****
 36 40 0 0 0
SMALL
GASTEIGER

@<TRIPOS>ATOM
      1 C           8.1003   -3.9262   24.3763 C.3     1  UNL1        0.0933
      2 C           6.8728   -3.2848   23.7999 C.3     1  UNL1        0.0442
      3 C           6.8549   -2.8570   22.3623 C.3     1  UNL1        0.0953
      4 N           8.0643   -3.0706   21.5011 N.am    1  UNL1       -0.2794
      5 C           8.0464   -2.6428   20.0635 C.2     1  UNL1        0.2252
      6 O           9.2559   -2.8563   19.2023 O.2     1  UNL1       -0.2749
      7 C           9.2917   -3.7119   22.0775 C.3     1  UNL1        0.0953
      8 C           9.3096   -4.1396   23.5151 C.3     1  UNL1        0.0442
      9 N           8.0589   -4.2985   28.2395 N.ar    1  UNL1       -0.2773
     10 C           7.9881   -3.4506   27.0043 C.ar    1  UNL1        0.3316
     11 O           7.8174   -1.9608   26.9661 O.2     1  UNL1       -0.2463
     12 N           8.1182   -4.3539   25.8139 N.ar    1  UNL1       -0.2817
     13 C           8.2693   -5.7602   26.3135 C.ar    1  UNL1        0.0796
     14 C           8.4355   -7.0675   25.5970 C.ar    1  UNL1        0.0188
     15 C           8.5651   -8.3405   26.3796 C.ar    1  UNL1        0.0016
     16 C           8.5284   -8.3062   27.8788 C.ar    1  UNL1        0.0016
     17 C           8.3622   -6.9990   28.5953 C.ar    1  UNL1        0.0188
     18 C           8.2326   -5.7260   27.8126 C.ar    1  UNL1        0.0798
     19 C           7.9712   -3.8057   29.6536 C.3     1  UNL1        0.1425
     20 C           6.7782   -4.1494   30.4951 C.3     1  UNL1        0.1667
     21 O           6.5811   -3.4834   31.8246 O.3     1  UNL1       -0.3517
     22 C           4.6866   -2.5144   33.3152 C.3     1  UNL1        0.0346
     23 C           5.4457   -2.5231   32.0215 C.3     1  UNL1        0.1423
     24 C           6.8190   -2.0015   19.4871 C.3     1  UNL1        0.0795
     25 C           5.8001   -2.8391   18.7729 C.3     1  UNL1        0.0264
     26 C           4.5727   -2.1977   18.1965 C.3     1  UNL1        0.0729
     27 N           4.3642   -0.7187   18.3345 N.3     1  UNL1       -0.2689
     28 C           5.3831    0.1189   19.0488 C.3     1  UNL1        0.0729
     29 C           6.6105   -0.5224   19.6251 C.3     1  UNL1        0.0264
     30 C           3.1368   -0.0774   17.7581 C.3     1  UNL1        0.0992
     31 C           2.0232    0.3590   18.6633 C.ar    1  UNL1       -0.0031
     32 C           1.5622   -0.5396   19.7724 C.ar    1  UNL1        0.0178
     33 C           0.4486   -0.1031   20.6775 C.ar    1  UNL1        0.0986
     34 N          -0.2041    1.2320   20.4736 N.ar    1  UNL1       -0.2423
     35 C           0.2569    2.1306   19.3646 C.ar    1  UNL1        0.0986
     36 C           1.3705    1.6941   18.4594 C.ar    1  UNL1        0.0178
@<TRIPOS>BOND
     1    22    23    1
     2    23    21    1
     3    21    20    1
     4    20    19    1
     5    19     9    1
     6     9    10   ar
     7    10    11    2
     8    10    12   ar
     9    12     1    1
    10     1     2    1
    11     2     3    1
    12     3     4    1
    13     4     5   am
    14     5     6    2
    15     5    24    1
    16    24    25    1
    17    25    26    1
    18    26    27    1
    19    27    30    1
    20    30    31    1
    21    31    32   ar
    22    32    33   ar
    23    33    34   ar
    24    34    35   ar
    25    35    36   ar
    26    27    28    1
    27    28    29    1
    28     4     7    1
    29     7     8    1
    30    12    13   ar
    31    13    14   ar
    32    14    15   ar
    33    15    16   ar
    34    16    17   ar
    35    17    18   ar
    36    18     9   ar
    37     8     1    1
    38    18    13   ar
    39    29    24    1
    40    36    31   ar
@<TRIPOS>MOLECULE
*****
 36 40 0 0 0
SMALL
GASTEIGER

@<TRIPOS>ATOM
      1 C           6.5459   -2.9641   26.6924 C.3     1  UNL1        0.0933
      2 C           5.6918   -2.2200   25.7089 C.3     1  UNL1        0.0442
      3 C           5.7722   -2.5475   24.2473 C.3     1  UNL1        0.0953
      4 N           6.7066   -3.6191   23.7691 N.am    1  UNL1       -0.2794
      5 C           6.7869   -3.9466   22.3075 C.2     1  UNL1        0.2252
      6 O           7.7213   -5.0182   21.8293 O.2     1  UNL1       -0.2749
      7 C           7.5606   -4.3631   24.7525 C.3     1  UNL1        0.0953
      8 C           7.4802   -4.0355   26.2141 C.3     1  UNL1        0.0442
      9 N           6.2074   -1.4142   30.2347 N.ar    1  UNL1       -0.2773
     10 C           6.2007   -1.2816   28.7406 C.ar    1  UNL1        0.3316
     11 O           5.9698   -0.0164   27.9687 O.2     1  UNL1       -0.2463
     12 N           6.4655   -2.6365   28.1540 N.ar    1  UNL1       -0.2817
     13 C           6.6358   -3.6064   29.2855 C.ar    1  UNL1        0.0796
     14 C           6.9155   -5.0799   29.3109 C.ar    1  UNL1        0.0188
     15 C           7.0357   -5.7978   30.6224 C.ar    1  UNL1        0.0016
     16 C           6.8762   -5.0424   31.9084 C.ar    1  UNL1        0.0016
     17 C           6.5965   -3.5689   31.8830 C.ar    1  UNL1        0.0188
     18 C           6.4763   -2.8510   30.5715 C.ar    1  UNL1        0.0798
     19 C           5.9843   -0.3047   31.2193 C.3     1  UNL1        0.1425
     20 C           4.5883    0.1116   31.5765 C.3     1  UNL1        0.1667
     21 O           3.4502   -0.8489   31.3976 O.3     1  UNL1       -0.3517
     22 C           2.6377   -0.6291   28.9396 C.3     1  UNL1        0.0346
     23 C           2.3611   -0.5460   30.4116 C.3     1  UNL1        0.1423
     24 C           5.9329   -3.2026   21.3242 C.3     1  UNL1        0.0795
     25 C           4.6698   -3.8244   20.8066 C.3     1  UNL1        0.0264
     26 C           3.8157   -3.0802   19.8232 C.3     1  UNL1        0.0729
     27 N           4.2248   -1.7143   19.3575 N.3     1  UNL1       -0.2689
     28 C           5.4879   -1.0925   19.8751 C.3     1  UNL1        0.0729
     29 C           6.3419   -1.8366   20.8584 C.3     1  UNL1        0.0264
     30 C           3.3708   -0.9703   18.3742 C.3     1  UNL1        0.0992
     31 C           2.3180   -0.0202   18.8632 C.ar    1  UNL1       -0.0031
     32 C           1.3104   -0.4746   19.8773 C.ar    1  UNL1        0.0178
     33 C           0.2577    0.4755   20.3663 C.ar    1  UNL1        0.0986
     34 N           0.2126    1.8799   19.8413 N.ar    1  UNL1       -0.2423
     35 C           1.2202    2.3342   18.8272 C.ar    1  UNL1        0.0986
     36 C           2.2729    1.3842   18.3382 C.ar    1  UNL1        0.0178
@<TRIPOS>BOND
     1    22    23    1
     2    23    21    1
     3    21    20    1
     4    20    19    1
     5    19     9    1
     6     9    10   ar
     7    10    11    2
     8    10    12   ar
     9    12     1    1
    10     1     2    1
    11     2     3    1
    12     3     4    1
    13     4     5   am
    14     5     6    2
    15     5    24    1
    16    24    25    1
    17    25    26    1
    18    26    27    1
    19    27    30    1
    20    30    31    1
    21    31    32   ar
    22    32    33   ar
    23    33    34   ar
    24    34    35   ar
    25    35    36   ar
    26    27    28    1
    27    28    29    1
    28     4     7    1
    29     7     8    1
    30    12    13   ar
    31    13    14   ar
    32    14    15   ar
    33    15    16   ar
    34    16    17   ar
    35    17    18   ar
    36    18     9   ar
    37     8     1    1
    38    18    13   ar
    39    29    24    1
    40    36    31   ar
@<TRIPOS>MOLECULE
*****
 36 40 0 0 0
SMALL
GASTEIGER

@<TRIPOS>ATOM
      1 C           5.9425   -2.3934   26.4209 C.3     1  UNL1        0.0933
      2 C           5.2508   -1.6200   25.3376 C.3     1  UNL1        0.0442
      3 C           5.3796   -2.0534   23.9074 C.3     1  UNL1        0.0953
      4 N           6.2000   -3.2602   23.5604 N.am    1  UNL1       -0.2794
      5 C           6.3288   -3.6937   22.1302 C.2     1  UNL1        0.2252
      6 O           7.1492   -4.9005   21.7832 O.2     1  UNL1       -0.2749
      7 C           6.8917   -4.0337   24.6436 C.3     1  UNL1        0.0953
      8 C           6.7629   -3.6002   26.0739 C.3     1  UNL1        0.0442
      9 N           6.3294   -1.4873   30.1752 N.ar    1  UNL1       -0.2773
     10 C           6.8931   -2.0197   28.8911 C.ar    1  UNL1        0.3316
     11 O           8.2907   -2.5232   28.6834 O.2     1  UNL1       -0.2463
     12 N           5.8138   -1.9600   27.8512 N.ar    1  UNL1       -0.2817
     13 C           4.5830   -1.3908   28.4925 C.ar    1  UNL1        0.0796
     14 C           3.2134   -1.1008   27.9542 C.ar    1  UNL1        0.0188
     15 C           2.1624   -0.5187   28.8522 C.ar    1  UNL1        0.0016
     16 C           2.4811   -0.2266   30.2886 C.ar    1  UNL1        0.0016
     17 C           3.8507   -0.5166   30.8269 C.ar    1  UNL1        0.0188
     18 C           4.9017   -1.0987   29.9289 C.ar    1  UNL1        0.0798
     19 C           7.0644   -1.3651   31.4771 C.3     1  UNL1        0.1425
     20 C           7.0353   -2.4945   32.4637 C.3     1  UNL1        0.1667
     21 O           6.4339   -3.8131   32.0769 O.3     1  UNL1       -0.3517
     22 C           6.8776   -5.4817   30.1355 C.3     1  UNL1        0.0346
     23 C           7.2885   -4.8697   31.4419 C.3     1  UNL1        0.1423
     24 C           5.6371   -2.9202   21.0470 C.3     1  UNL1        0.0795
     25 C           6.3360   -1.7715   20.3823 C.3     1  UNL1        0.0264
     26 C           5.6442   -0.9980   19.2991 C.3     1  UNL1        0.0729
     27 N           4.2535   -1.3733   18.8806 N.3     1  UNL1       -0.2689
     28 C           3.5546   -2.5221   19.5453 C.3     1  UNL1        0.0729
     29 C           4.2464   -3.2955   20.6285 C.3     1  UNL1        0.0264
     30 C           3.5618   -0.5999   17.7975 C.3     1  UNL1        0.0992
     31 C           2.8537    0.6810   18.1257 C.ar    1  UNL1       -0.0031
     32 C           3.6372    1.9486   18.2968 C.ar    1  UNL1        0.0178
     33 C           2.9291    3.2296   18.6250 C.ar    1  UNL1        0.0986
     34 N           1.4374    3.2429   18.7821 N.ar    1  UNL1       -0.2423
     35 C           0.6538    1.9753   18.6110 C.ar    1  UNL1        0.0986
     36 C           1.3620    0.6944   18.2828 C.ar    1  UNL1        0.0178
@<TRIPOS>BOND
     1    22    23    1
     2    23    21    1
     3    21    20    1
     4    20    19    1
     5    19     9    1
     6     9    10   ar
     7    10    11    2
     8    10    12   ar
     9    12     1    1
    10     1     2    1
    11     2     3    1
    12     3     4    1
    13     4     5   am
    14     5     6    2
    15     5    24    1
    16    24    25    1
    17    25    26    1
    18    26    27    1
    19    27    30    1
    20    30    31    1
    21    31    32   ar
    22    32    33   ar
    23    33    34   ar
    24    34    35   ar
    25    35    36   ar
    26    27    28    1
    27    28    29    1
    28     4     7    1
    29     7     8    1
    30    12    13   ar
    31    13    14   ar
    32    14    15   ar
    33    15    16   ar
    34    16    17   ar
    35    17    18   ar
    36    18     9   ar
    37     8     1    1
    38    18    13   ar
    39    29    24    1
    40    36    31   ar
@<TRIPOS>MOLECULE
*****
 36 40 0 0 0
SMALL
GASTEIGER

@<TRIPOS>ATOM
      1 C         -15.9539   -3.4164   19.2417 C.3     1  UNL1        0.0933
      2 C         -15.2133   -2.1730   19.6361 C.3     1  UNL1        0.0442
      3 C         -15.9727   -0.9408   20.0297 C.3     1  UNL1        0.0953
      4 N         -17.4726   -0.9519   20.0289 N.am    1  UNL1       -0.2794
      5 C         -18.2321    0.2803   20.4226 C.2     1  UNL1        0.2252
      6 O         -19.7320    0.2691   20.4218 O.2     1  UNL1       -0.2749
      7 C         -18.2132   -2.1953   19.6345 C.3     1  UNL1        0.0953
      8 C         -17.4537   -3.4275   19.2409 C.3     1  UNL1        0.0442
      9 N         -13.4726   -6.1172   17.9712 N.ar    1  UNL1       -0.2773
     10 C         -13.8528   -4.6810   18.1779 C.ar    1  UNL1        0.3316
     11 O         -13.0351   -3.4869   17.7838 O.2     1  UNL1       -0.2463
     12 N         -15.1944   -4.6487   18.8480 N.ar    1  UNL1       -0.2817
     13 C         -15.6433   -6.0648   19.0554 C.ar    1  UNL1        0.0796
     14 C         -16.8836   -6.6451   19.6677 C.ar    1  UNL1        0.0188
     15 C         -17.0597   -8.1330   19.7381 C.ar    1  UNL1        0.0016
     16 C         -15.9955   -9.0407   19.1961 C.ar    1  UNL1        0.0016
     17 C         -14.7552   -8.4604   18.5838 C.ar    1  UNL1        0.0188
     18 C         -14.5792   -6.9725   18.5135 C.ar    1  UNL1        0.0798
     19 C         -12.2078   -6.6115   17.3340 C.3     1  UNL1        0.1425
     20 C         -11.0137   -6.9285   18.1844 C.3     1  UNL1        0.1667
     21 O         -10.4406   -5.8814   19.0929 O.3     1  UNL1       -0.3517
     22 C          -9.2065   -4.6308   17.1791 C.3     1  UNL1        0.0346
     23 C          -9.8827   -4.6133   18.5179 C.3     1  UNL1        0.1423
     24 C         -17.4915    1.5236   20.8170 C.3     1  UNL1        0.0795
     25 C         -16.7542    2.3182   19.7802 C.3     1  UNL1        0.0264
     26 C         -16.0136    3.5616   20.1747 C.3     1  UNL1        0.0729
     27 N         -16.0102    4.0103   21.6060 N.3     1  UNL1       -0.2689
     28 C         -16.7475    3.2157   22.6428 C.3     1  UNL1        0.0729
     29 C         -17.4881    1.9723   22.2483 C.3     1  UNL1        0.0264
     30 C         -15.2696    5.2536   22.0004 C.3     1  UNL1        0.0992
     31 C         -14.6672    5.3653   23.3696 C.ar    1  UNL1       -0.0031
     32 C         -13.3305    4.7467   23.6536 C.ar    1  UNL1        0.0178
     33 C         -12.7281    4.8584   25.0227 C.ar    1  UNL1        0.0986
     34 N         -13.4623    5.5887   26.1078 N.ar    1  UNL1       -0.2423
     35 C         -14.7989    6.2074   25.8238 C.ar    1  UNL1        0.0986
     36 C         -15.4014    6.0957   24.4547 C.ar    1  UNL1        0.0178
@<TRIPOS>BOND
     1    22    23    1
     2    23    21    1
     3    21    20    1
     4    20    19    1
     5    19     9    1
     6     9    10   ar
     7    10    11    2
     8    10    12   ar
     9    12     1    1
    10     1     2    1
    11     2     3    1
    12     3     4    1
    13     4     5   am
    14     5     6    2
    15     5    24    1
    16    24    25    1
    17    25    26    1
    18    26    27    1
    19    27    30    1
    20    30    31    1
    21    31    32   ar
    22    32    33   ar
    23    33    34   ar
    24    34    35   ar
    25    35    36   ar
    26    27    28    1
    27    28    29    1
    28     4     7    1
    29     7     8    1
    30    12    13   ar
    31    13    14   ar
    32    14    15   ar
    33    15    16   ar
    34    16    17   ar
    35    17    18   ar
    36    18     9   ar
    37     8     1    1
    38    18    13   ar
    39    29    24    1
    40    36    31   ar
@<TRIPOS>MOLECULE
*****
 36 40 0 0 0
SMALL
GASTEIGER

@<TRIPOS>ATOM
      1 C           5.4225   -1.6135   31.5610 C.3     1  UNL1        0.0933
      2 C           5.7183   -1.7951   30.1017 C.3     1  UNL1        0.0442
      3 C           6.4791   -3.0006   29.6350 C.3     1  UNL1        0.0953
      4 N           6.9441   -4.0246   30.6275 N.am    1  UNL1       -0.2794
      5 C           7.7049   -5.2302   30.1608 C.2     1  UNL1        0.2252
      6 O           8.1699   -6.2542   31.1534 O.2     1  UNL1       -0.2749
      7 C           6.6483   -3.8431   32.0868 C.3     1  UNL1        0.0953
      8 C           5.8875   -2.6375   32.5535 C.3     1  UNL1        0.0442
      9 N           2.8744    1.1901   32.4051 N.ar    1  UNL1       -0.2773
     10 C           3.2169   -0.1154   31.7506 C.ar    1  UNL1        0.3316
     11 O           2.2791   -0.9771   30.9580 O.2     1  UNL1       -0.2463
     12 N           4.6617   -0.4079   32.0277 N.ar    1  UNL1       -0.2817
     13 C           5.2123    0.7168   32.8536 C.ar    1  UNL1        0.0796
     14 C           6.5767    0.9692   33.4233 C.ar    1  UNL1        0.0188
     15 C           6.8365    2.2092   34.2262 C.ar    1  UNL1        0.0016
     16 C           5.7319    3.1968   34.4594 C.ar    1  UNL1        0.0016
     17 C           4.3674    2.9444   33.8897 C.ar    1  UNL1        0.0188
     18 C           4.1076    1.7044   33.0868 C.ar    1  UNL1        0.0798
     19 C           1.5341    1.8631   32.3820 C.3     1  UNL1        0.1425
     20 C           0.8339    2.0955   31.0761 C.3     1  UNL1        0.1667
     21 O          -0.2802    1.1859   30.6501 O.3     1  UNL1       -0.3517
     22 C          -1.3722   -0.3272   28.8424 C.3     1  UNL1        0.0346
     23 C          -0.3514    0.7002   29.2327 C.3     1  UNL1        0.1423
     24 C           8.0007   -5.4117   28.7015 C.3     1  UNL1        0.0795
     25 C           9.1831   -4.7250   28.0848 C.3     1  UNL1        0.0264
     26 C           9.4788   -4.9065   26.6254 C.3     1  UNL1        0.0729
     27 N           8.5921   -5.7748   25.7829 N.3     1  UNL1       -0.2689
     28 C           7.4097   -6.4615   26.3996 C.3     1  UNL1        0.0729
     29 C           7.1140   -6.2799   27.8589 C.3     1  UNL1        0.0264
     30 C           8.8879   -5.9563   24.3236 C.3     1  UNL1        0.0992
     31 C           8.1416   -5.1514   23.3012 C.ar    1  UNL1       -0.0031
     32 C           8.6321   -5.0980   21.8847 C.ar    1  UNL1        0.0178
     33 C           7.8858   -4.2931   20.8624 C.ar    1  UNL1        0.0986
     34 N           6.6489   -3.5417   21.2566 N.ar    1  UNL1       -0.2423
     35 C           6.1583   -3.5951   22.6731 C.ar    1  UNL1        0.0986
     36 C           6.9047   -4.4000   23.6954 C.ar    1  UNL1        0.0178
@<TRIPOS>BOND
     1    22    23    1
     2    23    21    1
     3    21    20    1
     4    20    19    1
     5    19     9    1
     6     9    10   ar
     7    10    11    2
     8    10    12   ar
     9    12     1    1
    10     1     2    1
    11     2     3    1
    12     3     4    1
    13     4     5   am
    14     5     6    2
    15     5    24    1
    16    24    25    1
    17    25    26    1
    18    26    27    1
    19    27    30    1
    20    30    31    1
    21    31    32   ar
    22    32    33   ar
    23    33    34   ar
    24    34    35   ar
    25    35    36   ar
    26    27    28    1
    27    28    29    1
    28     4     7    1
    29     7     8    1
    30    12    13   ar
    31    13    14   ar
    32    14    15   ar
    33    15    16   ar
    34    16    17   ar
    35    17    18   ar
    36    18     9   ar
    37     8     1    1
    38    18    13   ar
    39    29    24    1
    40    36    31   ar
