@<TRIPOS>MOLECULE
*****
 31 35 0 0 0
SMALL
GASTEIGER

@<TRIPOS>ATOM
      1 C           7.8135   -5.0674   23.1683 C.ar    1  UNL1        0.0033
      2 C           9.0356   -5.1449   22.3021 C.ar    1  UNL1        0.0024
      3 C           9.1004   -4.3612   21.0247 C.ar    1  UNL1        0.0296
      4 C           7.9431   -3.5000   20.6136 C.ar    1  UNL1        0.1402
      5 F           8.0078   -2.7163   19.3363 F       1  UNL1       -0.2042
      6 C           6.7209   -3.4226   21.4799 C.ar    1  UNL1        0.0304
      7 C           6.6561   -4.2063   22.7572 C.ar    1  UNL1        0.0024
      8 C           5.5636   -2.5614   21.0688 C.ar    1  UNL1        0.0359
      9 C           5.6001   -1.0838   21.3247 C.ar    1  UNL1        0.0006
     10 C           4.4428   -0.2226   20.9136 C.ar    1  UNL1        0.0023
     11 C           3.2489   -0.8391   20.2466 C.ar    1  UNL1        0.0542
     12 C           3.2124   -2.3166   19.9908 C.ar    1  UNL1        0.0411
     13 C           4.3698   -3.1778   20.4019 C.ar    1  UNL1        0.1388
     14 C           2.2646    0.2546   19.9553 C.2     1  UNL1        0.2492
     15 O           0.9292    0.0856   19.2933 O.2     1  UNL1       -0.2699
     16 N           2.8501    1.5470   20.4422 N.am    1  UNL1       -0.2702
     17 C           2.2029    2.8973   20.3525 C.3     1  UNL1        0.1155
     18 C           4.1963    1.2520   21.0344 C.3     1  UNL1        0.1206
     19 O           4.3332   -4.6554   20.1460 O.3     1  UNL1       -0.4714
     20 C           4.6056   -5.1851   18.7694 C.3     1  UNL1        0.2525
     21 N           6.8478   -5.0260   28.0925 N.ar    1  UNL1       -0.2931
     22 C           6.6468   -3.6666   27.4913 C.ar    1  UNL1        0.1797
     23 N           6.9527   -3.7580   26.0257 N.ar    1  UNL1       -0.2222
     24 C           7.3428   -5.1741   25.7212 C.ar    1  UNL1        0.1203
     25 C           7.7486   -5.8511   24.4457 C.ar    1  UNL1        0.0417
     26 C           8.0897   -7.3118   24.4475 C.ar    1  UNL1        0.1238
     27 N           8.0248   -8.0955   25.7249 N.ar    1  UNL1       -0.1449
     28 N           7.6189   -7.4184   27.0004 N.ar    1  UNL1       -0.1285
     29 C           7.2779   -5.9577   26.9985 C.ar    1  UNL1        0.1843
     30 C           7.7929   -5.9608   30.3248 C.3     1  UNL1        0.0266
     31 C           6.6529   -5.3900   29.5346 C.3     1  UNL1        0.1091
@<TRIPOS>BOND
     1    30    31    1
     2    31    21    1
     3    21    22   ar
     4    22    23   ar
     5    23    24   ar
     6    24    25   ar
     7    25     1    1
     8     1     2   ar
     9     2     3   ar
    10     3     4   ar
    11     4     5    1
    12     4     6   ar
    13     6     8    1
    14     8     9   ar
    15     9    10   ar
    16    10    11   ar
    17    11    12   ar
    18    12    13   ar
    19    13    19    1
    20    19    20    1
    21    11    14    1
    22    14    15    2
    23    14    16   am
    24    16    17    1
    25    16    18    1
    26     6     7   ar
    27    25    26   ar
    28    26    27   ar
    29    27    28   ar
    30    28    29   ar
    31    29    21   ar
    32    29    24   ar
    33     7     1   ar
    34    13     8   ar
    35    18    10    1
@<TRIPOS>MOLECULE
*****
 31 35 0 0 0
SMALL
GASTEIGER

@<TRIPOS>ATOM
      1 C          -0.3274    3.6468   19.4614 C.ar    1  UNL1        0.0033
      2 C           0.0193    4.4722   20.6649 C.ar    1  UNL1        0.0024
      3 C           1.2812    4.1941   21.4268 C.ar    1  UNL1        0.0296
      4 C           2.1963    3.0907   20.9851 C.ar    1  UNL1        0.1402
      5 F           3.4581    2.8126   21.7469 F       1  UNL1       -0.2042
      6 C           1.8495    2.2653   19.7815 C.ar    1  UNL1        0.0304
      7 C           0.5876    2.5434   19.0197 C.ar    1  UNL1        0.0024
      8 C           2.7645    1.1619   19.3398 C.ar    1  UNL1        0.0359
      9 C           2.4636   -0.2583   19.7174 C.ar    1  UNL1        0.0006
     10 C           3.3787   -1.3618   19.2757 C.ar    1  UNL1        0.0023
     11 C           4.5947   -1.0450   18.4564 C.ar    1  UNL1        0.0542
     12 C           4.8955    0.3752   18.0789 C.ar    1  UNL1        0.0411
     13 C           3.9804    1.4786   18.5206 C.ar    1  UNL1        0.1388
     14 C           5.3076   -2.3328   18.1681 C.2     1  UNL1        0.2492
     15 O           6.5736   -2.4818   17.3775 O.2     1  UNL1       -0.2699
     16 N           4.5324   -3.4455   18.8091 N.am    1  UNL1       -0.2702
     17 C           4.8870   -4.9025   18.7721 C.3     1  UNL1        0.1155
     18 C           3.3402   -2.8453   19.4936 C.3     1  UNL1        0.1206
     19 O           4.2813    2.8989   18.1430 O.3     1  UNL1       -0.4714
     20 C           5.5683    3.2339   17.4490 C.3     1  UNL1        0.2525
     21 N          -5.3444    3.5376   19.4353 N.ar    1  UNL1       -0.2931
     22 C          -4.7998    3.0248   20.7354 C.ar    1  UNL1        0.1797
     23 N          -3.3027    3.0878   20.6680 N.ar    1  UNL1       -0.2222
     24 C          -2.9220    3.6396   19.3261 C.ar    1  UNL1        0.1203
     25 C          -1.5893    3.9249   18.6995 C.ar    1  UNL1        0.0417
     26 C          -1.5185    4.4881   17.3111 C.ar    1  UNL1        0.1238
     27 N          -2.7803    4.7662   16.5493 N.ar    1  UNL1       -0.1449
     28 N          -4.1130    4.4809   17.1759 N.ar    1  UNL1       -0.1285
     29 C          -4.1838    3.9177   18.5642 C.ar    1  UNL1        0.1843
     30 C          -7.4018    4.9989   18.8173 C.3     1  UNL1        0.0266
     31 C          -6.7949    3.6507   19.0702 C.3     1  UNL1        0.1091
@<TRIPOS>BOND
     1    30    31    1
     2    31    21    1
     3    21    22   ar
     4    22    23   ar
     5    23    24   ar
     6    24    25   ar
     7    25     1    1
     8     1     2   ar
     9     2     3   ar
    10     3     4   ar
    11     4     5    1
    12     4     6   ar
    13     6     8    1
    14     8     9   ar
    15     9    10   ar
    16    10    11   ar
    17    11    12   ar
    18    12    13   ar
    19    13    19    1
    20    19    20    1
    21    11    14    1
    22    14    15    2
    23    14    16   am
    24    16    17    1
    25    16    18    1
    26     6     7   ar
    27    25    26   ar
    28    26    27   ar
    29    27    28   ar
    30    28    29   ar
    31    29    21   ar
    32    29    24   ar
    33     7     1   ar
    34    13     8   ar
    35    18    10    1
@<TRIPOS>MOLECULE
*****
 31 35 0 0 0
SMALL
GASTEIGER

@<TRIPOS>ATOM
      1 C           4.0507    2.3114   18.2079 C.ar    1  UNL1        0.0033
      2 C           4.6949    3.6506   18.0040 C.ar    1  UNL1        0.0024
      3 C           3.9224    4.9052   18.2854 C.ar    1  UNL1        0.0296
      4 C           2.5056    4.8205   18.7707 C.ar    1  UNL1        0.1402
      5 F           1.7330    6.0751   19.0522 F       1  UNL1       -0.2042
      6 C           1.8614    3.4813   18.9746 C.ar    1  UNL1        0.0304
      7 C           2.6340    2.2268   18.6932 C.ar    1  UNL1        0.0024
      8 C           0.4446    3.3967   19.4600 C.ar    1  UNL1        0.0359
      9 C          -0.6846    3.7742   18.5475 C.ar    1  UNL1        0.0006
     10 C          -2.1014    3.6896   19.0329 C.ar    1  UNL1        0.0023
     11 C          -2.3890    3.2274   20.4307 C.ar    1  UNL1        0.0542
     12 C          -1.2598    2.8498   21.3430 C.ar    1  UNL1        0.0411
     13 C           0.1569    2.9345   20.8577 C.ar    1  UNL1        0.1388
     14 C          -3.8758    3.2454   20.6280 C.2     1  UNL1        0.2492
     15 O          -4.6036    2.8581   21.8812 O.2     1  UNL1       -0.2699
     16 N          -4.5071    3.7188   19.3523 N.am    1  UNL1       -0.2702
     17 C          -5.9771    3.8879   19.1058 C.3     1  UNL1        0.1155
     18 C          -3.4104    3.9933   18.3665 C.3     1  UNL1        0.1206
     19 O           1.2861    2.5569   21.7701 O.3     1  UNL1       -0.4714
     20 C           1.4690    1.1271   22.1851 C.3     1  UNL1        0.2525
     21 N           4.4906   -2.6280   18.9770 N.ar    1  UNL1       -0.2931
     22 C           3.3059   -2.0708   19.7092 C.ar    1  UNL1        0.1797
     23 N           3.2406   -0.5980   19.4324 N.ar    1  UNL1       -0.2222
     24 C           4.3850   -0.2450   18.5291 C.ar    1  UNL1        0.1203
     25 C           4.8233    1.0568   17.9264 C.ar    1  UNL1        0.0417
     26 C           6.0342    1.1040   17.0424 C.ar    1  UNL1        0.1238
     27 N           6.8067   -0.1506   16.7610 N.ar    1  UNL1       -0.1449
     28 N           6.3684   -1.4524   17.3637 N.ar    1  UNL1       -0.1285
     29 C           5.1575   -1.4996   18.2477 C.ar    1  UNL1        0.1843
     30 C           3.9320   -5.1538   19.2183 C.3     1  UNL1        0.0266
     31 C           4.9311   -4.0618   18.9746 C.3     1  UNL1        0.1091
@<TRIPOS>BOND
     1    30    31    1
     2    31    21    1
     3    21    22   ar
     4    22    23   ar
     5    23    24   ar
     6    24    25   ar
     7    25     1    1
     8     1     2   ar
     9     2     3   ar
    10     3     4   ar
    11     4     5    1
    12     4     6   ar
    13     6     8    1
    14     8     9   ar
    15     9    10   ar
    16    10    11   ar
    17    11    12   ar
    18    12    13   ar
    19    13    19    1
    20    19    20    1
    21    11    14    1
    22    14    15    2
    23    14    16   am
    24    16    17    1
    25    16    18    1
    26     6     7   ar
    27    25    26   ar
    28    26    27   ar
    29    27    28   ar
    30    28    29   ar
    31    29    21   ar
    32    29    24   ar
    33     7     1   ar
    34    13     8   ar
    35    18    10    1
@<TRIPOS>MOLECULE
*****
 31 35 0 0 0
SMALL
GASTEIGER

@<TRIPOS>ATOM
      1 C          -0.9506    3.0684   26.8730 C.ar    1  UNL1        0.0033
      2 C          -0.7887    4.4347   27.4703 C.ar    1  UNL1        0.0024
      3 C          -1.3641    5.6314   26.7724 C.ar    1  UNL1        0.0296
      4 C          -2.1015    5.4615   25.4773 C.ar    1  UNL1        0.1402
      5 F          -2.6769    6.6581   24.7794 F       1  UNL1       -0.2042
      6 C          -2.2634    4.0951   24.8800 C.ar    1  UNL1        0.0304
      7 C          -1.6880    2.8985   25.5779 C.ar    1  UNL1        0.0024
      8 C          -3.0008    3.9253   23.5848 C.ar    1  UNL1        0.0359
      9 C          -2.2765    4.0926   22.2819 C.ar    1  UNL1        0.0006
     10 C          -3.0139    3.9228   20.9868 C.ar    1  UNL1        0.0023
     11 C          -4.4756    3.5856   20.9945 C.ar    1  UNL1        0.0542
     12 C          -5.1998    3.4183   22.2974 C.ar    1  UNL1        0.0411
     13 C          -4.4624    3.5882   23.5926 C.ar    1  UNL1        0.1388
     14 C          -4.9344    3.4801   19.5704 C.2     1  UNL1        0.2492
     15 O          -6.3268    3.1590   19.1142 O.2     1  UNL1       -0.2699
     16 N          -3.7564    3.7519   18.6824 N.am    1  UNL1       -0.2702
     17 C          -3.7640    3.7505   17.1824 C.3     1  UNL1        0.1155
     18 C          -2.5695    4.0255   19.5578 C.3     1  UNL1        0.1206
     19 O          -5.1867    3.4209   24.8955 O.3     1  UNL1       -0.4714
     20 C          -5.8369    4.6038   25.5494 C.3     1  UNL1        0.2525
     21 N           3.1366    0.3316   27.8666 N.ar    1  UNL1       -0.2931
     22 C           3.4703    1.5017   26.9894 C.ar    1  UNL1        0.1797
     23 N           2.2055    2.2677   26.7375 N.ar    1  UNL1       -0.2222
     24 C           1.0902    1.5710   27.4591 C.ar    1  UNL1        0.1203
     25 C          -0.3751    1.8717   27.5709 C.ar    1  UNL1        0.0417
     26 C          -1.2650    0.9758   28.3806 C.ar    1  UNL1        0.1238
     27 N          -0.6895   -0.2207   29.0784 N.ar    1  UNL1       -0.1449
     28 N           0.7758   -0.5214   28.9666 N.ar    1  UNL1       -0.1285
     29 C           1.6656    0.3745   28.1570 C.ar    1  UNL1        0.1843
     30 C           4.7279   -1.6700   27.4065 C.3     1  UNL1        0.0266
     31 C           4.1041   -0.7002   28.3660 C.3     1  UNL1        0.1091
@<TRIPOS>BOND
     1    30    31    1
     2    31    21    1
     3    21    22   ar
     4    22    23   ar
     5    23    24   ar
     6    24    25   ar
     7    25     1    1
     8     1     2   ar
     9     2     3   ar
    10     3     4   ar
    11     4     5    1
    12     4     6   ar
    13     6     8    1
    14     8     9   ar
    15     9    10   ar
    16    10    11   ar
    17    11    12   ar
    18    12    13   ar
    19    13    19    1
    20    19    20    1
    21    11    14    1
    22    14    15    2
    23    14    16   am
    24    16    17    1
    25    16    18    1
    26     6     7   ar
    27    25    26   ar
    28    26    27   ar
    29    27    28   ar
    30    28    29   ar
    31    29    21   ar
    32    29    24   ar
    33     7     1   ar
    34    13     8   ar
    35    18    10    1
@<TRIPOS>MOLECULE
*****
 31 35 0 0 0
SMALL
GASTEIGER

@<TRIPOS>ATOM
      1 C          -0.2119    3.8142   17.8468 C.ar    1  UNL1        0.0033
      2 C           0.7120    4.9308   17.4601 C.ar    1  UNL1        0.0024
      3 C           2.1902    4.7889   17.6728 C.ar    1  UNL1        0.0296
      4 C           2.7443    3.5305   18.2722 C.ar    1  UNL1        0.1402
      5 F           4.2223    3.3887   18.4850 F       1  UNL1       -0.2042
      6 C           1.8203    2.4139   18.6590 C.ar    1  UNL1        0.0304
      7 C           0.3422    2.5558   18.4463 C.ar    1  UNL1        0.0024
      8 C           2.3744    1.1555   19.2585 C.ar    1  UNL1        0.0359
      9 C           2.9546    0.0944   18.3712 C.ar    1  UNL1        0.0006
     10 C           3.5087   -1.1641   18.9707 C.ar    1  UNL1        0.0023
     11 C           3.4826   -1.3613   20.4575 C.ar    1  UNL1        0.0542
     12 C           2.9023   -0.3001   21.3447 C.ar    1  UNL1        0.0411
     13 C           2.3482    0.9583   20.7452 C.ar    1  UNL1        0.1388
     14 C           4.0974   -2.6959   20.7589 C.2     1  UNL1        0.2492
     15 O           4.2749   -3.2973   22.1215 O.2     1  UNL1       -0.2699
     16 N           4.5035   -3.3235   19.4584 N.am    1  UNL1       -0.2702
     17 C           5.1584   -4.6627   19.2923 C.3     1  UNL1        0.1155
     18 C           4.1397   -2.3768   18.3532 C.3     1  UNL1        0.1206
     19 O           1.7680    2.0195   21.6325 O.3     1  UNL1       -0.4714
     20 C           0.3914    1.8495   22.2035 C.3     1  UNL1        0.2525
     21 N          -4.7683    4.0288   19.9386 N.ar    1  UNL1       -0.2931
     22 C          -3.7034    3.8547   20.9805 C.ar    1  UNL1        0.1797
     23 N          -2.3767    3.7994   20.2827 N.ar    1  UNL1       -0.2222
     24 C          -2.6218    3.9394   18.8094 C.ar    1  UNL1        0.1203
     25 C          -1.6900    3.9560   17.6341 C.ar    1  UNL1        0.0417
     26 C          -2.2362    4.1145   16.2461 C.ar    1  UNL1        0.1238
     27 N          -3.7142    4.2563   16.0335 N.ar    1  UNL1       -0.1449
     28 N          -4.6460    4.2396   17.2088 N.ar    1  UNL1       -0.1285
     29 C          -4.0998    4.0812   18.5968 C.ar    1  UNL1        0.1843
     30 C          -6.7430    4.5356   21.5491 C.3     1  UNL1        0.0266
     31 C          -6.2428    4.1324   20.1936 C.3     1  UNL1        0.1091
@<TRIPOS>BOND
     1    30    31    1
     2    31    21    1
     3    21    22   ar
     4    22    23   ar
     5    23    24   ar
     6    24    25   ar
     7    25     1    1
     8     1     2   ar
     9     2     3   ar
    10     3     4   ar
    11     4     5    1
    12     4     6   ar
    13     6     8    1
    14     8     9   ar
    15     9    10   ar
    16    10    11   ar
    17    11    12   ar
    18    12    13   ar
    19    13    19    1
    20    19    20    1
    21    11    14    1
    22    14    15    2
    23    14    16   am
    24    16    17    1
    25    16    18    1
    26     6     7   ar
    27    25    26   ar
    28    26    27   ar
    29    27    28   ar
    30    28    29   ar
    31    29    21   ar
    32    29    24   ar
    33     7     1   ar
    34    13     8   ar
    35    18    10    1
@<TRIPOS>MOLECULE
*****
 31 35 0 0 0
SMALL
GASTEIGER

@<TRIPOS>ATOM
      1 C          -1.4442    3.2373   20.2173 C.ar    1  UNL1        0.0033
      2 C          -0.9846    4.1979   19.1609 C.ar    1  UNL1        0.0024
      3 C           0.3525    4.0106   18.5073 C.ar    1  UNL1        0.0296
      4 C           1.2300    2.8627   18.9102 C.ar    1  UNL1        0.1402
      5 F           2.5671    2.6754   18.2566 F       1  UNL1       -0.2042
      6 C           0.7704    1.9021   19.9666 C.ar    1  UNL1        0.0304
      7 C          -0.5667    2.0894   20.6202 C.ar    1  UNL1        0.0024
      8 C           1.6479    0.7542   20.3695 C.ar    1  UNL1        0.0359
      9 C           2.1030   -0.2388   19.3414 C.ar    1  UNL1        0.0006
     10 C           2.9805   -1.3867   19.7442 C.ar    1  UNL1        0.0023
     11 C           3.4029   -1.5416   21.1752 C.ar    1  UNL1        0.0542
     12 C           2.9478   -0.5487   22.2032 C.ar    1  UNL1        0.0411
     13 C           2.0703    0.5992   21.8004 C.ar    1  UNL1        0.1388
     14 C           4.2652   -2.7650   21.2741 C.2     1  UNL1        0.2492
     15 O           4.9046   -3.2943   22.5234 O.2     1  UNL1       -0.2699
     16 N           4.3757   -3.3662   19.9042 N.am    1  UNL1       -0.2702
     17 C           5.1452   -4.6022   19.5433 C.3     1  UNL1        0.1155
     18 C           3.5818   -2.5143   18.9587 C.3     1  UNL1        0.1206
     19 O           1.6152    1.5922   22.8285 O.3     1  UNL1       -0.4714
     20 C           0.8779    1.1244   24.0481 C.3     1  UNL1        0.2525
     21 N          -3.9884    3.9075   24.4905 N.ar    1  UNL1       -0.2931
     22 C          -2.5148    3.8026   24.7501 C.ar    1  UNL1        0.1797
     23 N          -1.8250    3.6045   23.4330 N.ar    1  UNL1       -0.2222
     24 C          -2.8724    3.5869   22.3593 C.ar    1  UNL1        0.1203
     25 C          -2.7813    3.4245   20.8709 C.ar    1  UNL1        0.0417
     26 C          -4.0273    3.4494   20.0361 C.ar    1  UNL1        0.1238
     27 N          -5.3643    3.6367   20.6897 N.ar    1  UNL1       -0.1449
     28 N          -5.4554    3.7991   22.1781 N.ar    1  UNL1       -0.1285
     29 C          -4.2094    3.7742   23.0129 C.ar    1  UNL1        0.1843
     30 C          -4.6758    4.4961   26.9259 C.3     1  UNL1        0.0266
     31 C          -5.0540    4.1101   25.5266 C.3     1  UNL1        0.1091
@<TRIPOS>BOND
     1    30    31    1
     2    31    21    1
     3    21    22   ar
     4    22    23   ar
     5    23    24   ar
     6    24    25   ar
     7    25     1    1
     8     1     2   ar
     9     2     3   ar
    10     3     4   ar
    11     4     5    1
    12     4     6   ar
    13     6     8    1
    14     8     9   ar
    15     9    10   ar
    16    10    11   ar
    17    11    12   ar
    18    12    13   ar
    19    13    19    1
    20    19    20    1
    21    11    14    1
    22    14    15    2
    23    14    16   am
    24    16    17    1
    25    16    18    1
    26     6     7   ar
    27    25    26   ar
    28    26    27   ar
    29    27    28   ar
    30    28    29   ar
    31    29    21   ar
    32    29    24   ar
    33     7     1   ar
    34    13     8   ar
    35    18    10    1
@<TRIPOS>MOLECULE
*****
 31 35 0 0 0
SMALL
GASTEIGER

@<TRIPOS>ATOM
      1 C          -1.7427    3.3511   21.7892 C.ar    1  UNL1        0.0033
      2 C          -1.1617    4.0119   23.0040 C.ar    1  UNL1        0.0024
      3 C           0.2810    3.7994   23.3556 C.ar    1  UNL1        0.0296
      4 C           1.1426    2.9262   22.4924 C.ar    1  UNL1        0.1402
      5 F           2.5853    2.7138   22.8440 F       1  UNL1       -0.2042
      6 C           0.5615    2.2655   21.2776 C.ar    1  UNL1        0.0304
      7 C          -0.8811    2.4779   20.9260 C.ar    1  UNL1        0.0024
      8 C           1.4231    1.3923   20.4143 C.ar    1  UNL1        0.0359
      9 C           1.8111    0.0217   20.8847 C.ar    1  UNL1        0.0006
     10 C           2.6727   -0.8515   20.0215 C.ar    1  UNL1        0.0023
     11 C           3.1463   -0.3541   18.6879 C.ar    1  UNL1        0.0542
     12 C           2.7584    1.0163   18.2176 C.ar    1  UNL1        0.0411
     13 C           1.8968    1.8895   19.0808 C.ar    1  UNL1        0.1388
     14 C           3.9788   -1.4325   18.0601 C.2     1  UNL1        0.2492
     15 O           4.6522   -1.3598   16.7217 O.2     1  UNL1       -0.2699
     16 N           4.0197   -2.5962   19.0056 N.am    1  UNL1       -0.2702
     17 C           4.7412   -3.8917   18.7788 C.3     1  UNL1        0.1155
     18 C           3.2125   -2.2371   20.2178 C.3     1  UNL1        0.1206
     19 O           1.5088    3.2601   18.6104 O.3     1  UNL1       -0.4714
     20 C           2.4466    4.4140   18.8074 C.3     1  UNL1        0.2525
     21 N          -6.4100    4.1535   23.4489 N.ar    1  UNL1       -0.2931
     22 C          -5.4418    4.0481   24.5898 C.ar    1  UNL1        0.1797
     23 N          -4.0758    3.8098   24.0178 N.ar    1  UNL1       -0.2222
     24 C          -4.1998    3.7678   22.5235 C.ar    1  UNL1        0.1203
     25 C          -3.1854    3.5636   21.4376 C.ar    1  UNL1        0.0417
     26 C          -3.6136    3.5718   20.0000 C.ar    1  UNL1        0.1238
     27 N          -5.0562    3.7842   19.6485 N.ar    1  UNL1       -0.1449
     28 N          -6.0706    3.9885   20.7344 N.ar    1  UNL1       -0.1285
     29 C          -5.6424    3.9802   22.1719 C.ar    1  UNL1        0.1843
     30 C          -8.3999    5.5432   24.3758 C.3     1  UNL1        0.0266
     31 C          -7.8866    4.3905   23.5647 C.3     1  UNL1        0.1091
@<TRIPOS>BOND
     1    30    31    1
     2    31    21    1
     3    21    22   ar
     4    22    23   ar
     5    23    24   ar
     6    24    25   ar
     7    25     1    1
     8     1     2   ar
     9     2     3   ar
    10     3     4   ar
    11     4     5    1
    12     4     6   ar
    13     6     8    1
    14     8     9   ar
    15     9    10   ar
    16    10    11   ar
    17    11    12   ar
    18    12    13   ar
    19    13    19    1
    20    19    20    1
    21    11    14    1
    22    14    15    2
    23    14    16   am
    24    16    17    1
    25    16    18    1
    26     6     7   ar
    27    25    26   ar
    28    26    27   ar
    29    27    28   ar
    30    28    29   ar
    31    29    21   ar
    32    29    24   ar
    33     7     1   ar
    34    13     8   ar
    35    18    10    1
@<TRIPOS>MOLECULE
*****
 31 35 0 0 0
SMALL
GASTEIGER

@<TRIPOS>ATOM
      1 C          -0.3797    3.3571   23.2625 C.ar    1  UNL1        0.0033
      2 C           0.4541    4.5697   23.5533 C.ar    1  UNL1        0.0024
      3 C           1.9509    4.4733   23.5322 C.ar    1  UNL1        0.0296
      4 C           2.6139    3.1644   23.2203 C.ar    1  UNL1        0.1402
      5 F           4.1106    3.0681   23.1993 F       1  UNL1       -0.2042
      6 C           1.7800    1.9519   22.9296 C.ar    1  UNL1        0.0304
      7 C           0.2833    2.0482   22.9506 C.ar    1  UNL1        0.0024
      8 C           2.4430    0.6430   22.6177 C.ar    1  UNL1        0.0359
      9 C           2.4549    0.1249   21.2100 C.ar    1  UNL1        0.0006
     10 C           3.1179   -1.1840   20.8982 C.ar    1  UNL1        0.0023
     11 C           3.7690   -1.9748   21.9940 C.ar    1  UNL1        0.0542
     12 C           3.7571   -1.4567   23.4016 C.ar    1  UNL1        0.0411
     13 C           3.0941   -0.1478   23.7135 C.ar    1  UNL1        0.1388
     14 C           4.3407   -3.2224   21.3885 C.2     1  UNL1        0.2492
     15 O           5.0803   -4.3004   22.1239 O.2     1  UNL1       -0.2699
     16 N           4.0430   -3.2026   19.9184 N.am    1  UNL1       -0.2702
     17 C           4.4327   -4.2575   18.9257 C.3     1  UNL1        0.1155
     18 C           3.2873   -1.9429   19.6154 C.3     1  UNL1        0.1206
     19 O           3.0822    0.3703   25.1212 O.3     1  UNL1       -0.4714
     20 C           3.5495   -0.5046   26.2463 C.3     1  UNL1        0.2525
     21 N          -4.6185    3.6870   20.5968 N.ar    1  UNL1       -0.2931
     22 C          -3.4188    3.6282   19.6984 C.ar    1  UNL1        0.1797
     23 N          -2.1967    3.5311   20.5628 N.ar    1  UNL1       -0.2222
     24 C          -2.6413    3.5299   21.9954 C.ar    1  UNL1        0.1203
     25 C          -1.8765    3.4535   23.2835 C.ar    1  UNL1        0.0417
     26 C          -2.6084    3.4734   24.5927 C.ar    1  UNL1        0.1238
     27 N          -4.1051    3.5697   24.6137 N.ar    1  UNL1       -0.1449
     28 N          -4.8699    3.6461   23.3256 N.ar    1  UNL1       -0.1285
     29 C          -4.1380    3.6262   22.0164 C.ar    1  UNL1        0.1843
     30 C          -6.4460    3.3085   18.7893 C.3     1  UNL1        0.0266
     31 C          -6.0479    3.7887   20.1535 C.3     1  UNL1        0.1091
@<TRIPOS>BOND
     1    30    31    1
     2    31    21    1
     3    21    22   ar
     4    22    23   ar
     5    23    24   ar
     6    24    25   ar
     7    25     1    1
     8     1     2   ar
     9     2     3   ar
    10     3     4   ar
    11     4     5    1
    12     4     6   ar
    13     6     8    1
    14     8     9   ar
    15     9    10   ar
    16    10    11   ar
    17    11    12   ar
    18    12    13   ar
    19    13    19    1
    20    19    20    1
    21    11    14    1
    22    14    15    2
    23    14    16   am
    24    16    17    1
    25    16    18    1
    26     6     7   ar
    27    25    26   ar
    28    26    27   ar
    29    27    28   ar
    30    28    29   ar
    31    29    21   ar
    32    29    24   ar
    33     7     1   ar
    34    13     8   ar
    35    18    10    1
@<TRIPOS>MOLECULE
*****
 31 35 0 0 0
SMALL
GASTEIGER

@<TRIPOS>ATOM
      1 C           2.6110    2.0230   20.7297 C.ar    1  UNL1        0.0033
      2 C           3.6090    3.1074   21.0085 C.ar    1  UNL1        0.0024
      3 C           3.2274    4.2745   21.8701 C.ar    1  UNL1        0.0296
      4 C           1.8477    4.3571   22.4529 C.ar    1  UNL1        0.1402
      5 F           1.4660    5.5241   23.3144 F       1  UNL1       -0.2042
      6 C           0.8496    3.2726   22.1740 C.ar    1  UNL1        0.0304
      7 C           1.2312    2.1056   21.3124 C.ar    1  UNL1        0.0024
      8 C          -0.5301    3.3552   22.7567 C.ar    1  UNL1        0.0359
      9 C          -1.7018    3.6578   21.8702 C.ar    1  UNL1        0.0006
     10 C          -3.0815    3.7404   22.4529 C.ar    1  UNL1        0.0023
     11 C          -3.2896    3.5203   23.9221 C.ar    1  UNL1        0.0542
     12 C          -2.1180    3.2177   24.8085 C.ar    1  UNL1        0.0411
     13 C          -0.7382    3.1351   24.2257 C.ar    1  UNL1        0.1388
     14 C          -4.7548    3.6639   24.2093 C.2     1  UNL1        0.2492
     15 O          -5.4079    3.5233   25.5523 O.2     1  UNL1       -0.2699
     16 N          -5.4523    3.9726   22.9177 N.am    1  UNL1       -0.2702
     17 C          -6.9254    4.1950   22.7424 C.3     1  UNL1        0.1155
     18 C          -4.4181    4.0199   21.8322 C.3     1  UNL1        0.1206
     19 O           0.4334    2.8325   25.1122 O.3     1  UNL1       -0.4714
     20 C           0.7771    1.4101   25.4415 C.3     1  UNL1        0.2525
     21 N           4.1891   -2.7369   20.5406 N.ar    1  UNL1       -0.2931
     22 C           4.0441   -2.2719   21.9594 C.ar    1  UNL1        0.1797
     23 N           3.5717   -0.8485   21.9347 N.ar    1  UNL1       -0.2222
     24 C           3.4246   -0.4338   20.5006 C.ar    1  UNL1        0.1203
     25 C           2.9926    0.8559   19.8680 C.ar    1  UNL1        0.0417
     26 C           2.9421    0.9784   18.3739 C.ar    1  UNL1        0.1238
     27 N           3.3237   -0.1886   17.5124 N.ar    1  UNL1       -0.1449
     28 N           3.7558   -1.4783   18.1450 N.ar    1  UNL1       -0.1285
     29 C           3.8062   -1.6008   19.6391 C.ar    1  UNL1        0.1843
     30 C           3.6704   -5.0265   19.4276 C.3     1  UNL1        0.0266
     31 C           4.6381   -4.0988   20.1006 C.3     1  UNL1        0.1091
@<TRIPOS>BOND
     1    30    31    1
     2    31    21    1
     3    21    22   ar
     4    22    23   ar
     5    23    24   ar
     6    24    25   ar
     7    25     1    1
     8     1     2   ar
     9     2     3   ar
    10     3     4   ar
    11     4     5    1
    12     4     6   ar
    13     6     8    1
    14     8     9   ar
    15     9    10   ar
    16    10    11   ar
    17    11    12   ar
    18    12    13   ar
    19    13    19    1
    20    19    20    1
    21    11    14    1
    22    14    15    2
    23    14    16   am
    24    16    17    1
    25    16    18    1
    26     6     7   ar
    27    25    26   ar
    28    26    27   ar
    29    27    28   ar
    30    28    29   ar
    31    29    21   ar
    32    29    24   ar
    33     7     1   ar
    34    13     8   ar
    35    18    10    1
