@<TRIPOS>MOLECULE
*****
 30 33 0 0 0
SMALL
GASTEIGER

@<TRIPOS>ATOM
      1 C           8.8702   -1.3296   32.3394 C.3     1  UNL1        0.0324
      2 C           7.4669   -1.4718   32.8497 C.ar    1  UNL1       -0.0071
      3 C           7.0083   -0.6544   34.0208 C.ar    1  UNL1        0.0115
      4 C           5.6050   -0.7966   34.5312 C.ar    1  UNL1        0.0476
      5 C           4.6602   -1.7561   33.8704 C.ar    1  UNL1        0.0158
      6 C           5.1188   -2.5735   32.6993 C.ar    1  UNL1        0.0156
      7 C           6.5221   -2.4313   32.1890 C.ar    1  UNL1        0.0466
      8 N           5.1464    0.0209   35.7023 N.pl3   1  UNL1       -0.3061
      9 C           5.9963    0.9536   36.5134 C.3     1  UNL1        0.0923
     10 C           5.1326    1.5583   37.5803 C.3     1  UNL1        0.0391
     11 C           3.7489    0.9992   37.4287 C.3     1  UNL1        0.0790
     12 C           3.7575    0.0491   36.2681 C.3     1  UNL1        0.1067
     13 N           2.5646    1.3320   38.2871 N.3     1  UNL1       -0.2736
     14 C           1.8423    0.3845   39.1984 C.3     1  UNL1        0.0721
     15 C           0.7260    1.1375   39.8594 C.3     1  UNL1        0.0187
     16 C           0.7585    2.5503   39.3565 C.3     1  UNL1        0.0174
     17 C           1.8948    2.6705   38.3848 C.3     1  UNL1        0.0576
     18 C           2.2916    3.9114   37.6413 C.3     1  UNL1        0.0173
     19 N           6.9807   -3.2488   31.0178 N.am    1  UNL1       -0.2806
     20 C           6.9915   -4.7461   31.1065 C.2     1  UNL1        0.2493
     21 O           6.5437   -5.4260   32.3663 O.2     1  UNL1       -0.2698
     22 H           7.2745   -2.8025   30.1909 H       1  UNL1        0.1552
     23 C           7.4500   -5.5635   29.9353 C.ar    1  UNL1        0.0520
     24 C           6.7574   -5.4315   28.6114 C.ar    1  UNL1        0.0338
     25 C           7.2159   -6.2489   27.4402 C.ar    1  UNL1        0.1403
     26 F           6.5232   -6.1168   26.1163 F       1  UNL1       -0.2042
     27 C           8.3670   -7.1983   27.5930 C.ar    1  UNL1        0.0293
     28 C           9.0596   -7.3304   28.9170 C.ar    1  UNL1       -0.0018
     29 C           8.6011   -6.5130   30.0881 C.ar    1  UNL1       -0.0173
     30 C           9.2938   -6.6451   31.4121 C.3     1  UNL1        0.0312
@<TRIPOS>BOND
     1     1     2    1
     2     2     3   ar
     3     3     4   ar
     4     4     8    1
     5     8     9    1
     6     9    10    1
     7    10    11    1
     8    11    13    1
     9    13    14    1
    10    14    15    1
    11    15    16    1
    12    16    17    1
    13    17    18    1
    14    11    12    1
    15     4     5   ar
    16     5     6   ar
    17     6     7   ar
    18     7    19    1
    19    19    20   am
    20    20    21    2
    21    20    23    1
    22    23    24   ar
    23    24    25   ar
    24    25    26    1
    25    25    27   ar
    26    27    28   ar
    27    28    29   ar
    28    29    30    1
    29     7     2   ar
    30    29    23   ar
    31    12     8    1
    32    17    13    1
    33    19    22    1
@<TRIPOS>MOLECULE
*****
 30 33 0 0 0
SMALL
GASTEIGER

@<TRIPOS>ATOM
      1 C           6.9321    0.9894   33.5534 C.3     1  UNL1        0.0324
      2 C           6.4150   -0.3912   33.2766 C.ar    1  UNL1       -0.0071
      3 C           7.1931   -1.3202   32.3926 C.ar    1  UNL1        0.0115
      4 C           6.6761   -2.7008   32.1157 C.ar    1  UNL1        0.0476
      5 C           5.3810   -3.1524   32.7229 C.ar    1  UNL1        0.0158
      6 C           4.6029   -2.2234   33.6069 C.ar    1  UNL1        0.0156
      7 C           5.1200   -0.8429   33.8838 C.ar    1  UNL1        0.0466
      8 N           7.4543   -3.6298   31.2316 N.pl3   1  UNL1       -0.3061
      9 C           8.9370   -3.8526   31.2748 C.3     1  UNL1        0.0923
     10 C           9.2853   -4.8596   30.2190 C.3     1  UNL1        0.0391
     11 C           8.0179   -5.2591   29.5233 C.3     1  UNL1        0.0790
     12 C           6.8862   -4.4991   30.1492 C.3     1  UNL1        0.1067
     13 N           7.9024   -6.2455   28.3992 N.3     1  UNL1       -0.2736
     14 C           8.3476   -7.6775   28.4336 C.3     1  UNL1        0.0721
     15 C           8.0418   -8.2901   27.0990 C.3     1  UNL1        0.0187
     16 C           7.4076   -7.2368   26.2398 C.3     1  UNL1        0.0174
     17 C           7.3214   -5.9731   27.0434 C.3     1  UNL1        0.0576
     18 C           6.7539   -4.6665   26.5737 C.3     1  UNL1        0.0173
     19 N           4.3418    0.0861   34.7679 N.am    1  UNL1       -0.2806
     20 C           4.7164    0.2361   36.2125 C.2     1  UNL1        0.2493
     21 O           5.8691   -0.5429   36.7732 O.2     1  UNL1       -0.2698
     22 H           3.5852    0.5974   34.3999 H       1  UNL1        0.1552
     23 C           3.9382    1.1651   37.0966 C.ar    1  UNL1        0.0520
     24 C           2.8776    0.6211   38.0072 C.ar    1  UNL1        0.0338
     25 C           2.0995    1.5500   38.8913 C.ar    1  UNL1        0.1403
     26 F           1.0389    1.0060   39.8019 F       1  UNL1       -0.2042
     27 C           2.3820    3.0229   38.8647 C.ar    1  UNL1        0.0293
     28 C           3.4426    3.5669   37.9541 C.ar    1  UNL1       -0.0018
     29 C           4.2207    2.6380   37.0701 C.ar    1  UNL1       -0.0173
     30 C           5.2813    3.1820   36.1595 C.3     1  UNL1        0.0312
@<TRIPOS>BOND
     1     1     2    1
     2     2     3   ar
     3     3     4   ar
     4     4     8    1
     5     8     9    1
     6     9    10    1
     7    10    11    1
     8    11    13    1
     9    13    14    1
    10    14    15    1
    11    15    16    1
    12    16    17    1
    13    17    18    1
    14    11    12    1
    15     4     5   ar
    16     5     6   ar
    17     6     7   ar
    18     7    19    1
    19    19    20   am
    20    20    21    2
    21    20    23    1
    22    23    24   ar
    23    24    25   ar
    24    25    26    1
    25    25    27   ar
    26    27    28   ar
    27    28    29   ar
    28    29    30    1
    29     7     2   ar
    30    29    23   ar
    31    12     8    1
    32    17    13    1
    33    19    22    1
@<TRIPOS>MOLECULE
*****
 30 33 0 0 0
SMALL
GASTEIGER

@<TRIPOS>ATOM
      1 C           1.5674    0.7693   24.7169 C.3     1  UNL1        0.0324
      2 C           0.5287    1.6223   24.0509 C.ar    1  UNL1       -0.0071
      3 C          -0.5922    2.2066   24.8584 C.ar    1  UNL1        0.0115
      4 C          -1.6309    3.0596   24.1925 C.ar    1  UNL1        0.0476
      5 C          -1.5487    3.3283   22.7191 C.ar    1  UNL1        0.0158
      6 C          -0.4278    2.7440   21.9116 C.ar    1  UNL1        0.0156
      7 C           0.6109    1.8910   22.5775 C.ar    1  UNL1        0.0466
      8 N          -2.7519    3.6440   25.0001 N.pl3   1  UNL1       -0.3061
      9 C          -2.8155    3.7166   26.4969 C.3     1  UNL1        0.0923
     10 C          -4.1089    4.3758   26.8745 C.3     1  UNL1        0.0391
     11 C          -4.8447    4.7105   25.6109 C.3     1  UNL1        0.0790
     12 C          -4.0060    4.2582   24.4525 C.3     1  UNL1        0.1067
     13 N          -6.1840    5.3800   25.5215 N.3     1  UNL1       -0.2736
     14 C          -6.7527    6.3502   26.5141 C.3     1  UNL1        0.0721
     15 C          -8.1100    6.7666   26.0298 C.3     1  UNL1        0.0187
     16 C          -8.3801    6.0538   24.7380 C.3     1  UNL1        0.0174
     17 C          -7.1897    5.1968   24.4238 C.3     1  UNL1        0.0576
     18 C          -7.0327    4.3119   23.2228 C.3     1  UNL1        0.0173
     19 N           1.7319    1.3067   21.7699 N.am    1  UNL1       -0.2806
     20 C           1.4829    0.1152   20.8933 C.2     1  UNL1        0.2493
     21 O           0.1130   -0.4919   20.8242 O.2     1  UNL1       -0.2698
     22 H           2.6310    1.7051   21.8153 H       1  UNL1        0.1552
     23 C           2.6038   -0.4691   20.0858 C.ar    1  UNL1        0.0520
     24 C           2.6918   -0.1920   18.6142 C.ar    1  UNL1        0.0338
     25 C           3.8126   -0.7763   17.8066 C.ar    1  UNL1        0.1403
     26 F           3.9005   -0.4991   16.3351 F       1  UNL1       -0.2042
     27 C           4.8456   -1.6377   18.4706 C.ar    1  UNL1        0.0293
     28 C           4.7577   -1.9148   19.9422 C.ar    1  UNL1       -0.0018
     29 C           3.6368   -1.3305   20.7497 C.ar    1  UNL1       -0.0173
     30 C           3.5489   -1.6076   22.2213 C.3     1  UNL1        0.0312
@<TRIPOS>BOND
     1     1     2    1
     2     2     3   ar
     3     3     4   ar
     4     4     8    1
     5     8     9    1
     6     9    10    1
     7    10    11    1
     8    11    13    1
     9    13    14    1
    10    14    15    1
    11    15    16    1
    12    16    17    1
    13    17    18    1
    14    11    12    1
    15     4     5   ar
    16     5     6   ar
    17     6     7   ar
    18     7    19    1
    19    19    20   am
    20    20    21    2
    21    20    23    1
    22    23    24   ar
    23    24    25   ar
    24    25    26    1
    25    25    27   ar
    26    27    28   ar
    27    28    29   ar
    28    29    30    1
    29     7     2   ar
    30    29    23   ar
    31    12     8    1
    32    17    13    1
    33    19    22    1
@<TRIPOS>MOLECULE
*****
 30 33 0 0 0
SMALL
GASTEIGER

@<TRIPOS>ATOM
      1 C          -0.1127    3.1437   20.6300 C.3     1  UNL1        0.0324
      2 C          -0.3026    2.7598   22.0676 C.ar    1  UNL1       -0.0071
      3 C          -1.4187    3.3668   22.8649 C.ar    1  UNL1        0.0115
      4 C          -1.6085    2.9830   24.3025 C.ar    1  UNL1        0.0476
      5 C          -0.6822    1.9920   24.9427 C.ar    1  UNL1        0.0158
      6 C           0.4339    1.3850   24.1454 C.ar    1  UNL1        0.0156
      7 C           0.6237    1.7689   22.7079 C.ar    1  UNL1        0.0466
      8 N          -2.7247    3.5901   25.0998 N.pl3   1  UNL1       -0.3061
      9 C          -2.7699    3.7243   26.5930 C.3     1  UNL1        0.0923
     10 C          -4.0648    4.3867   26.9599 C.3     1  UNL1        0.0391
     11 C          -4.8199    4.6618   25.6933 C.3     1  UNL1        0.0790
     12 C          -3.9916    4.1695   24.5437 C.3     1  UNL1        0.1067
     13 N          -6.1666    5.3147   25.5938 N.3     1  UNL1       -0.2736
     14 C          -6.7697    6.2495   26.6000 C.3     1  UNL1        0.0721
     15 C          -8.1226    6.6599   26.0987 C.3     1  UNL1        0.0187
     16 C          -8.3556    5.9787   24.7828 C.3     1  UNL1        0.0174
     17 C          -7.1467    5.1473   24.4707 C.3     1  UNL1        0.0576
     18 C          -6.9522    4.2977   23.2499 C.3     1  UNL1        0.0173
     19 N           1.7399    1.1617   21.9106 N.am    1  UNL1       -0.2806
     20 C           1.4430    0.1040   20.8893 C.2     1  UNL1        0.2493
     21 O           0.0300   -0.3466   20.6652 O.2     1  UNL1       -0.2698
     22 H           2.6674    1.4575   22.0576 H       1  UNL1        0.1552
     23 C           2.5592   -0.5031   20.0920 C.ar    1  UNL1        0.0520
     24 C           3.2173   -1.7658   20.5637 C.ar    1  UNL1        0.0338
     25 C           4.3334   -2.3729   19.7665 C.ar    1  UNL1        0.1403
     26 F           4.9915   -3.6356   20.2382 F       1  UNL1       -0.2042
     27 C           4.7915   -1.7173   18.4975 C.ar    1  UNL1        0.0293
     28 C           4.1334   -0.4546   18.0258 C.ar    1  UNL1       -0.0018
     29 C           3.0173    0.1525   18.8230 C.ar    1  UNL1       -0.0173
     30 C           2.3592    1.4152   18.3513 C.3     1  UNL1        0.0312
@<TRIPOS>BOND
     1     1     2    1
     2     2     3   ar
     3     3     4   ar
     4     4     8    1
     5     8     9    1
     6     9    10    1
     7    10    11    1
     8    11    13    1
     9    13    14    1
    10    14    15    1
    11    15    16    1
    12    16    17    1
    13    17    18    1
    14    11    12    1
    15     4     5   ar
    16     5     6   ar
    17     6     7   ar
    18     7    19    1
    19    19    20   am
    20    20    21    2
    21    20    23    1
    22    23    24   ar
    23    24    25   ar
    24    25    26    1
    25    25    27   ar
    26    27    28   ar
    27    28    29   ar
    28    29    30    1
    29     7     2   ar
    30    29    23   ar
    31    12     8    1
    32    17    13    1
    33    19    22    1
@<TRIPOS>MOLECULE
*****
 30 33 0 0 0
SMALL
GASTEIGER

@<TRIPOS>ATOM
      1 C           7.3358   -5.6768   25.0208 C.3     1  UNL1        0.0324
      2 C           6.9389   -4.4470   25.7824 C.ar    1  UNL1       -0.0071
      3 C           6.9114   -4.4697   27.2819 C.ar    1  UNL1        0.0115
      4 C           6.5145   -3.2398   28.0435 C.ar    1  UNL1        0.0476
      5 C           6.1451   -1.9873   27.3055 C.ar    1  UNL1        0.0158
      6 C           6.1726   -1.9646   25.8060 C.ar    1  UNL1        0.0156
      7 C           6.5695   -3.1944   25.0444 C.ar    1  UNL1        0.0466
      8 N           6.4869   -3.2626   29.5431 N.pl3   1  UNL1       -0.3061
      9 C           6.8880   -4.4154   30.4149 C.3     1  UNL1        0.0923
     10 C           6.7024   -4.0018   31.8448 C.3     1  UNL1        0.0391
     11 C           6.1867   -2.5932   31.8567 C.3     1  UNL1        0.0790
     12 C           6.0535   -2.1364   30.4342 C.3     1  UNL1        0.1067
     13 N           5.8613   -1.7837   33.0768 N.3     1  UNL1       -0.2736
     14 C           4.5568   -1.7904   33.8171 C.3     1  UNL1        0.0721
     15 C           4.6725   -0.8362   34.9687 C.3     1  UNL1        0.0187
     16 C           6.0486   -0.2399   34.9401 C.3     1  UNL1        0.0174
     17 C           6.7833   -0.8255   33.7708 C.3     1  UNL1        0.0576
     18 C           8.1926   -0.5085   33.3665 C.3     1  UNL1        0.0173
     19 N           6.5971   -3.1717   23.5448 N.am    1  UNL1       -0.2806
     20 C           5.3309   -2.9391   22.7749 C.2     1  UNL1        0.2493
     21 O           4.0373   -2.7293   23.5045 O.2     1  UNL1       -0.2698
     22 H           7.4461   -3.3094   23.0659 H       1  UNL1        0.1552
     23 C           5.3585   -2.9164   21.2752 C.ar    1  UNL1        0.0520
     24 C           4.9866   -4.1452   20.4996 C.ar    1  UNL1        0.0338
     25 C           5.0141   -4.1225   19.0000 C.ar    1  UNL1        0.1403
     26 F           4.6422   -5.3514   18.2244 F       1  UNL1       -0.2042
     27 C           5.4135   -2.8710   18.2761 C.ar    1  UNL1        0.0293
     28 C           5.7854   -1.6421   19.0518 C.ar    1  UNL1       -0.0018
     29 C           5.7579   -1.6648   20.5513 C.ar    1  UNL1       -0.0173
     30 C           6.1297   -0.4360   21.3270 C.3     1  UNL1        0.0312
@<TRIPOS>BOND
     1     1     2    1
     2     2     3   ar
     3     3     4   ar
     4     4     8    1
     5     8     9    1
     6     9    10    1
     7    10    11    1
     8    11    13    1
     9    13    14    1
    10    14    15    1
    11    15    16    1
    12    16    17    1
    13    17    18    1
    14    11    12    1
    15     4     5   ar
    16     5     6   ar
    17     6     7   ar
    18     7    19    1
    19    19    20   am
    20    20    21    2
    21    20    23    1
    22    23    24   ar
    23    24    25   ar
    24    25    26    1
    25    25    27   ar
    26    27    28   ar
    27    28    29   ar
    28    29    30    1
    29     7     2   ar
    30    29    23   ar
    31    12     8    1
    32    17    13    1
    33    19    22    1
@<TRIPOS>MOLECULE
*****
 30 33 0 0 0
SMALL
GASTEIGER

@<TRIPOS>ATOM
      1 C          -3.9570    4.4503   20.4307 C.3     1  UNL1        0.0324
      2 C          -2.7493    3.8425   21.0802 C.ar    1  UNL1       -0.0071
      3 C          -1.7551    3.0829   20.2528 C.ar    1  UNL1        0.0115
      4 C          -0.5474    2.4751   20.9024 C.ar    1  UNL1        0.0476
      5 C          -0.3338    2.6269   22.3793 C.ar    1  UNL1        0.0158
      6 C          -1.3279    3.3865   23.2066 C.ar    1  UNL1        0.0156
      7 C          -2.5357    3.9944   22.5571 C.ar    1  UNL1        0.0466
      8 N           0.4468    1.7154   20.0749 N.pl3   1  UNL1       -0.3061
      9 C           0.8504    2.0367   18.6665 C.3     1  UNL1        0.0923
     10 C           1.8649    1.0209   18.2318 C.3     1  UNL1        0.0391
     11 C           2.0883    0.0718   19.3717 C.3     1  UNL1        0.0790
     12 C           1.2118    0.5010   20.5108 C.3     1  UNL1        0.1067
     13 N           3.0239   -1.1007   19.3723 N.3     1  UNL1       -0.2736
     14 C           3.2773   -2.0258   20.5255 C.3     1  UNL1        0.0721
     15 C           4.2803   -3.0508   20.0857 C.3     1  UNL1        0.0187
     16 C           4.6468   -2.7591   18.6607 C.3     1  UNL1        0.0174
     17 C           3.8702   -1.5539   18.2198 C.3     1  UNL1        0.0576
     18 C           3.9296   -0.9142   16.8643 C.3     1  UNL1        0.0173
     19 N          -3.5299    4.7540   23.3845 N.am    1  UNL1       -0.2806
     20 C          -4.7276    4.0507   23.9509 C.2     1  UNL1        0.2493
     21 O          -4.9312    2.5877   23.6898 O.2     1  UNL1       -0.2698
     22 H          -3.3962    5.7143   23.5559 H       1  UNL1        0.1552
     23 C          -5.7217    4.8104   24.7783 C.ar    1  UNL1        0.0520
     24 C          -6.9942    5.3038   24.1560 C.ar    1  UNL1        0.0338
     25 C          -7.9884    6.0635   24.9834 C.ar    1  UNL1        0.1403
     26 F          -9.2609    6.5569   24.3610 F       1  UNL1       -0.2042
     27 C          -7.7100    6.3297   26.4330 C.ar    1  UNL1        0.0293
     28 C          -6.4375    5.8363   27.0553 C.ar    1  UNL1       -0.0018
     29 C          -5.4434    5.0766   26.2280 C.ar    1  UNL1       -0.0173
     30 C          -4.1709    4.5832   26.8503 C.3     1  UNL1        0.0312
@<TRIPOS>BOND
     1     1     2    1
     2     2     3   ar
     3     3     4   ar
     4     4     8    1
     5     8     9    1
     6     9    10    1
     7    10    11    1
     8    11    13    1
     9    13    14    1
    10    14    15    1
    11    15    16    1
    12    16    17    1
    13    17    18    1
    14    11    12    1
    15     4     5   ar
    16     5     6   ar
    17     6     7   ar
    18     7    19    1
    19    19    20   am
    20    20    21    2
    21    20    23    1
    22    23    24   ar
    23    24    25   ar
    24    25    26    1
    25    25    27   ar
    26    27    28   ar
    27    28    29   ar
    28    29    30    1
    29     7     2   ar
    30    29    23   ar
    31    12     8    1
    32    17    13    1
    33    19    22    1
@<TRIPOS>MOLECULE
*****
 30 33 0 0 0
SMALL
GASTEIGER

@<TRIPOS>ATOM
      1 C           3.2158   -0.5582   25.1026 C.3     1  UNL1        0.0324
      2 C           4.4700   -1.1882   25.6320 C.ar    1  UNL1       -0.0071
      3 C           4.6117   -1.4576   27.1007 C.ar    1  UNL1        0.0115
      4 C           5.8659   -2.0876   27.6301 C.ar    1  UNL1        0.0476
      5 C           6.9782   -2.4483   26.6907 C.ar    1  UNL1        0.0158
      6 C           6.8365   -2.1789   25.2219 C.ar    1  UNL1        0.0156
      7 C           5.5823   -1.5489   24.6926 C.ar    1  UNL1        0.0466
      8 N           6.0076   -2.3570   29.0989 N.pl3   1  UNL1       -0.3061
      9 C           6.5509   -3.6111   29.7170 C.3     1  UNL1        0.0923
     10 C           6.5100   -3.4487   31.2076 C.3     1  UNL1        0.0391
     11 C           5.9414   -2.0941   31.5108 C.3     1  UNL1        0.0790
     12 C           5.6309   -1.4194   30.2076 C.3     1  UNL1        0.1067
     13 N           5.7218   -1.5158   32.8773 N.3     1  UNL1       -0.2736
     14 C           4.4589   -1.6081   33.6812 C.3     1  UNL1        0.0721
     15 C           4.6832   -0.8930   34.9806 C.3     1  UNL1        0.0187
     16 C           6.0848   -0.3588   34.9797 C.3     1  UNL1        0.0174
     17 C           6.7267   -0.7437   33.6798 C.3     1  UNL1        0.0576
     18 C           8.1276   -0.4143   33.2566 C.3     1  UNL1        0.0173
     19 N           5.4406   -1.2795   23.2237 N.am    1  UNL1       -0.2806
     20 C           4.8467   -2.3223   22.3239 C.2     1  UNL1        0.2493
     21 O           4.3945   -3.6345   22.8928 O.2     1  UNL1       -0.2698
     22 H           5.7374   -0.4183   22.8503 H       1  UNL1        0.1552
     23 C           4.7049   -2.0530   20.8550 C.ar    1  UNL1        0.0520
     24 C           5.7767   -2.4972   19.9043 C.ar    1  UNL1        0.0338
     25 C           5.6350   -2.2279   18.4355 C.ar    1  UNL1        0.1403
     26 F           6.7068   -2.6721   17.4847 F       1  UNL1       -0.2042
     27 C           4.4216   -1.5143   17.9175 C.ar    1  UNL1        0.0293
     28 C           3.3498   -1.0701   18.8683 C.ar    1  UNL1       -0.0018
     29 C           3.4915   -1.3395   20.3370 C.ar    1  UNL1       -0.0173
     30 C           2.4197   -0.8952   21.2878 C.3     1  UNL1        0.0312
@<TRIPOS>BOND
     1     1     2    1
     2     2     3   ar
     3     3     4   ar
     4     4     8    1
     5     8     9    1
     6     9    10    1
     7    10    11    1
     8    11    13    1
     9    13    14    1
    10    14    15    1
    11    15    16    1
    12    16    17    1
    13    17    18    1
    14    11    12    1
    15     4     5   ar
    16     5     6   ar
    17     6     7   ar
    18     7    19    1
    19    19    20   am
    20    20    21    2
    21    20    23    1
    22    23    24   ar
    23    24    25   ar
    24    25    26    1
    25    25    27   ar
    26    27    28   ar
    27    28    29   ar
    28    29    30    1
    29     7     2   ar
    30    29    23   ar
    31    12     8    1
    32    17    13    1
    33    19    22    1
@<TRIPOS>MOLECULE
*****
 30 33 0 0 0
SMALL
GASTEIGER

@<TRIPOS>ATOM
      1 C          -3.2627    3.8748   20.0240 C.3     1  UNL1        0.0324
      2 C          -2.1527    3.3638   20.8938 C.ar    1  UNL1       -0.0071
      3 C          -1.0462    2.5469   20.2952 C.ar    1  UNL1        0.0115
      4 C           0.0639    2.0359   21.1651 C.ar    1  UNL1        0.0476
      5 C           0.0674    2.3417   22.6335 C.ar    1  UNL1        0.0158
      6 C          -1.0390    3.1586   23.2321 C.ar    1  UNL1        0.0156
      7 C          -2.1491    3.6696   22.3623 C.ar    1  UNL1        0.0466
      8 N           1.1704    1.2189   20.5664 N.pl3   1  UNL1       -0.3061
      9 C           2.0557    1.6330   19.4286 C.3     1  UNL1        0.0923
     10 C           3.0183    0.5145   19.1594 C.3     1  UNL1        0.0391
     11 C           2.7278   -0.5909   20.1310 C.3     1  UNL1        0.0790
     12 C           1.5858   -0.1555   21.0006 C.3     1  UNL1        0.1067
     13 N           3.4523   -1.9015   20.2178 N.3     1  UNL1       -0.2736
     14 C           3.6826   -2.8581   19.0857 C.3     1  UNL1        0.0721
     15 C           4.4463   -4.0334   19.6201 C.3     1  UNL1        0.0187
     16 C           4.6878   -3.8031   21.0825 C.3     1  UNL1        0.0174
     17 C           4.0735   -2.4854   21.4519 C.3     1  UNL1        0.0576
     18 C           4.0794   -1.8613   22.8159 C.3     1  UNL1        0.0173
     19 N          -3.2556    4.4866   22.9609 N.am    1  UNL1       -0.2806
     20 C          -4.5325    3.8235   23.3849 C.2     1  UNL1        0.2493
     21 O          -4.7030    2.3435   23.2103 O.2     1  UNL1       -0.2698
     22 H          -3.1437    5.4579   23.0756 H       1  UNL1        0.1552
     23 C          -5.6390    4.6404   23.9836 C.ar    1  UNL1        0.0520
     24 C          -5.6071    4.9925   25.4414 C.ar    1  UNL1        0.0338
     25 C          -6.7135    5.8093   26.0400 C.ar    1  UNL1        0.1403
     26 F          -6.6816    6.1614   27.4978 F       1  UNL1       -0.2042
     27 C          -7.8519    6.2742   25.1810 C.ar    1  UNL1        0.0293
     28 C          -7.8838    5.9221   23.7232 C.ar    1  UNL1       -0.0018
     29 C          -6.7774    5.1052   23.1245 C.ar    1  UNL1       -0.0173
     30 C          -6.8093    4.7532   21.6668 C.3     1  UNL1        0.0312
@<TRIPOS>BOND
     1     1     2    1
     2     2     3   ar
     3     3     4   ar
     4     4     8    1
     5     8     9    1
     6     9    10    1
     7    10    11    1
     8    11    13    1
     9    13    14    1
    10    14    15    1
    11    15    16    1
    12    16    17    1
    13    17    18    1
    14    11    12    1
    15     4     5   ar
    16     5     6   ar
    17     6     7   ar
    18     7    19    1
    19    19    20   am
    20    20    21    2
    21    20    23    1
    22    23    24   ar
    23    24    25   ar
    24    25    26    1
    25    25    27   ar
    26    27    28   ar
    27    28    29   ar
    28    29    30    1
    29     7     2   ar
    30    29    23   ar
    31    12     8    1
    32    17    13    1
    33    19    22    1
@<TRIPOS>MOLECULE
*****
 30 33 0 0 0
SMALL
GASTEIGER

@<TRIPOS>ATOM
      1 C         -12.8227    0.6303   17.8388 C.3     1  UNL1        0.0324
      2 C         -14.0829    0.3037   18.5838 C.ar    1  UNL1       -0.0071
      3 C         -14.9639    1.4081   19.0877 C.ar    1  UNL1        0.0115
      4 C         -16.2242    1.0815   19.8328 C.ar    1  UNL1        0.0476
      5 C         -16.6035   -0.3495   20.0739 C.ar    1  UNL1        0.0158
      6 C         -15.7224   -1.4540   19.5700 C.ar    1  UNL1        0.0156
      7 C         -14.4622   -1.1274   18.8250 C.ar    1  UNL1        0.0466
      8 N         -17.1052    2.1861   20.3367 N.pl3   1  UNL1       -0.3061
      9 C         -18.0554    3.0021   19.5113 C.3     1  UNL1        0.0923
     10 C         -18.7282    3.9888   20.4189 C.3     1  UNL1        0.0391
     11 C         -18.1937    3.7827   21.8053 C.3     1  UNL1        0.0790
     12 C         -17.1907    2.6685   21.7544 C.3     1  UNL1        0.1067
     13 N         -18.5923    4.5551   23.0278 N.3     1  UNL1       -0.2736
     14 C         -18.2775    5.9958   23.3019 C.3     1  UNL1        0.0721
     15 C         -18.8663    6.3535   24.6343 C.3     1  UNL1        0.0187
     16 C         -19.5449    5.1338   25.1837 C.3     1  UNL1        0.0174
     17 C         -19.3756    4.0223   24.1907 C.3     1  UNL1        0.0576
     18 C         -19.8979    2.6236   24.3354 C.3     1  UNL1        0.0173
     19 N         -13.5812   -2.2319   18.3211 N.am    1  UNL1       -0.2806
     20 C         -12.9081   -3.1565   19.2918 C.2     1  UNL1        0.2493
     21 O         -13.1161   -2.9765   20.7663 O.2     1  UNL1       -0.2698
     22 H         -13.4447   -2.3501   17.3533 H       1  UNL1        0.1552
     23 C         -12.0271   -4.2610   18.7879 C.ar    1  UNL1        0.0520
     24 C         -10.7367   -3.9347   18.0962 C.ar    1  UNL1        0.0338
     25 C          -9.8557   -5.0392   17.5923 C.ar    1  UNL1        0.1403
     26 F          -8.5653   -4.7129   16.9006 F       1  UNL1       -0.2042
     27 C         -10.2651   -6.4699   17.7801 C.ar    1  UNL1        0.0293
     28 C         -11.5555   -6.7962   18.4718 C.ar    1  UNL1       -0.0018
     29 C         -12.4365   -5.6918   18.9757 C.ar    1  UNL1       -0.0173
     30 C         -13.7269   -6.0180   19.6674 C.3     1  UNL1        0.0312
@<TRIPOS>BOND
     1     1     2    1
     2     2     3   ar
     3     3     4   ar
     4     4     8    1
     5     8     9    1
     6     9    10    1
     7    10    11    1
     8    11    13    1
     9    13    14    1
    10    14    15    1
    11    15    16    1
    12    16    17    1
    13    17    18    1
    14    11    12    1
    15     4     5   ar
    16     5     6   ar
    17     6     7   ar
    18     7    19    1
    19    19    20   am
    20    20    21    2
    21    20    23    1
    22    23    24   ar
    23    24    25   ar
    24    25    26    1
    25    25    27   ar
    26    27    28   ar
    27    28    29   ar
    28    29    30    1
    29     7     2   ar
    30    29    23   ar
    31    12     8    1
    32    17    13    1
    33    19    22    1
