@<TRIPOS>MOLECULE
*****
 33 36 0 0 0
SMALL
GASTEIGER

@<TRIPOS>ATOM
      1 N           1.5326    2.1739   19.8712 N.am    1  UNL1       -0.2683
      2 C           0.0612    2.2345   20.1564 C.2     1  UNL1        0.3047
      3 O          -0.6870    0.9826   20.5070 O.2     1  UNL1       -0.2525
      4 N          -0.6620    3.5470   20.0911 N.am    1  UNL1       -0.2863
      5 H           2.0237    2.9955   19.6411 H       1  UNL1        0.1564
      6 H          -0.1709    4.3687   19.8610 H       1  UNL1        0.1512
      7 C          -2.1333    3.6077   20.3763 C.3     1  UNL1        0.1019
      8 C          -3.1173    3.6081   19.2442 C.3     1  UNL1        0.0642
      9 C          -4.5888    3.6687   19.5295 C.3     1  UNL1        0.1352
     10 C          -6.0695    3.7139   19.2940 C.3     1  UNL1        0.0437
     11 C          -4.6157    3.6243   18.0303 C.3     1  UNL1        0.0437
     12 O          -5.0761    3.7289   20.9468 O.3     1  UNL1       -0.4828
     13 C          -4.0921    3.7284   22.0789 C.ar    1  UNL1        0.1357
     14 C          -4.5794    3.7886   23.4962 C.ar    1  UNL1        0.0405
     15 C          -3.5953    3.7882   24.6283 C.ar    1  UNL1        0.0744
     16 C          -2.1240    3.7275   24.3431 C.ar    1  UNL1        0.0038
     17 C          -1.6367    3.6674   22.9258 C.ar    1  UNL1        0.0003
     18 C          -2.6207    3.6678   21.7937 C.ar    1  UNL1        0.0296
     19 C          -4.0827    3.8483   26.0457 C.3     1  UNL1        0.4187
     20 F          -4.5700    3.9085   27.4630 F       1  UNL1       -0.1659
     21 F          -5.4642    4.1688   25.5571 F       1  UNL1       -0.1659
     22 F          -2.7012    3.5278   26.5343 F       1  UNL1       -0.1659
     23 C           2.1545    1.0640   25.1277 C.3     1  UNL1        0.0521
     24 C           2.5414    0.3571   23.8626 C.ar    1  UNL1        0.0594
     25 C           2.2052    0.9627   22.5322 C.ar    1  UNL1        0.0160
     26 C           2.5920    0.2557   21.2670 C.ar    1  UNL1        0.0162
     27 C           2.2557    0.8613   19.9365 C.ar    1  UNL1        0.0516
     28 C           2.6426    0.1544   18.6714 C.ar    1  UNL1        0.0147
     29 C           3.3658   -1.1582   18.7368 C.ar    1  UNL1        0.0013
     30 C           3.7020   -1.7638   20.0673 C.ar    1  UNL1        0.0016
     31 C           3.3152   -1.0568   21.3324 C.ar    1  UNL1        0.0204
     32 C           3.6514   -1.6624   22.6628 C.ar    1  UNL1        0.0984
     33 N           3.2645   -0.9554   23.9280 N.ar    1  UNL1       -0.2481
@<TRIPOS>BOND
     1    23    24    1
     2    24    25   ar
     3    25    26   ar
     4    26    27   ar
     5    27     1    1
     6     1     2   am
     7     2     3    2
     8     2     4   am
     9     7     4    1
    10     7     8    1
    11     8     9    1
    12     9    10    1
    13     9    11    1
    14     9    12    1
    15    12    13    1
    16    13    14   ar
    17    14    15   ar
    18    15    19    1
    19    19    20    1
    20    19    21    1
    21    19    22    1
    22    15    16   ar
    23    16    17   ar
    24    17    18   ar
    25    27    28   ar
    26    28    29   ar
    27    29    30   ar
    28    30    31   ar
    29    31    32   ar
    30    32    33   ar
    31    33    24   ar
    32    31    26   ar
    33    18     7    1
    34    18    13   ar
    35     1     5    1
    36     4     6    1
@<TRIPOS>MOLECULE
*****
 33 36 0 0 0
SMALL
GASTEIGER

@<TRIPOS>ATOM
      1 N          -0.6717    3.3461   23.7870 N.am    1  UNL1       -0.2683
      2 C           0.1829    2.1658   24.1429 C.2     1  UNL1        0.3047
      3 O          -0.3035    1.1633   25.1472 O.2     1  UNL1       -0.2525
      4 N           1.5238    1.9880   23.4947 N.am    1  UNL1       -0.2863
      5 H          -0.3525    4.0041   23.1279 H       1  UNL1        0.1564
      6 H           1.8430    2.6459   22.8355 H       1  UNL1        0.1512
      7 C           2.3783    0.8077   23.8506 C.3     1  UNL1        0.1019
      8 C           2.8821    0.6425   25.2538 C.3     1  UNL1        0.0642
      9 C           3.7367   -0.5379   25.6097 C.3     1  UNL1        0.1352
     10 C           4.5699   -1.4791   26.4281 C.3     1  UNL1        0.0437
     11 C           3.6753    0.1503   26.9412 C.3     1  UNL1        0.0437
     12 O           4.0873   -1.5529   24.5625 O.3     1  UNL1       -0.4828
     13 C           3.5835   -1.3877   23.1594 C.ar    1  UNL1        0.1357
     14 C           3.9342   -2.4027   22.1122 C.ar    1  UNL1        0.0405
     15 C           3.4304   -2.2375   20.7090 C.ar    1  UNL1        0.0744
     16 C           2.5759   -1.0572   20.3530 C.ar    1  UNL1        0.0038
     17 C           2.2252   -0.0422   21.4002 C.ar    1  UNL1        0.0003
     18 C           2.7290   -0.2074   22.8034 C.ar    1  UNL1        0.0296
     19 C           3.7811   -3.2526   19.6618 C.3     1  UNL1        0.4187
     20 F           4.1318   -4.2676   18.6146 F       1  UNL1       -0.1659
     21 F           4.0304   -4.2721   20.7334 F       1  UNL1       -0.1659
     22 F           3.5318   -2.2331   18.5901 F       1  UNL1       -0.1659
     23 C          -4.2700    3.5624   19.7552 C.3     1  UNL1        0.0521
     24 C          -4.3761    3.6417   21.2493 C.ar    1  UNL1        0.0594
     25 C          -3.1414    3.5431   22.0952 C.ar    1  UNL1        0.0160
     26 C          -3.2475    3.6224   23.5894 C.ar    1  UNL1        0.0162
     27 C          -2.0126    3.5239   24.4352 C.ar    1  UNL1        0.0516
     28 C          -2.1187    3.6032   25.9294 C.ar    1  UNL1        0.0147
     29 C          -3.4597    3.7810   26.5776 C.ar    1  UNL1        0.0013
     30 C          -4.6945    3.8795   25.7318 C.ar    1  UNL1        0.0016
     31 C          -4.5884    3.8002   24.2376 C.ar    1  UNL1        0.0204
     32 C          -5.8232    3.8987   23.3917 C.ar    1  UNL1        0.0984
     33 N          -5.7171    3.8195   21.8976 N.ar    1  UNL1       -0.2481
@<TRIPOS>BOND
     1    23    24    1
     2    24    25   ar
     3    25    26   ar
     4    26    27   ar
     5    27     1    1
     6     1     2   am
     7     2     3    2
     8     2     4   am
     9     7     4    1
    10     7     8    1
    11     8     9    1
    12     9    10    1
    13     9    11    1
    14     9    12    1
    15    12    13    1
    16    13    14   ar
    17    14    15   ar
    18    15    19    1
    19    19    20    1
    20    19    21    1
    21    19    22    1
    22    15    16   ar
    23    16    17   ar
    24    17    18   ar
    25    27    28   ar
    26    28    29   ar
    27    29    30   ar
    28    30    31   ar
    29    31    32   ar
    30    32    33   ar
    31    33    24   ar
    32    31    26   ar
    33    18     7    1
    34    18    13   ar
    35     1     5    1
    36     4     6    1
@<TRIPOS>MOLECULE
*****
 33 36 0 0 0
SMALL
GASTEIGER

@<TRIPOS>ATOM
      1 N          -6.2595  -18.4891   22.1461 N.am    1  UNL1       -0.2683
      2 C          -7.6457  -18.1771   21.6651 C.2     1  UNL1        0.3047
      3 O          -8.1198  -18.7116   20.3462 O.2     1  UNL1       -0.2525
      4 N          -8.5576  -17.3309   22.5030 N.am    1  UNL1       -0.2863
      5 H          -5.9483  -18.1383   23.0118 H       1  UNL1        0.1564
      6 H          -8.2464  -16.9801   23.3686 H       1  UNL1        0.1512
      7 C          -9.9437  -17.0190   22.0220 C.3     1  UNL1        0.1019
      8 C         -10.1422  -16.3092   20.7155 C.3     1  UNL1        0.0642
      9 C         -11.5284  -15.9973   20.2345 C.3     1  UNL1        0.1352
     10 C         -12.6356  -15.4854   19.3615 C.3     1  UNL1        0.0437
     11 C         -10.7254  -15.4216   19.1059 C.3     1  UNL1        0.0437
     12 O         -12.7160  -16.3952   21.0599 O.3     1  UNL1       -0.4828
     13 C         -12.5174  -17.1051   22.3663 C.ar    1  UNL1        0.1357
     14 C         -13.7050  -17.5030   23.1917 C.ar    1  UNL1        0.0405
     15 C         -13.5065  -18.2128   24.4981 C.ar    1  UNL1        0.0744
     16 C         -12.1204  -18.5247   24.9791 C.ar    1  UNL1        0.0038
     17 C         -10.9328  -18.1268   24.1538 C.ar    1  UNL1        0.0003
     18 C         -11.1314  -17.4169   22.8473 C.ar    1  UNL1        0.0296
     19 C         -14.6941  -18.6108   25.3235 C.3     1  UNL1        0.4187
     20 F         -15.8817  -19.0087   26.1489 F       1  UNL1       -0.1659
     21 F         -15.4743  -18.8803   24.0711 F       1  UNL1       -0.1659
     22 F         -13.9139  -18.3413   26.5759 F       1  UNL1       -0.1659
     23 C          -1.6221  -15.7377   21.7293 C.3     1  UNL1        0.0521
     24 C          -2.0974  -17.0602   21.2051 C.ar    1  UNL1        0.0594
     25 C          -3.4848  -17.5365   21.5187 C.ar    1  UNL1        0.0160
     26 C          -3.9602  -18.8591   20.9945 C.ar    1  UNL1        0.0162
     27 C          -5.3476  -19.3354   21.3082 C.ar    1  UNL1        0.0516
     28 C          -5.8230  -20.6579   20.7840 C.ar    1  UNL1        0.0147
     29 C          -4.9109  -21.5042   19.9461 C.ar    1  UNL1        0.0013
     30 C          -3.5236  -21.0280   19.6324 C.ar    1  UNL1        0.0016
     31 C          -3.0482  -19.7054   20.1566 C.ar    1  UNL1        0.0204
     32 C          -1.6609  -19.2291   19.8429 C.ar    1  UNL1        0.0984
     33 N          -1.1855  -17.9065   20.3672 N.ar    1  UNL1       -0.2481
@<TRIPOS>BOND
     1    23    24    1
     2    24    25   ar
     3    25    26   ar
     4    26    27   ar
     5    27     1    1
     6     1     2   am
     7     2     3    2
     8     2     4   am
     9     7     4    1
    10     7     8    1
    11     8     9    1
    12     9    10    1
    13     9    11    1
    14     9    12    1
    15    12    13    1
    16    13    14   ar
    17    14    15   ar
    18    15    19    1
    19    19    20    1
    20    19    21    1
    21    19    22    1
    22    15    16   ar
    23    16    17   ar
    24    17    18   ar
    25    27    28   ar
    26    28    29   ar
    27    29    30   ar
    28    30    31   ar
    29    31    32   ar
    30    32    33   ar
    31    33    24   ar
    32    31    26   ar
    33    18     7    1
    34    18    13   ar
    35     1     5    1
    36     4     6    1
@<TRIPOS>MOLECULE
*****
 33 36 0 0 0
SMALL
GASTEIGER

@<TRIPOS>ATOM
      1 N           1.9792    2.3581   20.7321 N.am    1  UNL1       -0.2683
      2 C           0.6294    2.3403   21.3862 C.2     1  UNL1        0.3047
      3 O          -0.1922    1.0853   21.3765 O.2     1  UNL1       -0.2525
      4 N           0.1011    3.5774   22.0499 N.am    1  UNL1       -0.2863
      5 H           2.5184    3.1818   20.7385 H       1  UNL1        0.1564
      6 H           0.6404    4.4010   22.0563 H       1  UNL1        0.1512
      7 C          -1.2486    3.5595   22.7039 C.3     1  UNL1        0.1019
      8 C          -1.3569    3.5262   24.1996 C.3     1  UNL1        0.0642
      9 C          -2.7068    3.5083   24.8536 C.3     1  UNL1        0.1352
     10 C          -3.7514    3.4819   25.9298 C.3     1  UNL1        0.0437
     11 C          -1.8281    3.4838   26.0691 C.3     1  UNL1        0.0437
     12 O          -3.9482    3.5237   24.0119 O.3     1  UNL1       -0.4828
     13 C          -3.8399    3.5570   22.5162 C.ar    1  UNL1        0.1357
     14 C          -5.0814    3.5724   21.6745 C.ar    1  UNL1        0.0405
     15 C          -4.9730    3.6057   20.1787 C.ar    1  UNL1        0.0744
     16 C          -3.6233    3.6235   19.5247 C.ar    1  UNL1        0.0038
     17 C          -2.3818    3.6081   20.3665 C.ar    1  UNL1        0.0003
     18 C          -2.4902    3.5749   21.8622 C.ar    1  UNL1        0.0296
     19 C          -6.2146    3.6211   19.3370 C.3     1  UNL1        0.4187
     20 F          -7.4561    3.6365   18.4954 F       1  UNL1       -0.1659
     21 F          -5.4239    3.1277   18.1617 F       1  UNL1       -0.1659
     22 F          -7.0052    4.1144   20.5124 F       1  UNL1       -0.1659
     23 C           3.5427   -0.9359   24.7265 C.3     1  UNL1        0.0521
     24 C           3.5480   -1.0403   23.2301 C.ar    1  UNL1        0.0594
     25 C           3.0251    0.0925   22.3975 C.ar    1  UNL1        0.0160
     26 C           3.0304   -0.0119   20.9011 C.ar    1  UNL1        0.0162
     27 C           2.5074    1.1210   20.0684 C.ar    1  UNL1        0.0516
     28 C           2.5127    1.0167   18.5721 C.ar    1  UNL1        0.0147
     29 C           3.0409   -0.2205   17.9084 C.ar    1  UNL1        0.0013
     30 C           3.5639   -1.3533   18.7411 C.ar    1  UNL1        0.0016
     31 C           3.5586   -1.2489   20.2374 C.ar    1  UNL1        0.0204
     32 C           4.0815   -2.3817   21.0701 C.ar    1  UNL1        0.0984
     33 N           4.0762   -2.2774   22.5664 N.ar    1  UNL1       -0.2481
@<TRIPOS>BOND
     1    23    24    1
     2    24    25   ar
     3    25    26   ar
     4    26    27   ar
     5    27     1    1
     6     1     2   am
     7     2     3    2
     8     2     4   am
     9     7     4    1
    10     7     8    1
    11     8     9    1
    12     9    10    1
    13     9    11    1
    14     9    12    1
    15    12    13    1
    16    13    14   ar
    17    14    15   ar
    18    15    19    1
    19    19    20    1
    20    19    21    1
    21    19    22    1
    22    15    16   ar
    23    16    17   ar
    24    17    18   ar
    25    27    28   ar
    26    28    29   ar
    27    29    30   ar
    28    30    31   ar
    29    31    32   ar
    30    32    33   ar
    31    33    24   ar
    32    31    26   ar
    33    18     7    1
    34    18    13   ar
    35     1     5    1
    36     4     6    1
@<TRIPOS>MOLECULE
*****
 33 36 0 0 0
SMALL
GASTEIGER

@<TRIPOS>ATOM
      1 N           2.8667    1.6279   19.3314 N.am    1  UNL1       -0.2683
      2 C           1.4117    1.8826   19.0706 C.2     1  UNL1        0.3047
      3 O           0.5318    0.7709   18.5806 O.2     1  UNL1       -0.2525
      4 N           0.8365    3.2488   19.2997 N.am    1  UNL1       -0.2863
      5 H           3.4442    2.3575   19.6530 H       1  UNL1        0.1564
      6 H           1.4140    3.9784   19.6213 H       1  UNL1        0.1512
      7 C          -0.6185    3.5034   19.0388 C.3     1  UNL1        0.1019
      8 C          -1.0963    3.7582   17.6400 C.3     1  UNL1        0.0642
      9 C          -2.5514    4.0128   17.3792 C.3     1  UNL1        0.1352
     10 C          -3.8200    4.3024   16.6331 C.3     1  UNL1        0.0437
     11 C          -2.0148    4.1136   15.9820 C.3     1  UNL1        0.0437
     12 O          -3.5286    4.0126   18.5172 O.3     1  UNL1       -0.4828
     13 C          -3.0508    3.7578   19.9160 C.ar    1  UNL1        0.1357
     14 C          -4.0279    3.7576   21.0540 C.ar    1  UNL1        0.0405
     15 C          -3.5501    3.5028   22.4529 C.ar    1  UNL1        0.0744
     16 C          -2.0951    3.2482   22.7137 C.ar    1  UNL1        0.0038
     17 C          -1.1179    3.2484   21.5757 C.ar    1  UNL1        0.0003
     18 C          -1.5958    3.5032   20.1769 C.ar    1  UNL1        0.0296
     19 C          -4.5274    3.5026   23.5909 C.3     1  UNL1        0.4187
     20 F          -5.5046    3.5024   24.7288 F       1  UNL1       -0.1659
     21 F          -3.3970    3.3294   24.5616 F       1  UNL1       -0.1659
     22 F          -5.6577    3.6758   22.6202 F       1  UNL1       -0.1659
     23 C           3.1505   -0.7155   24.1974 C.3     1  UNL1        0.0521
     24 C           3.5109   -1.1543   22.8091 C.ar    1  UNL1        0.0594
     25 C           3.2962   -0.2270   21.6499 C.ar    1  UNL1        0.0160
     26 C           3.6566   -0.6658   20.2615 C.ar    1  UNL1        0.0162
     27 C           3.4419    0.2617   19.1023 C.ar    1  UNL1        0.0516
     28 C           3.8023   -0.1772   17.7139 C.ar    1  UNL1        0.0147
     29 C           4.3775   -1.5435   17.4848 C.ar    1  UNL1        0.0013
     30 C           4.5922   -2.4709   18.6440 C.ar    1  UNL1        0.0016
     31 C           4.2318   -2.0321   20.0324 C.ar    1  UNL1        0.0204
     32 C           4.4465   -2.9594   21.1916 C.ar    1  UNL1        0.0984
     33 N           4.0861   -2.5206   22.5799 N.ar    1  UNL1       -0.2481
@<TRIPOS>BOND
     1    23    24    1
     2    24    25   ar
     3    25    26   ar
     4    26    27   ar
     5    27     1    1
     6     1     2   am
     7     2     3    2
     8     2     4   am
     9     7     4    1
    10     7     8    1
    11     8     9    1
    12     9    10    1
    13     9    11    1
    14     9    12    1
    15    12    13    1
    16    13    14   ar
    17    14    15   ar
    18    15    19    1
    19    19    20    1
    20    19    21    1
    21    19    22    1
    22    15    16   ar
    23    16    17   ar
    24    17    18   ar
    25    27    28   ar
    26    28    29   ar
    27    29    30   ar
    28    30    31   ar
    29    31    32   ar
    30    32    33   ar
    31    33    24   ar
    32    31    26   ar
    33    18     7    1
    34    18    13   ar
    35     1     5    1
    36     4     6    1
@<TRIPOS>MOLECULE
*****
 33 36 0 0 0
SMALL
GASTEIGER

@<TRIPOS>ATOM
      1 N           6.5249   -2.2205   22.3865 N.am    1  UNL1       -0.2683
      2 C           6.5658   -3.3551   23.3668 C.2     1  UNL1        0.3047
      3 O           5.7358   -4.5818   23.1293 O.2     1  UNL1       -0.2525
      4 N           7.4368   -3.2632   24.5846 N.am    1  UNL1       -0.2863
      5 H           7.0697   -1.4154   22.5424 H       1  UNL1        0.1564
      6 H           7.9816   -2.4581   24.7404 H       1  UNL1        0.1512
      7 C           7.4777   -4.3978   25.5648 C.3     1  UNL1        0.1019
      8 C           7.8069   -5.7836   25.0946 C.3     1  UNL1        0.0642
      9 C           7.8478   -6.9183   26.0749 C.3     1  UNL1        0.1352
     10 C           8.0082   -8.3078   26.6167 C.3     1  UNL1        0.0437
     11 C           8.1919   -7.6521   24.8126 C.3     1  UNL1        0.0437
     12 O           7.5595   -6.6671   27.5253 O.3     1  UNL1       -0.4828
     13 C           7.2302   -5.2813   27.9955 C.ar    1  UNL1        0.1357
     14 C           6.9419   -5.0301   29.4459 C.ar    1  UNL1        0.0405
     15 C           6.6126   -3.6443   29.9161 C.ar    1  UNL1        0.0744
     16 C           6.5717   -2.5096   28.9358 C.ar    1  UNL1        0.0038
     17 C           6.8601   -2.7608   27.4854 C.ar    1  UNL1        0.0003
     18 C           7.1893   -4.1466   27.0153 C.ar    1  UNL1        0.0296
     19 C           6.3243   -3.3931   31.3666 C.3     1  UNL1        0.4187
     20 F           6.0359   -3.1419   32.8170 F       1  UNL1       -0.1659
     21 F           7.1992   -4.5524   31.7413 F       1  UNL1       -0.1659
     22 F           5.4494   -2.2338   30.9918 F       1  UNL1       -0.1659
     23 C           2.0585    0.6110   23.5196 C.3     1  UNL1        0.0521
     24 C           2.5219   -0.1659   22.3230 C.ar    1  UNL1        0.0594
     25 C           3.8562   -0.8507   22.3442 C.ar    1  UNL1        0.0160
     26 C           4.3196   -1.6276   21.1476 C.ar    1  UNL1        0.0162
     27 C           5.6540   -2.3124   21.1688 C.ar    1  UNL1        0.0516
     28 C           6.1173   -3.0893   19.9722 C.ar    1  UNL1        0.0147
     29 C           5.2463   -3.1812   18.7544 C.ar    1  UNL1        0.0013
     30 C           3.9120   -2.4964   18.7333 C.ar    1  UNL1        0.0016
     31 C           3.4486   -1.7195   19.9298 C.ar    1  UNL1        0.0204
     32 C           2.1143   -1.0347   19.9087 C.ar    1  UNL1        0.0984
     33 N           1.6509   -0.2578   21.1053 N.ar    1  UNL1       -0.2481
@<TRIPOS>BOND
     1    23    24    1
     2    24    25   ar
     3    25    26   ar
     4    26    27   ar
     5    27     1    1
     6     1     2   am
     7     2     3    2
     8     2     4   am
     9     7     4    1
    10     7     8    1
    11     8     9    1
    12     9    10    1
    13     9    11    1
    14     9    12    1
    15    12    13    1
    16    13    14   ar
    17    14    15   ar
    18    15    19    1
    19    19    20    1
    20    19    21    1
    21    19    22    1
    22    15    16   ar
    23    16    17   ar
    24    17    18   ar
    25    27    28   ar
    26    28    29   ar
    27    29    30   ar
    28    30    31   ar
    29    31    32   ar
    30    32    33   ar
    31    33    24   ar
    32    31    26   ar
    33    18     7    1
    34    18    13   ar
    35     1     5    1
    36     4     6    1
@<TRIPOS>MOLECULE
*****
 33 36 0 0 0
SMALL
GASTEIGER

@<TRIPOS>ATOM
      1 N           3.0260    1.5636   20.1686 N.am    1  UNL1       -0.2683
      2 C           1.6141    1.8353   19.7409 C.2     1  UNL1        0.3047
      3 O           0.7134    0.6975   19.3610 O.2     1  UNL1       -0.2525
      4 N           1.1029    3.2447   19.6930 N.am    1  UNL1       -0.2863
      5 H           3.6171    2.3104   20.4179 H       1  UNL1        0.1564
      6 H           1.6941    3.9914   19.9423 H       1  UNL1        0.1512
      7 C          -0.3089    3.5163   19.2652 C.3     1  UNL1        0.1019
      8 C          -0.6200    3.7632   17.8188 C.3     1  UNL1        0.0642
      9 C          -2.0318    4.0348   17.3910 C.3     1  UNL1        0.1352
     10 C          -3.2025    4.3339   16.5023 C.3     1  UNL1        0.0437
     11 C          -1.3377    4.1141   16.0636 C.3     1  UNL1        0.0437
     12 O          -3.1325    4.0594   18.4097 O.3     1  UNL1       -0.4828
     13 C          -2.8214    3.8125   19.8562 C.ar    1  UNL1        0.1357
     14 C          -3.9221    3.8371   20.8749 C.ar    1  UNL1        0.0405
     15 C          -3.6110    3.5901   22.3213 C.ar    1  UNL1        0.0744
     16 C          -2.1992    3.3185   22.7491 C.ar    1  UNL1        0.0038
     17 C          -1.0985    3.2939   21.7304 C.ar    1  UNL1        0.0003
     18 C          -1.4096    3.5409   20.2839 C.ar    1  UNL1        0.0296
     19 C          -4.7118    3.6148   23.3401 C.3     1  UNL1        0.4187
     20 F          -5.8125    3.6394   24.3588 F       1  UNL1       -0.1659
     21 F          -5.6986    3.9632   22.2655 F       1  UNL1       -0.1659
     22 F          -3.7251    3.2664   24.4147 F       1  UNL1       -0.1659
     23 C           6.6536    1.1474   16.1790 C.3     1  UNL1        0.0521
     24 C           6.1300    0.1944   17.2123 C.ar    1  UNL1        0.0594
     25 C           5.0954    0.6508   18.1977 C.ar    1  UNL1        0.0160
     26 C           4.5718   -0.3022   19.2311 C.ar    1  UNL1        0.0162
     27 C           3.5371    0.1543   20.2165 C.ar    1  UNL1        0.0516
     28 C           3.0136   -0.7987   21.2498 C.ar    1  UNL1        0.0147
     29 C           3.5248   -2.2082   21.2977 C.ar    1  UNL1        0.0013
     30 C           4.5595   -2.6646   20.3123 C.ar    1  UNL1        0.0016
     31 C           5.0830   -1.7116   19.2790 C.ar    1  UNL1        0.0204
     32 C           6.1177   -2.1680   18.2935 C.ar    1  UNL1        0.0984
     33 N           6.6412   -1.2150   17.2602 N.ar    1  UNL1       -0.2481
@<TRIPOS>BOND
     1    23    24    1
     2    24    25   ar
     3    25    26   ar
     4    26    27   ar
     5    27     1    1
     6     1     2   am
     7     2     3    2
     8     2     4   am
     9     7     4    1
    10     7     8    1
    11     8     9    1
    12     9    10    1
    13     9    11    1
    14     9    12    1
    15    12    13    1
    16    13    14   ar
    17    14    15   ar
    18    15    19    1
    19    19    20    1
    20    19    21    1
    21    19    22    1
    22    15    16   ar
    23    16    17   ar
    24    17    18   ar
    25    27    28   ar
    26    28    29   ar
    27    29    30   ar
    28    30    31   ar
    29    31    32   ar
    30    32    33   ar
    31    33    24   ar
    32    31    26   ar
    33    18     7    1
    34    18    13   ar
    35     1     5    1
    36     4     6    1
@<TRIPOS>MOLECULE
*****
 33 36 0 0 0
SMALL
GASTEIGER

@<TRIPOS>ATOM
      1 N           4.1894    0.6067   26.8526 N.am    1  UNL1       -0.2683
      2 C           4.5363   -0.7233   27.4536 C.2     1  UNL1        0.3047
      3 O           3.5303   -1.8358   27.4442 O.2     1  UNL1       -0.2525
      4 N           5.8891   -0.9405   28.0641 N.am    1  UNL1       -0.2863
      5 H           4.8497    1.3369   26.8588 H       1  UNL1        0.1564
      6 H           6.5494   -0.2103   28.0703 H       1  UNL1        0.1512
      7 C           6.2359   -2.2704   28.6650 C.3     1  UNL1        0.1019
      8 C           6.2226   -2.4467   30.1546 C.3     1  UNL1        0.0642
      9 C           6.5694   -3.7766   30.7555 C.3     1  UNL1        0.1352
     10 C           6.8216   -4.8332   31.7899 C.3     1  UNL1        0.0437
     11 C           6.2969   -2.9900   32.0033 C.3     1  UNL1        0.0437
     12 O           6.9295   -4.9302   29.8669 O.3     1  UNL1       -0.4828
     13 C           6.9427   -4.7539   28.3774 C.ar    1  UNL1        0.1357
     14 C           7.3028   -5.9074   27.4888 C.ar    1  UNL1        0.0405
     15 C           7.3160   -5.7311   25.9992 C.ar    1  UNL1        0.0744
     16 C           6.9692   -4.4013   25.3983 C.ar    1  UNL1        0.0038
     17 C           6.6092   -3.2477   26.2869 C.ar    1  UNL1        0.0003
     18 C           6.5959   -3.4240   27.7764 C.ar    1  UNL1        0.0296
     19 C           7.6761   -6.8848   25.1106 C.3     1  UNL1        0.4187
     20 F           8.0362   -8.0383   24.2221 F       1  UNL1       -0.1659
     21 F           7.0772   -7.8364   26.1034 F       1  UNL1       -0.1659
     22 F           8.2750   -5.9331   24.1179 F       1  UNL1       -0.1659
     23 C           0.8498    1.7106   30.9609 C.3     1  UNL1        0.0521
     24 C           0.6701    1.5976   29.4760 C.ar    1  UNL1        0.0594
     25 C           1.8432    1.2673   28.6016 C.ar    1  UNL1        0.0160
     26 C           1.6635    1.1542   27.1167 C.ar    1  UNL1        0.0162
     27 C           2.8366    0.8239   26.2422 C.ar    1  UNL1        0.0516
     28 C           2.6569    0.7109   24.7573 C.ar    1  UNL1        0.0147
     29 C           1.3040    0.9282   24.1469 C.ar    1  UNL1        0.0013
     30 C           0.1309    1.2585   25.0214 C.ar    1  UNL1        0.0016
     31 C           0.3107    1.3715   26.5063 C.ar    1  UNL1        0.0204
     32 C          -0.8624    1.7018   27.3807 C.ar    1  UNL1        0.0984
     33 N          -0.6827    1.8148   28.8656 N.ar    1  UNL1       -0.2481
@<TRIPOS>BOND
     1    23    24    1
     2    24    25   ar
     3    25    26   ar
     4    26    27   ar
     5    27     1    1
     6     1     2   am
     7     2     3    2
     8     2     4   am
     9     7     4    1
    10     7     8    1
    11     8     9    1
    12     9    10    1
    13     9    11    1
    14     9    12    1
    15    12    13    1
    16    13    14   ar
    17    14    15   ar
    18    15    19    1
    19    19    20    1
    20    19    21    1
    21    19    22    1
    22    15    16   ar
    23    16    17   ar
    24    17    18   ar
    25    27    28   ar
    26    28    29   ar
    27    29    30   ar
    28    30    31   ar
    29    31    32   ar
    30    32    33   ar
    31    33    24   ar
    32    31    26   ar
    33    18     7    1
    34    18    13   ar
    35     1     5    1
    36     4     6    1
@<TRIPOS>MOLECULE
*****
 33 36 0 0 0
SMALL
GASTEIGER

@<TRIPOS>ATOM
      1 N          -3.5762    2.6918   20.9964 N.am    1  UNL1       -0.2683
      2 C          -2.3185    2.9681   20.2271 C.2     1  UNL1        0.3047
      3 O          -2.3099    4.0181   19.1559 O.2     1  UNL1       -0.2525
      4 N          -1.0694    2.1944   20.5290 N.am    1  UNL1       -0.2863
      5 H          -3.5819    2.0027   21.6995 H       1  UNL1        0.1564
      6 H          -1.0750    1.5052   21.2320 H       1  UNL1        0.1512
      7 C           0.1883    2.4707   19.7596 C.3     1  UNL1        0.1019
      8 C           0.4751    3.8571   19.2641 C.3     1  UNL1        0.0642
      9 C           1.7328    4.1334   18.4947 C.3     1  UNL1        0.1352
     10 C           2.7795    4.8861   17.7280 C.3     1  UNL1        0.0437
     11 C           1.1254    5.5050   18.5022 C.3     1  UNL1        0.0437
     12 O           2.7037    3.0233   18.2209 O.3     1  UNL1       -0.4828
     13 C           2.4169    1.6369   18.7165 C.ar    1  UNL1        0.1357
     14 C           3.3877    0.5267   18.4427 C.ar    1  UNL1        0.0405
     15 C           3.1010   -0.8597   18.9383 C.ar    1  UNL1        0.0744
     16 C           1.8433   -1.1360   19.7076 C.ar    1  UNL1        0.0038
     17 C           0.8724   -0.0259   19.9814 C.ar    1  UNL1        0.0003
     18 C           1.1592    1.3606   19.4858 C.ar    1  UNL1        0.0296
     19 C           4.0719   -1.9698   18.6645 C.3     1  UNL1        0.4187
     20 F           5.0428   -3.0800   18.3907 F       1  UNL1       -0.1659
     21 F           4.9004   -1.0393   17.8292 F       1  UNL1       -0.1659
     22 F           3.2434   -2.9004   19.4997 F       1  UNL1       -0.1659
     23 C          -5.3004    4.6623   25.7287 C.3     1  UNL1        0.0521
     24 C          -5.8062    4.7500   24.3193 C.ar    1  UNL1        0.0594
     25 C          -5.0629    4.0639   23.2117 C.ar    1  UNL1        0.0160
     26 C          -5.5687    4.1516   21.8022 C.ar    1  UNL1        0.0162
     27 C          -4.8253    3.4655   20.6946 C.ar    1  UNL1        0.0516
     28 C          -5.3310    3.5532   19.2852 C.ar    1  UNL1        0.0147
     29 C          -6.5802    4.3270   18.9833 C.ar    1  UNL1        0.0013
     30 C          -7.3235    5.0130   20.0909 C.ar    1  UNL1        0.0016
     31 C          -6.8177    4.9253   21.5004 C.ar    1  UNL1        0.0204
     32 C          -7.5610    5.6114   22.6080 C.ar    1  UNL1        0.0984
     33 N          -7.0553    5.5237   24.0174 N.ar    1  UNL1       -0.2481
@<TRIPOS>BOND
     1    23    24    1
     2    24    25   ar
     3    25    26   ar
     4    26    27   ar
     5    27     1    1
     6     1     2   am
     7     2     3    2
     8     2     4   am
     9     7     4    1
    10     7     8    1
    11     8     9    1
    12     9    10    1
    13     9    11    1
    14     9    12    1
    15    12    13    1
    16    13    14   ar
    17    14    15   ar
    18    15    19    1
    19    19    20    1
    20    19    21    1
    21    19    22    1
    22    15    16   ar
    23    16    17   ar
    24    17    18   ar
    25    27    28   ar
    26    28    29   ar
    27    29    30   ar
    28    30    31   ar
    29    31    32   ar
    30    32    33   ar
    31    33    24   ar
    32    31    26   ar
    33    18     7    1
    34    18    13   ar
    35     1     5    1
    36     4     6    1
