@<TRIPOS>MOLECULE
*****
 31 35 0 0 0
SMALL
GASTEIGER

@<TRIPOS>ATOM
      1 C          -1.2123    2.5661   25.7144 C.ar    1  UNL1        0.0872
      2 C          -0.4734    2.0669   24.5082 C.ar    1  UNL1        0.0535
      3 C           0.7787    1.2582   24.6772 C.ar    1  UNL1        0.1349
      4 N           1.2917    0.9488   26.0523 N.ar    1  UNL1       -0.2119
      5 C           0.5528    1.4479   27.2585 C.ar    1  UNL1        0.1637
      6 N          -0.6992    2.2566   27.0895 N.ar    1  UNL1       -0.2264
      7 C          -4.5798    4.4859   26.5652 C.ar    1  UNL1        0.0207
      8 C          -4.9683    4.9920   25.2077 C.ar    1  UNL1        0.0989
      9 N          -4.1048    4.6895   24.0190 N.ar    1  UNL1       -0.2423
     10 C          -2.8528    3.8809   24.1879 C.ar    1  UNL1        0.1003
     11 C          -2.4643    3.3748   25.5454 C.ar    1  UNL1        0.0370
     12 C          -3.3279    3.6773   26.7341 C.ar    1  UNL1        0.0046
     13 N           1.5176    0.7591   23.4710 N.pl3   1  UNL1       -0.2932
     14 C           1.0868    1.1842   22.0985 C.3     1  UNL1        0.0922
     15 C           1.8257    0.6850   20.8924 C.3     1  UNL1        0.0229
     16 C           2.9955   -0.2392   21.0587 C.3     1  UNL1        0.0194
     17 C           3.4262   -0.6643   22.4312 C.3     1  UNL1        0.0229
     18 C           2.6872   -0.1651   23.6374 C.3     1  UNL1        0.0922
     19 C           3.7344   -0.7384   19.8526 C.3     1  UNL1        0.0723
     20 N           4.2483   -2.1472   19.8177 N.3     1  UNL1       -0.2685
     21 C           3.3445   -3.2648   19.3886 C.3     1  UNL1        0.1046
     22 C           3.8584   -4.6735   19.3537 C.3     1  UNL1        0.1595
     23 O           5.2761   -4.9647   19.7479 O.3     1  UNL1       -0.3508
     24 C           6.1798   -3.8472   20.1770 C.3     1  UNL1        0.1595
     25 C           5.6659   -2.4384   20.2119 C.3     1  UNL1        0.1046
     26 C           1.0658    1.1385   28.6336 C.ar    1  UNL1        0.0389
     27 C           0.8531    2.1162   29.7511 C.ar    1  UNL1        0.0237
     28 C           1.3662    1.8067   31.1263 C.ar    1  UNL1        0.0990
     29 N           2.0920    0.5195   31.3838 N.ar    1  UNL1       -0.2423
     30 C           2.3047   -0.4582   30.2663 C.ar    1  UNL1        0.0990
     31 C           1.7916   -0.1487   28.8912 C.ar    1  UNL1        0.0237
@<TRIPOS>BOND
     1     7     8   ar
     2     8     9   ar
     3     9    10   ar
     4    10    11   ar
     5    11     1    1
     6     1     2   ar
     7     2     3   ar
     8     3    13    1
     9    13    14    1
    10    14    15    1
    11    15    16    1
    12    16    19    1
    13    19    20    1
    14    20    21    1
    15    21    22    1
    16    22    23    1
    17    23    24    1
    18    24    25    1
    19    16    17    1
    20    17    18    1
    21     3     4   ar
    22     4     5   ar
    23     5    26    1
    24    26    27   ar
    25    27    28   ar
    26    28    29   ar
    27    29    30   ar
    28    30    31   ar
    29     5     6   ar
    30    11    12   ar
    31    12     7   ar
    32     6     1   ar
    33    18    13    1
    34    31    26   ar
    35    25    20    1
@<TRIPOS>MOLECULE
*****
 31 35 0 0 0
SMALL
GASTEIGER

@<TRIPOS>ATOM
      1 C           0.4706    1.6811   27.2366 C.ar    1  UNL1        0.0872
      2 C           1.1915    1.1595   26.0291 C.ar    1  UNL1        0.0535
      3 C           0.6275    1.3947   24.6591 C.ar    1  UNL1        0.1349
      4 N          -0.6574    2.1515   24.4968 N.ar    1  UNL1       -0.2119
      5 C          -1.3783    2.6731   25.7044 C.ar    1  UNL1        0.1637
      6 N          -0.8143    2.4379   27.0743 N.ar    1  UNL1       -0.2264
      7 C           1.8903    2.3741   30.8773 C.ar    1  UNL1        0.0207
      8 C           2.1624    0.9756   31.3464 C.ar    1  UNL1        0.0989
      9 N           1.8705   -0.1878   30.4456 N.ar    1  UNL1       -0.2423
     10 C           1.3066    0.0474   29.0757 C.ar    1  UNL1        0.1003
     11 C           1.0345    1.4459   28.6066 C.ar    1  UNL1        0.0370
     12 C           1.3264    2.6092   29.5074 C.ar    1  UNL1        0.0046
     13 N           1.3484    0.8731   23.4516 N.pl3   1  UNL1       -0.2932
     14 C           2.5570    0.0004   23.6184 C.3     1  UNL1        0.0922
     15 C           3.2779   -0.5212   22.4109 C.3     1  UNL1        0.0229
     16 C           2.7902   -0.1702   21.0365 C.3     1  UNL1        0.0194
     17 C           1.5817    0.7025   20.8696 C.3     1  UNL1        0.0229
     18 C           0.8607    1.2241   22.0773 C.3     1  UNL1        0.0922
     19 C           3.5111   -0.6918   19.8289 C.3     1  UNL1        0.0723
     20 N           4.1417   -2.0524   19.8614 N.3     1  UNL1       -0.2685
     21 C           5.5794   -2.2034   20.2615 C.3     1  UNL1        0.1046
     22 C           6.2099   -3.5641   20.2940 C.3     1  UNL1        0.1595
     23 O           5.4027   -4.7737   19.9265 O.3     1  UNL1       -0.3508
     24 C           3.9650   -4.6227   19.5264 C.3     1  UNL1        0.1595
     25 C           3.3344   -3.2621   19.4939 C.3     1  UNL1        0.1046
     26 C          -2.6631    3.4299   25.5421 C.ar    1  UNL1        0.0389
     27 C          -3.4143    3.9007   26.7522 C.ar    1  UNL1        0.0237
     28 C          -4.6991    4.6575   26.5899 C.ar    1  UNL1        0.0990
     29 N          -5.2329    4.9435   25.2175 N.ar    1  UNL1       -0.2423
     30 C          -4.4818    4.4727   24.0075 C.ar    1  UNL1        0.0990
     31 C          -3.1969    3.7159   24.1698 C.ar    1  UNL1        0.0237
@<TRIPOS>BOND
     1     7     8   ar
     2     8     9   ar
     3     9    10   ar
     4    10    11   ar
     5    11     1    1
     6     1     2   ar
     7     2     3   ar
     8     3    13    1
     9    13    14    1
    10    14    15    1
    11    15    16    1
    12    16    19    1
    13    19    20    1
    14    20    21    1
    15    21    22    1
    16    22    23    1
    17    23    24    1
    18    24    25    1
    19    16    17    1
    20    17    18    1
    21     3     4   ar
    22     4     5   ar
    23     5    26    1
    24    26    27   ar
    25    27    28   ar
    26    28    29   ar
    27    29    30   ar
    28    30    31   ar
    29     5     6   ar
    30    11    12   ar
    31    12     7   ar
    32     6     1   ar
    33    18    13    1
    34    31    26   ar
    35    25    20    1
@<TRIPOS>MOLECULE
*****
 31 35 0 0 0
SMALL
GASTEIGER

@<TRIPOS>ATOM
      1 C           7.1380   -4.7450   24.0447 C.ar    1  UNL1        0.0872
      2 C           6.3961   -3.8311   24.9743 C.ar    1  UNL1        0.0535
      3 C           5.6736   -2.6340   24.4311 C.ar    1  UNL1        0.1349
      4 N           5.6930   -2.3509   22.9582 N.ar    1  UNL1       -0.2119
      5 C           6.4350   -3.2649   22.0285 C.ar    1  UNL1        0.1637
      6 N           7.1574   -4.4619   22.5718 N.ar    1  UNL1       -0.2264
      7 C           9.5359   -7.9001   24.2578 C.ar    1  UNL1        0.0207
      8 C           9.3054   -8.3362   25.6743 C.ar    1  UNL1        0.0989
      9 N           8.3525   -7.5752   26.5477 N.ar    1  UNL1       -0.2423
     10 C           7.6300   -6.3782   26.0045 C.ar    1  UNL1        0.1003
     11 C           7.8605   -5.9421   24.5880 C.ar    1  UNL1        0.0370
     12 C           8.8135   -6.7031   23.7146 C.ar    1  UNL1        0.0046
     13 N           4.9317   -1.7200   25.3607 N.pl3   1  UNL1       -0.2932
     14 C           4.0301   -0.6571   24.8064 C.3     1  UNL1        0.0922
     15 C           3.2883    0.2568   25.7361 C.3     1  UNL1        0.0229
     16 C           3.4480    0.1079   27.2201 C.3     1  UNL1        0.0194
     17 C           4.3496   -0.9551   27.7745 C.3     1  UNL1        0.0229
     18 C           5.0915   -1.8690   26.8447 C.3     1  UNL1        0.0922
     19 C           2.7061    1.0218   28.1498 C.3     1  UNL1        0.0723
     20 N           1.2066    1.0022   28.1826 N.3     1  UNL1       -0.2685
     21 C           0.4268    2.0653   27.4674 C.3     1  UNL1        0.1046
     22 C          -1.0727    2.0457   27.5002 C.3     1  UNL1        0.1595
     23 O          -1.7924    0.9629   28.2482 O.3     1  UNL1       -0.3508
     24 C          -1.0126   -0.1002   28.9634 C.3     1  UNL1        0.1595
     25 C           0.4869   -0.0806   28.9306 C.3     1  UNL1        0.1046
     26 C           6.4544   -2.9818   20.5556 C.ar    1  UNL1        0.0389
     27 C           7.6385   -2.2979   19.9389 C.ar    1  UNL1        0.0237
     28 C           7.6579   -2.0148   18.4659 C.ar    1  UNL1        0.0990
     29 N           6.4933   -2.4157   17.6097 N.ar    1  UNL1       -0.2423
     30 C           5.3093   -3.0996   18.2265 C.ar    1  UNL1        0.0990
     31 C           5.2898   -3.3826   19.6994 C.ar    1  UNL1        0.0237
@<TRIPOS>BOND
     1     7     8   ar
     2     8     9   ar
     3     9    10   ar
     4    10    11   ar
     5    11     1    1
     6     1     2   ar
     7     2     3   ar
     8     3    13    1
     9    13    14    1
    10    14    15    1
    11    15    16    1
    12    16    19    1
    13    19    20    1
    14    20    21    1
    15    21    22    1
    16    22    23    1
    17    23    24    1
    18    24    25    1
    19    16    17    1
    20    17    18    1
    21     3     4   ar
    22     4     5   ar
    23     5    26    1
    24    26    27   ar
    25    27    28   ar
    26    28    29   ar
    27    29    30   ar
    28    30    31   ar
    29     5     6   ar
    30    11    12   ar
    31    12     7   ar
    32     6     1   ar
    33    18    13    1
    34    31    26   ar
    35    25    20    1
@<TRIPOS>MOLECULE
*****
 31 35 0 0 0
SMALL
GASTEIGER

@<TRIPOS>ATOM
      1 C          -2.9562    4.2867   19.7001 C.ar    1  UNL1        0.0872
      2 C          -1.7838    3.4259   19.3336 C.ar    1  UNL1        0.0535
      3 C          -1.0668    2.6440   20.3941 C.ar    1  UNL1        0.1349
      4 N          -1.5223    2.7229   21.8211 N.ar    1  UNL1       -0.2119
      5 C          -2.6948    3.5838   22.1876 C.ar    1  UNL1        0.1637
      6 N          -3.4117    4.3656   21.1271 N.ar    1  UNL1       -0.2264
      7 C          -4.8889    5.1584   16.3453 C.ar    1  UNL1        0.0207
      8 C          -5.1072    6.6323   16.5187 C.ar    1  UNL1        0.0989
      9 N          -4.6085    7.3243   17.7526 N.ar    1  UNL1       -0.2423
     10 C          -3.8915    6.5424   18.8130 C.ar    1  UNL1        0.1003
     11 C          -3.6732    5.0686   18.6396 C.ar    1  UNL1        0.0370
     12 C          -4.1720    4.3766   17.4057 C.ar    1  UNL1        0.0046
     13 N           0.1056    1.7832   20.0276 N.pl3   1  UNL1       -0.2932
     14 C           0.1654    0.3589   20.4943 C.3     1  UNL1        0.0922
     15 C           1.3378   -0.5019   20.1278 C.3     1  UNL1        0.0229
     16 C           2.4506    0.0615   19.2945 C.3     1  UNL1        0.0194
     17 C           2.3908    1.4858   18.8277 C.3     1  UNL1        0.0229
     18 C           1.2183    2.3466   19.1942 C.3     1  UNL1        0.0922
     19 C           3.6230   -0.7993   18.9279 C.3     1  UNL1        0.0723
     20 N           3.8634   -2.0886   19.6558 N.3     1  UNL1       -0.2685
     21 C           3.5691   -3.3962   18.9823 C.3     1  UNL1        0.1046
     22 C           3.8096   -4.6855   19.7102 C.3     1  UNL1        0.1595
     23 O           4.3443   -4.6673   21.1115 O.3     1  UNL1       -0.3508
     24 C           4.6386   -3.3597   21.7849 C.3     1  UNL1        0.1595
     25 C           4.3982   -2.0704   21.0571 C.3     1  UNL1        0.1046
     26 C          -3.1503    3.6627   23.6146 C.ar    1  UNL1        0.0389
     27 C          -2.1559    3.5183   24.7283 C.ar    1  UNL1        0.0237
     28 C          -2.6113    3.5972   26.1553 C.ar    1  UNL1        0.0990
     29 N          -4.0612    3.8206   26.4685 N.ar    1  UNL1       -0.2423
     30 C          -5.0555    3.9650   25.3548 C.ar    1  UNL1        0.0990
     31 C          -4.6000    3.8860   23.9278 C.ar    1  UNL1        0.0237
@<TRIPOS>BOND
     1     7     8   ar
     2     8     9   ar
     3     9    10   ar
     4    10    11   ar
     5    11     1    1
     6     1     2   ar
     7     2     3   ar
     8     3    13    1
     9    13    14    1
    10    14    15    1
    11    15    16    1
    12    16    19    1
    13    19    20    1
    14    20    21    1
    15    21    22    1
    16    22    23    1
    17    23    24    1
    18    24    25    1
    19    16    17    1
    20    17    18    1
    21     3     4   ar
    22     4     5   ar
    23     5    26    1
    24    26    27   ar
    25    27    28   ar
    26    28    29   ar
    27    29    30   ar
    28    30    31   ar
    29     5     6   ar
    30    11    12   ar
    31    12     7   ar
    32     6     1   ar
    33    18    13    1
    34    31    26   ar
    35    25    20    1
@<TRIPOS>MOLECULE
*****
 31 35 0 0 0
SMALL
GASTEIGER

@<TRIPOS>ATOM
      1 C          -1.2372    3.2349   23.0390 C.ar    1  UNL1        0.0872
      2 C          -0.1728    2.4410   22.3413 C.ar    1  UNL1        0.0535
      3 C          -0.3420    2.0644   20.8992 C.ar    1  UNL1        0.1349
      4 N          -1.5756    2.4817   20.1548 N.ar    1  UNL1       -0.2119
      5 C          -2.6400    3.2756   20.8526 C.ar    1  UNL1        0.1637
      6 N          -2.4708    3.6522   22.2946 N.ar    1  UNL1       -0.2264
      7 C          -0.9716    2.9334   26.9872 C.ar    1  UNL1        0.0207
      8 C          -0.7297    4.3647   27.3651 C.ar    1  UNL1        0.0989
      9 N          -0.6569    5.4194   26.3010 N.ar    1  UNL1       -0.2423
     10 C          -0.8260    5.0428   24.8590 C.ar    1  UNL1        0.1003
     11 C          -1.0680    3.6115   24.4811 C.ar    1  UNL1        0.0370
     12 C          -1.1408    2.5568   25.5452 C.ar    1  UNL1        0.0046
     13 N           0.7224    1.2705   20.2015 N.pl3   1  UNL1       -0.2932
     14 C           0.9441   -0.1680   20.5641 C.3     1  UNL1        0.0922
     15 C           2.0085   -0.9619   19.8664 C.3     1  UNL1        0.0229
     16 C           2.8513   -0.3172   18.8061 C.3     1  UNL1        0.0194
     17 C           2.6296    1.1213   18.4435 C.3     1  UNL1        0.0229
     18 C           1.5651    1.9152   19.1413 C.3     1  UNL1        0.0922
     19 C           3.9157   -1.1111   18.1084 C.3     1  UNL1        0.0723
     20 N           4.5376   -2.2936   18.7903 N.3     1  UNL1       -0.2685
     21 C           3.9487   -3.6608   18.6063 C.3     1  UNL1        0.1046
     22 C           4.5706   -4.8433   19.2881 C.3     1  UNL1        0.1595
     23 O           5.7814   -4.6586   20.1540 O.3     1  UNL1       -0.3508
     24 C           6.3703   -3.2914   20.3380 C.3     1  UNL1        0.1595
     25 C           5.7484   -2.1089   19.6561 C.3     1  UNL1        0.1046
     26 C          -3.8736    3.6929   20.1082 C.ar    1  UNL1        0.0389
     27 C          -3.8054    3.9605   18.6338 C.ar    1  UNL1        0.0237
     28 C          -5.0390    4.3777   17.8894 C.ar    1  UNL1        0.0990
     29 N          -6.3409    4.5274   18.6195 N.ar    1  UNL1       -0.2423
     30 C          -6.4090    4.2598   20.0938 C.ar    1  UNL1        0.0990
     31 C          -5.1754    3.8426   20.8382 C.ar    1  UNL1        0.0237
@<TRIPOS>BOND
     1     7     8   ar
     2     8     9   ar
     3     9    10   ar
     4    10    11   ar
     5    11     1    1
     6     1     2   ar
     7     2     3   ar
     8     3    13    1
     9    13    14    1
    10    14    15    1
    11    15    16    1
    12    16    19    1
    13    19    20    1
    14    20    21    1
    15    21    22    1
    16    22    23    1
    17    23    24    1
    18    24    25    1
    19    16    17    1
    20    17    18    1
    21     3     4   ar
    22     4     5   ar
    23     5    26    1
    24    26    27   ar
    25    27    28   ar
    26    28    29   ar
    27    29    30   ar
    28    30    31   ar
    29     5     6   ar
    30    11    12   ar
    31    12     7   ar
    32     6     1   ar
    33    18    13    1
    34    31    26   ar
    35    25    20    1
@<TRIPOS>MOLECULE
*****
 31 35 0 0 0
SMALL
GASTEIGER

@<TRIPOS>ATOM
      1 C           2.1425    2.1717   32.9073 C.ar    1  UNL1        0.0872
      2 C           1.3755    2.5030   31.6616 C.ar    1  UNL1        0.0535
      3 C           1.5776    1.6893   30.4177 C.ar    1  UNL1        0.1349
      4 N           2.5467    0.5444   30.4197 N.ar    1  UNL1       -0.2119
      5 C           3.3137    0.2132   31.6655 C.ar    1  UNL1        0.1637
      6 N           3.1116    1.0269   32.9093 N.ar    1  UNL1       -0.2264
      7 C           1.0862    5.1474   35.3115 C.ar    1  UNL1        0.0207
      8 C           1.5361    4.6128   36.6388 C.ar    1  UNL1        0.0989
      9 N           2.1882    3.2645   36.7223 N.ar    1  UNL1       -0.2423
     10 C           2.3903    2.4508   35.4785 C.ar    1  UNL1        0.1003
     11 C           1.9404    2.9854   34.1512 C.ar    1  UNL1        0.0370
     12 C           1.2883    4.3337   34.0677 C.ar    1  UNL1        0.0046
     13 N           0.8106    2.0205   29.1719 N.pl3   1  UNL1       -0.2932
     14 C          -0.1369    1.0164   28.5853 C.3     1  UNL1        0.0922
     15 C          -0.9039    1.3477   27.3395 C.3     1  UNL1        0.0229
     16 C          -0.7235    2.6830   26.6804 C.3     1  UNL1        0.0194
     17 C           0.2240    3.6870   27.2670 C.3     1  UNL1        0.0229
     18 C           0.9910    3.3558   28.5129 C.3     1  UNL1        0.0922
     19 C          -1.4905    3.0142   25.4346 C.3     1  UNL1        0.0723
     20 N          -2.8885    3.5487   25.5344 N.3     1  UNL1       -0.2685
     21 C          -3.8094    3.4652   24.3534 C.3     1  UNL1        0.1046
     22 C          -5.2074    3.9997   24.4532 C.3     1  UNL1        0.1595
     23 O          -5.6845    4.6176   25.7340 O.3     1  UNL1       -0.3508
     24 C          -4.7635    4.7011   26.9150 C.3     1  UNL1        0.1595
     25 C          -3.3656    4.1666   26.8152 C.3     1  UNL1        0.1046
     26 C           4.2829   -0.9317   31.6675 C.ar    1  UNL1        0.0389
     27 C           4.3538   -1.8523   32.8497 C.ar    1  UNL1        0.0237
     28 C           5.3229   -2.9972   32.8517 C.ar    1  UNL1        0.0990
     29 N           6.2212   -3.2215   31.6714 N.ar    1  UNL1       -0.2423
     30 C           6.1502   -2.3009   30.4893 C.ar    1  UNL1        0.0990
     31 C           5.1811   -1.1560   30.4873 C.ar    1  UNL1        0.0237
@<TRIPOS>BOND
     1     7     8   ar
     2     8     9   ar
     3     9    10   ar
     4    10    11   ar
     5    11     1    1
     6     1     2   ar
     7     2     3   ar
     8     3    13    1
     9    13    14    1
    10    14    15    1
    11    15    16    1
    12    16    19    1
    13    19    20    1
    14    20    21    1
    15    21    22    1
    16    22    23    1
    17    23    24    1
    18    24    25    1
    19    16    17    1
    20    17    18    1
    21     3     4   ar
    22     4     5   ar
    23     5    26    1
    24    26    27   ar
    25    27    28   ar
    26    28    29   ar
    27    29    30   ar
    28    30    31   ar
    29     5     6   ar
    30    11    12   ar
    31    12     7   ar
    32     6     1   ar
    33    18    13    1
    34    31    26   ar
    35    25    20    1
@<TRIPOS>MOLECULE
*****
 31 35 0 0 0
SMALL
GASTEIGER

@<TRIPOS>ATOM
      1 C           0.5919    1.3029   26.1820 C.ar    1  UNL1        0.0872
      2 C           1.1912    1.1241   24.8186 C.ar    1  UNL1        0.0535
      3 C           0.5187    1.7236   23.6192 C.ar    1  UNL1        0.1349
      4 N          -0.7531    2.5018   23.7833 N.ar    1  UNL1       -0.2119
      5 C          -1.3524    2.6806   25.1467 C.ar    1  UNL1        0.1637
      6 N          -0.6799    2.0811   26.3460 N.ar    1  UNL1       -0.2264
      7 C           3.4019   -0.2149   28.5378 C.ar    1  UNL1        0.0207
      8 C           2.6093   -0.4954   29.7800 C.ar    1  UNL1        0.0989
      9 N           1.1442   -0.1765   29.8229 N.ar    1  UNL1       -0.2423
     10 C           0.4717    0.4230   28.6236 C.ar    1  UNL1        0.1003
     11 C           1.2643    0.7034   27.3814 C.ar    1  UNL1        0.0370
     12 C           2.7294    0.3845   27.3385 C.ar    1  UNL1        0.0046
     13 N           1.1180    1.5448   22.2559 N.pl3   1  UNL1       -0.2932
     14 C           2.6027    1.6504   22.0695 C.3     1  UNL1        0.0922
     15 C           3.2020    1.4716   20.7061 C.3     1  UNL1        0.0229
     16 C           2.3167    1.1872   19.5290 C.3     1  UNL1        0.0194
     17 C           0.8320    1.0816   19.7154 C.3     1  UNL1        0.0229
     18 C           0.2327    1.2604   21.0789 C.3     1  UNL1        0.0922
     19 C           2.9160    1.0084   18.1657 C.3     1  UNL1        0.0723
     20 N           4.0996    0.1061   17.9791 N.3     1  UNL1       -0.2685
     21 C           3.9594   -1.3706   18.2019 C.3     1  UNL1        0.1046
     22 C           5.1430   -2.2730   18.0154 C.3     1  UNL1        0.1595
     23 O           6.4668   -1.6987   17.6061 O.3     1  UNL1       -0.3508
     24 C           6.6070   -0.2220   17.3833 C.3     1  UNL1        0.1595
     25 C           5.4234    0.6804   17.5698 C.3     1  UNL1        0.1046
     26 C          -2.6242    3.4588   25.3108 C.ar    1  UNL1        0.0389
     27 C          -3.1248    3.7968   26.6838 C.ar    1  UNL1        0.0237
     28 C          -4.3966    4.5751   26.8479 C.ar    1  UNL1        0.0990
     29 N          -5.1678    5.0153   25.6389 N.ar    1  UNL1       -0.2423
     30 C          -4.6671    4.6772   24.2659 C.ar    1  UNL1        0.0990
     31 C          -3.3954    3.8990   24.1019 C.ar    1  UNL1        0.0237
@<TRIPOS>BOND
     1     7     8   ar
     2     8     9   ar
     3     9    10   ar
     4    10    11   ar
     5    11     1    1
     6     1     2   ar
     7     2     3   ar
     8     3    13    1
     9    13    14    1
    10    14    15    1
    11    15    16    1
    12    16    19    1
    13    19    20    1
    14    20    21    1
    15    21    22    1
    16    22    23    1
    17    23    24    1
    18    24    25    1
    19    16    17    1
    20    17    18    1
    21     3     4   ar
    22     4     5   ar
    23     5    26    1
    24    26    27   ar
    25    27    28   ar
    26    28    29   ar
    27    29    30   ar
    28    30    31   ar
    29     5     6   ar
    30    11    12   ar
    31    12     7   ar
    32     6     1   ar
    33    18    13    1
    34    31    26   ar
    35    25    20    1
@<TRIPOS>MOLECULE
*****
 31 35 0 0 0
SMALL
GASTEIGER

@<TRIPOS>ATOM
      1 C           3.5243   -0.2942   28.2316 C.ar    1  UNL1        0.0872
      2 C           3.3126   -0.4674   26.7567 C.ar    1  UNL1        0.0535
      3 C           4.2380   -1.3421   25.9638 C.ar    1  UNL1        0.1349
      4 N           5.3751   -2.0436   26.6458 N.ar    1  UNL1       -0.2119
      5 C           5.5867   -1.8703   28.1207 C.ar    1  UNL1        0.1637
      6 N           4.6614   -0.9956   28.9135 N.ar    1  UNL1       -0.2264
      7 C           1.0727    2.6767   29.1873 C.ar    1  UNL1        0.0207
      8 C           0.7483    2.3299   30.6101 C.ar    1  UNL1        0.0989
      9 N           1.3492    1.1084   31.2401 N.ar    1  UNL1       -0.2423
     10 C           2.2745    0.2337   30.4473 C.ar    1  UNL1        0.1003
     11 C           2.5989    0.5805   29.0245 C.ar    1  UNL1        0.0370
     12 C           1.9980    1.8020   28.3945 C.ar    1  UNL1        0.0046
     13 N           4.0263   -1.5153   24.4890 N.pl3   1  UNL1       -0.2932
     14 C           3.1121   -0.5851   23.7482 C.3     1  UNL1        0.0922
     15 C           2.9004   -0.7583   22.2734 C.3     1  UNL1        0.0229
     16 C           3.6030   -1.8618   21.5393 C.3     1  UNL1        0.0194
     17 C           4.5172   -2.7920   22.2801 C.3     1  UNL1        0.0229
     18 C           4.7289   -2.6188   23.7550 C.3     1  UNL1        0.0922
     19 C           3.3913   -2.0350   20.0645 C.3     1  UNL1        0.0723
     20 N           4.4901   -1.6900   19.1034 N.3     1  UNL1       -0.2685
     21 C           5.6778   -2.5958   18.9656 C.3     1  UNL1        0.1046
     22 C           6.7766   -2.2508   18.0046 C.3     1  UNL1        0.1595
     23 O           6.6877   -1.0001   17.1813 O.3     1  UNL1       -0.3508
     24 C           5.5001   -0.0943   17.3191 C.3     1  UNL1        0.1595
     25 C           4.4013   -0.4393   18.2802 C.3     1  UNL1        0.1046
     26 C           6.7238   -2.5718   28.8027 C.ar    1  UNL1        0.0389
     27 C           6.6591   -4.0519   29.0377 C.ar    1  UNL1        0.0237
     28 C           7.7961   -4.7533   29.7197 C.ar    1  UNL1        0.0990
     29 N           8.9978   -3.9747   30.1667 N.ar    1  UNL1       -0.2423
     30 C           9.0625   -2.4946   29.9316 C.ar    1  UNL1        0.0990
     31 C           7.9254   -1.7932   29.2496 C.ar    1  UNL1        0.0237
@<TRIPOS>BOND
     1     7     8   ar
     2     8     9   ar
     3     9    10   ar
     4    10    11   ar
     5    11     1    1
     6     1     2   ar
     7     2     3   ar
     8     3    13    1
     9    13    14    1
    10    14    15    1
    11    15    16    1
    12    16    19    1
    13    19    20    1
    14    20    21    1
    15    21    22    1
    16    22    23    1
    17    23    24    1
    18    24    25    1
    19    16    17    1
    20    17    18    1
    21     3     4   ar
    22     4     5   ar
    23     5    26    1
    24    26    27   ar
    25    27    28   ar
    26    28    29   ar
    27    29    30   ar
    28    30    31   ar
    29     5     6   ar
    30    11    12   ar
    31    12     7   ar
    32     6     1   ar
    33    18    13    1
    34    31    26   ar
    35    25    20    1
@<TRIPOS>MOLECULE
*****
 31 35 0 0 0
SMALL
GASTEIGER

@<TRIPOS>ATOM
      1 C           4.0677   -2.0205   22.7605 C.ar    1  UNL1        0.0872
      2 C           3.0880   -0.8868   22.8287 C.ar    1  UNL1        0.0535
      3 C           2.8782   -0.1535   24.1204 C.ar    1  UNL1        0.1349
      4 N           3.6481   -0.5541   25.3438 N.ar    1  UNL1       -0.2119
      5 C           4.6279   -1.6879   25.2756 C.ar    1  UNL1        0.1637
      6 N           4.8377   -2.4211   23.9839 N.ar    1  UNL1       -0.2264
      7 C           3.7210   -3.0833   18.9526 C.ar    1  UNL1        0.0207
      8 C           4.6971   -4.2202   18.8856 C.ar    1  UNL1        0.0989
      9 N           5.4635   -4.6239   20.1102 N.ar    1  UNL1       -0.2423
     10 C           5.2537   -3.8907   21.4018 C.ar    1  UNL1        0.1003
     11 C           4.2776   -2.7538   21.4688 C.ar    1  UNL1        0.0370
     12 C           3.5112   -2.3501   20.2442 C.ar    1  UNL1        0.0046
     13 N           1.8985    0.9803   24.1886 N.pl3   1  UNL1       -0.2932
     14 C           1.6941    1.7183   25.4784 C.3     1  UNL1        0.0922
     15 C           0.7144    2.8521   25.5466 C.3     1  UNL1        0.0229
     16 C          -0.0610    3.2478   24.3250 C.3     1  UNL1        0.0194
     17 C           0.1434    2.5098   23.0352 C.3     1  UNL1        0.0229
     18 C           1.1232    1.3760   22.9670 C.3     1  UNL1        0.0922
     19 C          -1.0407    4.3816   24.3932 C.3     1  UNL1        0.0723
     20 N          -2.4599    4.1228   24.8041 N.3     1  UNL1       -0.2685
     21 C          -2.8833    4.3529   26.2245 C.3     1  UNL1        0.1046
     22 C          -4.3026    4.0940   26.6354 C.3     1  UNL1        0.1595
     23 O          -5.2984    3.6051   25.6258 O.3     1  UNL1       -0.3508
     24 C          -4.8750    3.3750   24.2054 C.3     1  UNL1        0.1595
     25 C          -3.4557    3.6339   23.7945 C.3     1  UNL1        0.1046
     26 C           5.3978   -2.0884   26.4990 C.ar    1  UNL1        0.0389
     27 C           5.0254   -1.5237   27.8378 C.ar    1  UNL1        0.0237
     28 C           5.7953   -1.9242   29.0612 C.ar    1  UNL1        0.0990
     29 N           6.9377   -2.8896   28.9458 N.ar    1  UNL1       -0.2423
     30 C           7.3101   -3.4543   27.6070 C.ar    1  UNL1        0.0990
     31 C           6.5401   -3.0537   26.3836 C.ar    1  UNL1        0.0237
@<TRIPOS>BOND
     1     7     8   ar
     2     8     9   ar
     3     9    10   ar
     4    10    11   ar
     5    11     1    1
     6     1     2   ar
     7     2     3   ar
     8     3    13    1
     9    13    14    1
    10    14    15    1
    11    15    16    1
    12    16    19    1
    13    19    20    1
    14    20    21    1
    15    21    22    1
    16    22    23    1
    17    23    24    1
    18    24    25    1
    19    16    17    1
    20    17    18    1
    21     3     4   ar
    22     4     5   ar
    23     5    26    1
    24    26    27   ar
    25    27    28   ar
    26    28    29   ar
    27    29    30   ar
    28    30    31   ar
    29     5     6   ar
    30    11    12   ar
    31    12     7   ar
    32     6     1   ar
    33    18    13    1
    34    31    26   ar
    35    25    20    1
