@<TRIPOS>MOLECULE
*****
 30 32 0 0 0
SMALL
GASTEIGER

@<TRIPOS>ATOM
      1 C         -11.4362  -16.3977   19.5080 C.3     1  UNL1        0.1152
      2 N         -10.5277  -16.7446   20.6501 N.am    1  UNL1       -0.2729
      3 C          -9.5012  -15.7564   21.1188 C.2     1  UNL1        0.2459
      4 O          -9.3832  -14.4212   20.4454 O.2     1  UNL1       -0.2730
      5 C          -8.5927  -16.1032   22.2609 C.3     1  UNL1        0.1739
      6 N          -7.9171  -15.0136   23.0395 N.pl3   1  UNL1       -0.3247
      7 H          -7.7179  -14.1513   22.6082 H       1  UNL1        0.1473
      8 C          -7.5451  -15.2378   24.4753 C.ar    1  UNL1        0.0547
      9 C          -8.6158  -15.3318   25.5216 C.ar    1  UNL1        0.0150
     10 C          -8.2438  -15.5559   26.9573 C.ar    1  UNL1        0.0013
     11 C          -6.8010  -15.6861   27.3467 C.ar    1  UNL1        0.0008
     12 C          -5.7304  -15.5921   26.3004 C.ar    1  UNL1        0.0115
     13 C          -6.1024  -15.3679   24.8647 C.ar    1  UNL1        0.0815
     14 C          -5.0317  -15.2739   23.8183 C.1     1  UNL1        0.1017
     15 N          -3.9611  -15.1799   22.7720 N.1     1  UNL1       -0.1908
     16 C         -10.6457  -18.0797   21.3235 C.3     1  UNL1        0.1139
     17 C         -11.5124  -18.2331   22.5381 C.ar    1  UNL1       -0.0029
     18 C         -10.9589  -18.8684   23.7791 C.ar    1  UNL1       -0.0026
     19 C         -11.8256  -19.0218   24.9937 C.ar    1  UNL1       -0.0003
     20 C         -13.2458  -18.5399   24.9674 C.ar    1  UNL1       -0.0000
     21 C         -13.7994  -17.9046   23.7264 C.ar    1  UNL1       -0.0003
     22 C         -12.9327  -17.7512   22.5118 C.ar    1  UNL1       -0.0026
     23 C          -9.8971  -19.2616   20.7822 C.3     1  UNL1        0.0968
     24 N          -8.4126  -19.3607   20.9733 N.3     1  UNL1       -0.2689
     25 C          -7.7087  -19.6828   22.2581 C.3     1  UNL1        0.0748
     26 C          -6.2325  -19.6763   21.9921 C.3     1  UNL1        0.0480
     27 C          -6.0241  -19.3501   20.5428 C.3     1  UNL1        0.1278
     28 O          -4.7006  -19.2385   19.8456 O.3     1  UNL1       -0.3830
     29 C          -7.3715  -19.1550   19.9132 C.3     1  UNL1        0.1017
     30 H          -3.9862  -19.4109   20.4786 H       1  UNL1        0.2104
@<TRIPOS>BOND
     1     1     2    1
     2     2     3   am
     3     3     4    2
     4     3     5    1
     5     5     6    1
     6     6     8    1
     7     8     9   ar
     8     9    10   ar
     9    10    11   ar
    10    11    12   ar
    11    12    13   ar
    12    13    14    1
    13    14    15    3
    14     2    16    1
    15    16    23    1
    16    23    24    1
    17    24    25    1
    18    25    26    1
    19    26    27    1
    20    27    28    1
    21    27    29    1
    22    16    17    1
    23    17    18   ar
    24    18    19   ar
    25    19    20   ar
    26    20    21   ar
    27    21    22   ar
    28    13     8   ar
    29    29    24    1
    30    22    17   ar
    31     6     7    1
    32    28    30    1
@<TRIPOS>MOLECULE
*****
 30 32 0 0 0
SMALL
GASTEIGER

@<TRIPOS>ATOM
      1 C          -6.7050  -21.1197   20.3606 C.3     1  UNL1        0.1152
      2 N          -7.6201  -19.9351   20.4570 N.am    1  UNL1       -0.2729
      3 C          -8.6957  -19.7329   19.4313 C.2     1  UNL1        0.2459
      4 O          -8.8563  -20.7153   18.3092 O.2     1  UNL1       -0.2730
      5 C          -9.6108  -18.5483   19.5277 C.3     1  UNL1        0.1739
      6 N         -11.0711  -18.7493   19.8054 N.pl3   1  UNL1       -0.3247
      7 H         -11.6112  -19.3194   19.2116 H       1  UNL1        0.1473
      8 C         -11.7086  -18.0816   20.9877 C.ar    1  UNL1        0.0547
      9 C         -12.2460  -18.9096   22.1171 C.ar    1  UNL1        0.0150
     10 C         -12.8834  -18.2418   23.2994 C.ar    1  UNL1        0.0013
     11 C         -12.9834  -16.7461   23.3523 C.ar    1  UNL1        0.0008
     12 C         -12.4460  -15.9181   22.2229 C.ar    1  UNL1        0.0115
     13 C         -11.8086  -16.5858   21.0406 C.ar    1  UNL1        0.0815
     14 C         -11.2712  -15.7578   19.9112 C.1     1  UNL1        0.1017
     15 N         -10.7337  -14.9298   18.7818 N.1     1  UNL1       -0.1908
     16 C          -7.4595  -18.9527   21.5791 C.3     1  UNL1        0.1139
     17 C          -8.3629  -19.0250   22.7743 C.ar    1  UNL1       -0.0029
     18 C          -8.7621  -17.7686   23.4899 C.ar    1  UNL1       -0.0026
     19 C          -9.6656  -17.8409   24.6851 C.ar    1  UNL1       -0.0003
     20 C         -10.1699  -19.1697   25.1648 C.ar    1  UNL1       -0.0000
     21 C          -9.7707  -20.4262   24.4492 C.ar    1  UNL1       -0.0003
     22 C          -8.8673  -20.3538   23.2540 C.ar    1  UNL1       -0.0026
     23 C          -6.3954  -17.8979   21.5060 C.3     1  UNL1        0.0968
     24 N          -4.9759  -18.2395   21.8499 N.3     1  UNL1       -0.2689
     25 C          -4.1790  -17.6604   22.9810 C.3     1  UNL1        0.0748
     26 C          -2.8146  -18.2831   22.9532 C.3     1  UNL1        0.0480
     27 C          -2.7684  -19.2472   21.8049 C.3     1  UNL1        0.1278
     28 O          -1.5928  -20.0902   21.4083 O.3     1  UNL1       -0.3830
     29 C          -4.1041  -19.2202   21.1231 C.3     1  UNL1        0.1017
     30 H          -0.8535  -19.9188   22.0124 H       1  UNL1        0.2104
@<TRIPOS>BOND
     1     1     2    1
     2     2     3   am
     3     3     4    2
     4     3     5    1
     5     5     6    1
     6     6     8    1
     7     8     9   ar
     8     9    10   ar
     9    10    11   ar
    10    11    12   ar
    11    12    13   ar
    12    13    14    1
    13    14    15    3
    14     2    16    1
    15    16    23    1
    16    23    24    1
    17    24    25    1
    18    25    26    1
    19    26    27    1
    20    27    28    1
    21    27    29    1
    22    16    17    1
    23    17    18   ar
    24    18    19   ar
    25    19    20   ar
    26    20    21   ar
    27    21    22   ar
    28    13     8   ar
    29    29    24    1
    30    22    17   ar
    31     6     7    1
    32    28    30    1
@<TRIPOS>MOLECULE
*****
 30 32 0 0 0
SMALL
GASTEIGER

@<TRIPOS>ATOM
      1 C          -4.6015  -17.9206   23.4590 C.3     1  UNL1        0.1152
      2 N          -5.8950  -17.9230   22.6993 N.am    1  UNL1       -0.2729
      3 C          -6.7731  -16.7070   22.7096 C.2     1  UNL1        0.2459
      4 O          -6.3578  -15.4885   23.4797 O.2     1  UNL1       -0.2730
      5 C          -8.0665  -16.7093   21.9500 C.3     1  UNL1        0.1739
      6 N          -9.2377  -15.9237   22.4608 N.pl3   1  UNL1       -0.3247
      7 H          -9.1199  -14.9846   22.7321 H       1  UNL1        0.1473
      8 C         -10.5885  -16.5687   22.5582 C.ar    1  UNL1        0.0547
      9 C         -10.9845  -17.2946   23.8096 C.ar    1  UNL1        0.0150
     10 C         -12.3351  -17.9397   23.9070 C.ar    1  UNL1        0.0013
     11 C         -13.2898  -17.8588   22.7529 C.ar    1  UNL1        0.0008
     12 C         -12.8939  -17.1329   21.5014 C.ar    1  UNL1        0.0115
     13 C         -11.5432  -16.4879   21.4040 C.ar    1  UNL1        0.0815
     14 C         -11.1471  -15.7620   20.1525 C.1     1  UNL1        0.1017
     15 N         -10.7511  -15.0360   18.9011 N.1     1  UNL1       -0.1908
     16 C          -6.3103  -19.1414   21.9293 C.3     1  UNL1        0.1139
     17 C          -7.7657  -19.4654   21.7659 C.ar    1  UNL1       -0.0029
     18 C          -8.5594  -19.9632   22.9373 C.ar    1  UNL1       -0.0026
     19 C         -10.0148  -20.2872   22.7738 C.ar    1  UNL1       -0.0003
     20 C         -10.6766  -20.1134   21.4390 C.ar    1  UNL1       -0.0000
     21 C          -9.8829  -19.6156   20.2675 C.ar    1  UNL1       -0.0003
     22 C          -8.4275  -19.2916   20.4309 C.ar    1  UNL1       -0.0026
     23 C          -5.2701  -20.0360   21.3227 C.3     1  UNL1        0.0968
     24 N          -4.0924  -19.4406   20.6095 N.3     1  UNL1       -0.2689
     25 C          -4.1513  -18.5187   19.4277 C.3     1  UNL1        0.0748
     26 C          -2.7444  -18.1709   19.0406 C.3     1  UNL1        0.0480
     27 C          -1.8161  -18.8778   19.9833 C.3     1  UNL1        0.1278
     28 O          -0.3177  -18.8117   19.9603 O.3     1  UNL1       -0.3830
     29 C          -2.6492  -19.6625   20.9528 C.3     1  UNL1        0.1017
     30 H          -0.0306  -18.2353   19.2348 H       1  UNL1        0.2104
@<TRIPOS>BOND
     1     1     2    1
     2     2     3   am
     3     3     4    2
     4     3     5    1
     5     5     6    1
     6     6     8    1
     7     8     9   ar
     8     9    10   ar
     9    10    11   ar
    10    11    12   ar
    11    12    13   ar
    12    13    14    1
    13    14    15    3
    14     2    16    1
    15    16    23    1
    16    23    24    1
    17    24    25    1
    18    25    26    1
    19    26    27    1
    20    27    28    1
    21    27    29    1
    22    16    17    1
    23    17    18   ar
    24    18    19   ar
    25    19    20   ar
    26    20    21   ar
    27    21    22   ar
    28    13     8   ar
    29    29    24    1
    30    22    17   ar
    31     6     7    1
    32    28    30    1
@<TRIPOS>MOLECULE
*****
 30 32 0 0 0
SMALL
GASTEIGER

@<TRIPOS>ATOM
      1 C          -8.2142  -15.4157   25.7537 C.3     1  UNL1        0.1152
      2 N          -7.5640  -15.9658   24.5189 N.am    1  UNL1       -0.2729
      3 C          -6.0739  -15.8955   24.3612 C.2     1  UNL1        0.2459
      4 O          -5.2342  -15.2751   25.4383 O.2     1  UNL1       -0.2730
      5 C          -5.4237  -16.4456   23.1265 C.3     1  UNL1        0.1739
      6 N          -4.5121  -17.6329   23.2244 N.pl3   1  UNL1       -0.3247
      7 H          -3.9604  -17.7649   24.0290 H       1  UNL1        0.1473
      8 C          -4.4414  -18.6191   22.0964 C.ar    1  UNL1        0.0547
      9 C          -5.4545  -19.7209   21.9988 C.ar    1  UNL1        0.0150
     10 C          -5.3836  -20.7071   20.8708 C.ar    1  UNL1        0.0013
     11 C          -4.2997  -20.5914   19.8404 C.ar    1  UNL1        0.0008
     12 C          -3.2866  -19.4896   19.9380 C.ar    1  UNL1        0.0115
     13 C          -3.3574  -18.5034   21.0660 C.ar    1  UNL1        0.0815
     14 C          -2.3443  -17.4015   21.1636 C.1     1  UNL1        0.1017
     15 N          -1.3312  -16.2997   21.2612 N.1     1  UNL1       -0.1908
     16 C          -8.4037  -16.5862   23.4420 C.3     1  UNL1        0.1139
     17 C          -9.1480  -17.8603   23.7116 C.ar    1  UNL1       -0.0029
     18 C          -8.5064  -19.1820   23.4095 C.ar    1  UNL1       -0.0026
     19 C          -9.2506  -20.4561   23.6792 C.ar    1  UNL1       -0.0003
     20 C         -10.6365  -20.4085   24.2510 C.ar    1  UNL1       -0.0000
     21 C         -11.2782  -19.0868   24.5531 C.ar    1  UNL1       -0.0003
     22 C         -10.5340  -17.8127   24.2835 C.ar    1  UNL1       -0.0026
     23 C          -8.4992  -15.9325   22.0952 C.3     1  UNL1        0.0968
     24 N          -9.6461  -16.2560   21.1842 N.3     1  UNL1       -0.2689
     25 C         -10.0678  -17.6287   20.7509 C.3     1  UNL1        0.0748
     26 C         -11.2549  -17.4847   19.8454 C.3     1  UNL1        0.0480
     27 C         -11.5669  -16.0229   19.7189 C.3     1  UNL1        0.1278
     28 O         -12.6780  -15.4255   18.9075 O.3     1  UNL1       -0.3830
     29 C         -10.5725  -15.2636   20.5464 C.3     1  UNL1        0.1017
     30 H         -13.1747  -16.1336   18.4685 H       1  UNL1        0.2104
@<TRIPOS>BOND
     1     1     2    1
     2     2     3   am
     3     3     4    2
     4     3     5    1
     5     5     6    1
     6     6     8    1
     7     8     9   ar
     8     9    10   ar
     9    10    11   ar
    10    11    12   ar
    11    12    13   ar
    12    13    14    1
    13    14    15    3
    14     2    16    1
    15    16    23    1
    16    23    24    1
    17    24    25    1
    18    25    26    1
    19    26    27    1
    20    27    28    1
    21    27    29    1
    22    16    17    1
    23    17    18   ar
    24    18    19   ar
    25    19    20   ar
    26    20    21   ar
    27    21    22   ar
    28    13     8   ar
    29    29    24    1
    30    22    17   ar
    31     6     7    1
    32    28    30    1
@<TRIPOS>MOLECULE
*****
 30 32 0 0 0
SMALL
GASTEIGER

@<TRIPOS>ATOM
      1 C          -7.9928  -15.1766   25.4389 C.3     1  UNL1        0.1152
      2 N          -7.4224  -16.0049   24.3259 N.am    1  UNL1       -0.2729
      3 C          -5.9413  -16.2252   24.2382 C.2     1  UNL1        0.2459
      4 O          -5.0306  -15.6173   25.2636 O.2     1  UNL1       -0.2730
      5 C          -5.3708  -17.0534   23.1253 C.3     1  UNL1        0.1739
      6 N          -3.9637  -17.5649   23.2164 N.pl3   1  UNL1       -0.3247
      7 H          -3.5970  -17.8449   24.0861 H       1  UNL1        0.1473
      8 C          -3.1152  -17.6500   21.9823 C.ar    1  UNL1        0.0547
      9 C          -1.9503  -16.7213   21.8076 C.ar    1  UNL1        0.0150
     10 C          -1.1019  -16.8063   20.5735 C.ar    1  UNL1        0.0013
     11 C          -1.4184  -17.8201   19.5142 C.ar    1  UNL1        0.0008
     12 C          -2.5833  -18.7487   19.6889 C.ar    1  UNL1        0.0115
     13 C          -3.4317  -18.6637   20.9230 C.ar    1  UNL1        0.0815
     14 C          -4.5966  -19.5924   21.0977 C.1     1  UNL1        0.1017
     15 N          -5.7615  -20.5210   21.2725 N.1     1  UNL1       -0.1908
     16 C          -8.3331  -16.6127   23.3007 C.3     1  UNL1        0.1139
     17 C          -9.0912  -17.8669   23.6204 C.ar    1  UNL1       -0.0029
     18 C          -8.5000  -19.2053   23.2906 C.ar    1  UNL1       -0.0026
     19 C          -9.2582  -20.4595   23.6103 C.ar    1  UNL1       -0.0003
     20 C         -10.6076  -20.3752   24.2597 C.ar    1  UNL1       -0.0000
     21 C         -11.1989  -19.0367   24.5896 C.ar    1  UNL1       -0.0003
     22 C         -10.4408  -17.7825   24.2699 C.ar    1  UNL1       -0.0026
     23 C          -8.4856  -15.9663   21.9556 C.3     1  UNL1        0.0968
     24 N          -9.6769  -16.2843   21.1015 N.3     1  UNL1       -0.2689
     25 C         -10.1387  -17.6562   20.7081 C.3     1  UNL1        0.0748
     26 C         -11.3628  -17.5061   19.8542 C.3     1  UNL1        0.0480
     27 C         -11.6575  -16.0414   19.7199 C.3     1  UNL1        0.1278
     28 O         -12.7945  -15.4378   18.9499 O.3     1  UNL1       -0.3830
     29 C         -10.6156  -15.2864   20.4907 C.3     1  UNL1        0.1017
     30 H         -13.3211  -16.1441   18.5440 H       1  UNL1        0.2104
@<TRIPOS>BOND
     1     1     2    1
     2     2     3   am
     3     3     4    2
     4     3     5    1
     5     5     6    1
     6     6     8    1
     7     8     9   ar
     8     9    10   ar
     9    10    11   ar
    10    11    12   ar
    11    12    13   ar
    12    13    14    1
    13    14    15    3
    14     2    16    1
    15    16    23    1
    16    23    24    1
    17    24    25    1
    18    25    26    1
    19    26    27    1
    20    27    28    1
    21    27    29    1
    22    16    17    1
    23    17    18   ar
    24    18    19   ar
    25    19    20   ar
    26    20    21   ar
    27    21    22   ar
    28    13     8   ar
    29    29    24    1
    30    22    17   ar
    31     6     7    1
    32    28    30    1
@<TRIPOS>MOLECULE
*****
 30 32 0 0 0
SMALL
GASTEIGER

@<TRIPOS>ATOM
      1 C          -5.6331  -21.5071   19.7918 C.3     1  UNL1        0.1152
      2 N          -6.1725  -20.2168   20.3344 N.am    1  UNL1       -0.2729
      3 C          -7.5552  -19.7677   19.9651 C.2     1  UNL1        0.2459
      4 O          -8.3986  -20.6089   19.0533 O.2     1  UNL1       -0.2730
      5 C          -8.0947  -18.4775   20.5076 C.3     1  UNL1        0.1739
      6 N          -9.5363  -18.1202   20.2981 N.pl3   1  UNL1       -0.3247
      7 H          -9.8544  -17.8617   19.4029 H       1  UNL1        0.1473
      8 C         -10.4935  -18.1568   21.4525 C.ar    1  UNL1        0.0547
      9 C         -10.2249  -19.0579   22.6212 C.ar    1  UNL1        0.0150
     10 C         -11.1820  -19.0944   23.7755 C.ar    1  UNL1        0.0013
     11 C         -12.4077  -18.2299   23.7612 C.ar    1  UNL1        0.0008
     12 C         -12.6764  -17.3289   22.5925 C.ar    1  UNL1        0.0115
     13 C         -11.7192  -17.2924   21.4381 C.ar    1  UNL1        0.0815
     14 C         -11.9879  -16.3913   20.2693 C.1     1  UNL1        0.1017
     15 N         -12.2564  -15.4902   19.1006 N.1     1  UNL1       -0.1908
     16 C          -5.3292  -19.3757   21.2461 C.3     1  UNL1        0.1139
     17 C          -3.9904  -18.8807   20.7850 C.ar    1  UNL1       -0.0029
     18 C          -2.7884  -19.0354   21.6689 C.ar    1  UNL1       -0.0026
     19 C          -1.4496  -18.5405   21.2078 C.ar    1  UNL1       -0.0003
     20 C          -1.3127  -17.8908   19.8628 C.ar    1  UNL1       -0.0000
     21 C          -2.5147  -17.7360   18.9788 C.ar    1  UNL1       -0.0003
     22 C          -3.8535  -18.2310   19.4399 C.ar    1  UNL1       -0.0026
     23 C          -5.8247  -19.0295   22.6189 C.3     1  UNL1        0.0968
     24 N          -5.8252  -17.6015   23.0781 N.3     1  UNL1       -0.2689
     25 C          -4.6221  -16.8098   23.4974 C.3     1  UNL1        0.0748
     26 C          -5.0822  -15.4335   23.8771 C.3     1  UNL1        0.0480
     27 C          -6.5697  -15.3746   23.6925 C.3     1  UNL1        0.1278
     28 O          -7.4444  -14.1848   23.9555 O.3     1  UNL1       -0.3830
     29 C          -7.0288  -16.7145   23.1987 C.3     1  UNL1        0.1017
     30 H          -6.8994  -13.4456   24.2678 H       1  UNL1        0.2104
@<TRIPOS>BOND
     1     1     2    1
     2     2     3   am
     3     3     4    2
     4     3     5    1
     5     5     6    1
     6     6     8    1
     7     8     9   ar
     8     9    10   ar
     9    10    11   ar
    10    11    12   ar
    11    12    13   ar
    12    13    14    1
    13    14    15    3
    14     2    16    1
    15    16    23    1
    16    23    24    1
    17    24    25    1
    18    25    26    1
    19    26    27    1
    20    27    28    1
    21    27    29    1
    22    16    17    1
    23    17    18   ar
    24    18    19   ar
    25    19    20   ar
    26    20    21   ar
    27    21    22   ar
    28    13     8   ar
    29    29    24    1
    30    22    17   ar
    31     6     7    1
    32    28    30    1
@<TRIPOS>MOLECULE
*****
 30 32 0 0 0
SMALL
GASTEIGER

@<TRIPOS>ATOM
      1 C          -6.5180  -20.4691   20.7829 C.3     1  UNL1        0.1152
      2 N          -7.6334  -19.4674   20.7305 N.am    1  UNL1       -0.2729
      3 C          -8.5774  -19.4564   19.5649 C.2     1  UNL1        0.2459
      4 O          -8.4060  -20.4470   18.4516 O.2     1  UNL1       -0.2730
      5 C          -9.6928  -18.4548   19.5124 C.3     1  UNL1        0.1739
      6 N         -11.0781  -18.8526   19.9279 N.pl3   1  UNL1       -0.3247
      7 H         -11.5527  -19.5646   19.4411 H       1  UNL1        0.1473
      8 C         -11.7403  -18.1654   21.0853 C.ar    1  UNL1        0.0547
      9 C         -12.2764  -18.9730   22.2300 C.ar    1  UNL1        0.0150
     10 C         -12.9386  -18.2858   23.3873 C.ar    1  UNL1        0.0013
     11 C         -13.0647  -16.7912   23.3998 C.ar    1  UNL1        0.0008
     12 C         -12.5286  -15.9837   22.2551 C.ar    1  UNL1        0.0115
     13 C         -11.8664  -16.6708   21.0978 C.ar    1  UNL1        0.0815
     14 C         -11.3303  -15.8633   19.9530 C.1     1  UNL1        0.1017
     15 N         -10.7942  -15.0558   18.8082 N.1     1  UNL1       -0.1908
     16 C          -7.8048  -18.4769   21.8438 C.3     1  UNL1        0.1139
     17 C          -8.6463  -18.8260   23.0354 C.ar    1  UNL1       -0.0029
     18 C          -9.1700  -17.7400   23.9278 C.ar    1  UNL1       -0.0026
     19 C         -10.0115  -18.0891   25.1194 C.ar    1  UNL1       -0.0003
     20 C         -10.3294  -19.5242   25.4186 C.ar    1  UNL1       -0.0000
     21 C          -9.8058  -20.6102   24.5262 C.ar    1  UNL1       -0.0003
     22 C          -8.9642  -20.2611   23.3346 C.ar    1  UNL1       -0.0026
     23 C          -7.1346  -17.1371   21.7655 C.3     1  UNL1        0.0968
     24 N          -6.2881  -16.6542   22.9057 N.3     1  UNL1       -0.2689
     25 C          -4.9697  -17.2298   23.3305 C.3     1  UNL1        0.0748
     26 C          -4.4781  -16.4422   24.5087 C.3     1  UNL1        0.0480
     27 C          -5.4928  -15.3799   24.8121 C.3     1  UNL1        0.1278
     28 O          -5.4043  -14.3648   25.9128 O.3     1  UNL1       -0.3830
     29 C          -6.6114  -15.5109   23.8214 C.3     1  UNL1        0.1017
     30 H          -4.5814  -14.4969   26.4091 H       1  UNL1        0.2104
@<TRIPOS>BOND
     1     1     2    1
     2     2     3   am
     3     3     4    2
     4     3     5    1
     5     5     6    1
     6     6     8    1
     7     8     9   ar
     8     9    10   ar
     9    10    11   ar
    10    11    12   ar
    11    12    13   ar
    12    13    14    1
    13    14    15    3
    14     2    16    1
    15    16    23    1
    16    23    24    1
    17    24    25    1
    18    25    26    1
    19    26    27    1
    20    27    28    1
    21    27    29    1
    22    16    17    1
    23    17    18   ar
    24    18    19   ar
    25    19    20   ar
    26    20    21   ar
    27    21    22   ar
    28    13     8   ar
    29    29    24    1
    30    22    17   ar
    31     6     7    1
    32    28    30    1
@<TRIPOS>MOLECULE
*****
 30 32 0 0 0
SMALL
GASTEIGER

@<TRIPOS>ATOM
      1 C          -7.6152  -15.0263   24.1327 C.3     1  UNL1        0.1152
      2 N          -7.2262  -16.3149   23.4707 N.am    1  UNL1       -0.2729
      3 C          -5.7956  -16.7655   23.4892 C.2     1  UNL1        0.2459
      4 O          -4.7541  -15.9276   24.1698 O.2     1  UNL1       -0.2730
      5 C          -5.4065  -18.0540   22.8272 C.3     1  UNL1        0.1739
      6 N          -3.9716  -18.4909   22.8215 N.pl3   1  UNL1       -0.3247
      7 H          -3.5955  -18.9560   23.6034 H       1  UNL1        0.1473
      8 C          -3.1096  -18.2190   21.6243 C.ar    1  UNL1        0.0547
      9 C          -2.0390  -17.1707   21.6935 C.ar    1  UNL1        0.0150
     10 C          -1.1771  -16.8989   20.4963 C.ar    1  UNL1        0.0013
     11 C          -1.3858  -17.6754   19.2300 C.ar    1  UNL1        0.0008
     12 C          -2.4564  -18.7237   19.1608 C.ar    1  UNL1        0.0115
     13 C          -3.3183  -18.9955   20.3580 C.ar    1  UNL1        0.0815
     14 C          -4.3890  -20.0438   20.2889 C.1     1  UNL1        0.1017
     15 N          -5.4597  -21.0921   20.2197 N.1     1  UNL1       -0.1908
     16 C          -8.2677  -17.1527   22.7901 C.3     1  UNL1        0.1139
     17 C          -8.9511  -18.2564   23.5417 C.ar    1  UNL1       -0.0029
     18 C          -9.9875  -17.9299   24.5756 C.ar    1  UNL1       -0.0026
     19 C         -10.6709  -19.0335   25.3272 C.ar    1  UNL1       -0.0003
     20 C         -10.3179  -20.4637   25.0449 C.ar    1  UNL1       -0.0000
     21 C          -9.2814  -20.7904   24.0109 C.ar    1  UNL1       -0.0003
     22 C          -8.5980  -19.6867   23.2593 C.ar    1  UNL1       -0.0026
     23 C          -8.6259  -16.8869   21.3579 C.3     1  UNL1        0.0968
     24 N          -9.1678  -17.9935   20.5025 N.3     1  UNL1       -0.2689
     25 C         -10.6174  -18.2751   20.2392 C.3     1  UNL1        0.0748
     26 C         -10.7009  -19.4684   19.3342 C.3     1  UNL1        0.0480
     27 C          -9.3028  -19.9245   19.0383 C.3     1  UNL1        0.1278
     28 O          -8.9195  -21.0877   18.1724 O.3     1  UNL1       -0.3830
     29 C          -8.3553  -19.0129   19.7604 C.3     1  UNL1        0.1017
     30 H          -9.7207  -21.5101   17.8252 H       1  UNL1        0.2104
@<TRIPOS>BOND
     1     1     2    1
     2     2     3   am
     3     3     4    2
     4     3     5    1
     5     5     6    1
     6     6     8    1
     7     8     9   ar
     8     9    10   ar
     9    10    11   ar
    10    11    12   ar
    11    12    13   ar
    12    13    14    1
    13    14    15    3
    14     2    16    1
    15    16    23    1
    16    23    24    1
    17    24    25    1
    18    25    26    1
    19    26    27    1
    20    27    28    1
    21    27    29    1
    22    16    17    1
    23    17    18   ar
    24    18    19   ar
    25    19    20   ar
    26    20    21   ar
    27    21    22   ar
    28    13     8   ar
    29    29    24    1
    30    22    17   ar
    31     6     7    1
    32    28    30    1
@<TRIPOS>MOLECULE
*****
 30 32 0 0 0
SMALL
GASTEIGER

@<TRIPOS>ATOM
      1 C          -5.1885  -16.6873   23.0633 C.3     1  UNL1        0.1152
      2 N          -6.5525  -17.3095   23.1116 N.am    1  UNL1       -0.2729
      3 C          -7.6888  -16.5761   23.7604 C.2     1  UNL1        0.2459
      4 O          -7.4611  -15.2204   24.3608 O.2     1  UNL1       -0.2730
      5 C          -9.0528  -17.1982   23.8088 C.3     1  UNL1        0.1739
      6 N         -10.2724  -16.3481   23.6091 N.pl3   1  UNL1       -0.3247
      7 H         -10.6824  -15.8874   24.3765 H       1  UNL1        0.1473
      8 C         -10.8675  -16.2000   22.2401 C.ar    1  UNL1        0.0547
      9 C         -10.0835  -15.5316   21.1499 C.ar    1  UNL1        0.0150
     10 C         -10.6786  -15.3835   19.7810 C.ar    1  UNL1        0.0013
     11 C         -12.0576  -15.9038   19.5023 C.ar    1  UNL1        0.0008
     12 C         -12.8415  -16.5721   20.5926 C.ar    1  UNL1        0.0115
     13 C         -12.2465  -16.7203   21.9615 C.ar    1  UNL1        0.0815
     14 C         -13.0304  -17.3887   23.0518 C.1     1  UNL1        0.1017
     15 N         -13.8144  -18.0570   24.1420 N.1     1  UNL1       -0.1908
     16 C          -6.7802  -18.6651   22.5112 C.3     1  UNL1        0.1139
     17 C          -8.1372  -19.0368   21.9913 C.ar    1  UNL1       -0.0029
     18 C          -8.5232  -18.6868   20.5848 C.ar    1  UNL1       -0.0026
     19 C          -9.8802  -19.0585   20.0649 C.ar    1  UNL1       -0.0003
     20 C         -10.8513  -19.7802   20.9515 C.ar    1  UNL1       -0.0000
     21 C         -10.4653  -20.1302   22.3582 C.ar    1  UNL1       -0.0003
     22 C          -9.1083  -19.7585   22.8781 C.ar    1  UNL1       -0.0026
     23 C          -5.6508  -19.6491   22.4307 C.3     1  UNL1        0.0968
     24 N          -4.5254  -19.4217   21.4655 N.3     1  UNL1       -0.2689
     25 C          -4.6615  -19.2086   19.9870 C.3     1  UNL1        0.0748
     26 C          -3.2865  -19.0227   19.4170 C.3     1  UNL1        0.0480
     27 C          -2.3006  -19.1210   20.5432 C.3     1  UNL1        0.1278
     28 O          -0.8107  -18.9948   20.4243 O.3     1  UNL1       -0.3830
     29 C          -3.0663  -19.3676   21.8093 C.3     1  UNL1        0.1017
     30 H          -0.5725  -18.8377   19.4972 H       1  UNL1        0.2104
@<TRIPOS>BOND
     1     1     2    1
     2     2     3   am
     3     3     4    2
     4     3     5    1
     5     5     6    1
     6     6     8    1
     7     8     9   ar
     8     9    10   ar
     9    10    11   ar
    10    11    12   ar
    11    12    13   ar
    12    13    14    1
    13    14    15    3
    14     2    16    1
    15    16    23    1
    16    23    24    1
    17    24    25    1
    18    25    26    1
    19    26    27    1
    20    27    28    1
    21    27    29    1
    22    16    17    1
    23    17    18   ar
    24    18    19   ar
    25    19    20   ar
    26    20    21   ar
    27    21    22   ar
    28    13     8   ar
    29    29    24    1
    30    22    17   ar
    31     6     7    1
    32    28    30    1
