@<TRIPOS>MOLECULE
*****
 29 32 0 0 0
SMALL
GASTEIGER

@<TRIPOS>ATOM
      1 C          -6.5369  -16.5008   23.4468 C.3     1  UNL1        0.1351
      2 N          -7.2882  -17.4557   22.5672 N.ar    1  UNL1       -0.2760
      3 C          -8.7775  -17.3383   22.4329 C.ar    1  UNL1        0.2966
      4 O          -9.5156  -16.2660   23.1783 O.2     1  UNL1       -0.2636
      5 C          -9.5289  -18.2931   21.5532 C.ar    1  UNL1        0.2013
      6 C          -8.7909  -19.3653   20.8079 C.ar    1  UNL1        0.0470
      7 C          -7.3015  -19.4828   20.9421 C.ar    1  UNL1        0.0567
      8 C          -6.5635  -20.5550   20.1968 C.ar    1  UNL1        0.1049
      9 N          -5.0741  -20.6724   20.3310 N.ar    1  UNL1       -0.2122
     10 C          -4.3228  -19.7176   21.2107 C.ar    1  UNL1        0.2182
     11 N          -5.0608  -18.6453   21.9561 N.ar    1  UNL1       -0.1963
     12 C          -6.5501  -18.5279   21.8218 C.ar    1  UNL1        0.1506
     13 N          -2.8334  -19.8350   21.3450 N.pl3   1  UNL1       -0.3044
     14 H          -2.4305  -20.6869   21.6300 H       1  UNL1        0.1496
     15 C          -1.9579  -18.6546   21.0450 C.3     1  UNL1        0.0768
     16 C          -2.2446  -17.3271   21.6818 C.3     1  UNL1        0.0517
     17 C          -1.3691  -16.1466   21.3817 C.3     1  UNL1        0.1439
     18 O          -0.2069  -16.2936   20.4449 O.3     1  UNL1       -0.3537
     19 C           0.0798  -17.6211   19.8081 C.3     1  UNL1        0.1439
     20 C          -0.7957  -18.8016   20.1081 C.3     1  UNL1        0.0517
     21 O         -11.0183  -18.1757   21.4190 O.3     1  UNL1       -0.4464
     22 C         -11.8924  -18.2954   22.6320 C.ar    1  UNL1        0.1729
     23 C         -13.2434  -17.6439   22.6502 C.ar    1  UNL1        0.0421
     24 C         -14.1176  -17.7636   23.8632 C.ar    1  UNL1        0.0329
     25 C         -13.6407  -18.5348   25.0582 C.ar    1  UNL1        0.1426
     26 F         -14.5148  -18.6545   26.2712 F       1  UNL1       -0.2041
     27 C         -12.2897  -19.1863   25.0400 C.ar    1  UNL1        0.0624
     28 C         -11.4155  -19.0666   23.8269 C.ar    1  UNL1        0.1766
     29 F         -10.0645  -19.7180   23.8088 F       1  UNL1       -0.2009
@<TRIPOS>BOND
     1     1     2    1
     2     2     3   ar
     3     3     4    2
     4     3     5   ar
     5     5    21    1
     6    21    22    1
     7    22    23   ar
     8    23    24   ar
     9    24    25   ar
    10    25    26    1
    11    25    27   ar
    12    27    28   ar
    13    28    29    1
    14     5     6   ar
    15     6     7   ar
    16     7     8   ar
    17     8     9   ar
    18     9    10   ar
    19    10    13    1
    20    13    15    1
    21    15    16    1
    22    16    17    1
    23    17    18    1
    24    18    19    1
    25    19    20    1
    26    10    11   ar
    27    11    12   ar
    28    12     2   ar
    29    28    22   ar
    30    12     7   ar
    31    20    15    1
    32    13    14    1
@<TRIPOS>MOLECULE
*****
 29 32 0 0 0
SMALL
GASTEIGER

@<TRIPOS>ATOM
      1 C          -4.7087  -15.6114   23.8968 C.3     1  UNL1        0.1351
      2 N          -5.9340  -16.4031   23.5478 N.ar    1  UNL1       -0.2760
      3 C          -7.2902  -15.9005   23.9452 C.ar    1  UNL1        0.2966
      4 O          -7.4212  -14.6060   24.6917 O.2     1  UNL1       -0.2636
      5 C          -8.5155  -16.6922   23.5961 C.ar    1  UNL1        0.2013
      6 C          -8.3845  -17.9867   22.8496 C.ar    1  UNL1        0.0470
      7 C          -7.0283  -18.4894   22.4522 C.ar    1  UNL1        0.0567
      8 C          -6.8973  -19.7838   21.7057 C.ar    1  UNL1        0.1049
      9 N          -5.5411  -20.2865   21.3083 N.ar    1  UNL1       -0.2122
     10 C          -4.3158  -19.4947   21.6573 C.ar    1  UNL1        0.2182
     11 N          -4.4468  -18.2003   22.4038 N.ar    1  UNL1       -0.1963
     12 C          -5.8030  -17.6976   22.8012 C.ar    1  UNL1        0.1506
     13 N          -2.9596  -19.9974   21.2598 N.pl3   1  UNL1       -0.3044
     14 H          -2.6425  -20.8699   21.5877 H       1  UNL1        0.1496
     15 C          -2.0866  -19.1708   20.3629 C.3     1  UNL1        0.0768
     16 C          -2.5951  -18.7258   19.0238 C.3     1  UNL1        0.0517
     17 C          -1.7220  -17.8992   18.1268 C.3     1  UNL1        0.1439
     18 O          -0.3404  -17.5176   18.5690 O.3     1  UNL1       -0.3537
     19 C           0.1682  -17.9627   19.9081 C.3     1  UNL1        0.1439
     20 C          -0.7049  -18.7893   20.8051 C.3     1  UNL1        0.0517
     21 O          -9.8717  -16.1895   23.9936 O.3     1  UNL1       -0.4464
     22 C         -11.0989  -16.7328   23.3237 C.ar    1  UNL1        0.1729
     23 C         -11.6419  -16.0634   22.0961 C.ar    1  UNL1        0.0421
     24 C         -12.8691  -16.6066   21.4262 C.ar    1  UNL1        0.0329
     25 C         -13.5534  -17.8194   21.9839 C.ar    1  UNL1        0.1426
     26 F         -14.7806  -18.3626   21.3141 F       1  UNL1       -0.2041
     27 C         -13.0105  -18.4888   23.2116 C.ar    1  UNL1        0.0624
     28 C         -11.7832  -17.9455   23.8815 C.ar    1  UNL1        0.1766
     29 F         -11.2402  -18.6149   25.1091 F       1  UNL1       -0.2009
@<TRIPOS>BOND
     1     1     2    1
     2     2     3   ar
     3     3     4    2
     4     3     5   ar
     5     5    21    1
     6    21    22    1
     7    22    23   ar
     8    23    24   ar
     9    24    25   ar
    10    25    26    1
    11    25    27   ar
    12    27    28   ar
    13    28    29    1
    14     5     6   ar
    15     6     7   ar
    16     7     8   ar
    17     8     9   ar
    18     9    10   ar
    19    10    13    1
    20    13    15    1
    21    15    16    1
    22    16    17    1
    23    17    18    1
    24    18    19    1
    25    19    20    1
    26    10    11   ar
    27    11    12   ar
    28    12     2   ar
    29    28    22   ar
    30    12     7   ar
    31    20    15    1
    32    13    14    1
@<TRIPOS>MOLECULE
*****
 29 32 0 0 0
SMALL
GASTEIGER

@<TRIPOS>ATOM
      1 C           0.2358    3.6819   31.9672 C.3     1  UNL1        0.1351
      2 N           1.2910    2.8504   32.6344 N.ar    1  UNL1       -0.2760
      3 C           1.8044    3.2366   33.9898 C.ar    1  UNL1        0.2966
      4 O           1.2627    4.4543   34.6781 O.2     1  UNL1       -0.2636
      5 C           2.8596    2.4051   34.6570 C.ar    1  UNL1        0.2013
      6 C           3.4014    1.1874   33.9688 C.ar    1  UNL1        0.0470
      7 C           2.8880    0.8011   32.6133 C.ar    1  UNL1        0.0567
      8 C           3.4297   -0.4165   31.9250 C.ar    1  UNL1        0.1049
      9 N           2.9163   -0.8027   30.5696 N.ar    1  UNL1       -0.2122
     10 C           1.8611    0.0288   29.9024 C.ar    1  UNL1        0.2182
     11 N           1.3193    1.2465   30.5907 N.ar    1  UNL1       -0.1963
     12 C           1.8328    1.6327   31.9461 C.ar    1  UNL1        0.1506
     13 N           1.3476   -0.3574   28.5469 N.pl3   1  UNL1       -0.3044
     14 H           1.3158   -1.3058   28.2845 H       1  UNL1        0.1496
     15 C           0.8827    0.7012   27.5914 C.3     1  UNL1        0.0768
     16 C          -0.5591    1.1143   27.5733 C.3     1  UNL1        0.0517
     17 C          -1.0240    2.1730   26.6176 C.3     1  UNL1        0.1439
     18 O          -0.0470    2.8186   25.6803 O.3     1  UNL1       -0.3537
     19 C           1.3948    2.4054   25.6984 C.3     1  UNL1        0.1439
     20 C           1.8597    1.3468   26.6540 C.3     1  UNL1        0.0517
     21 O           3.3731    2.7913   36.0125 O.3     1  UNL1       -0.4464
     22 C           2.6535    2.3321   37.2459 C.ar    1  UNL1        0.1729
     23 C           1.6119    3.2082   37.8764 C.ar    1  UNL1        0.0421
     24 C           0.8923    2.7490   39.1098 C.ar    1  UNL1        0.0329
     25 C           1.2143    1.4137   39.7127 C.ar    1  UNL1        0.1426
     26 F           0.4947    0.9545   40.9461 F       1  UNL1       -0.2041
     27 C           2.2559    0.5376   39.0821 C.ar    1  UNL1        0.0624
     28 C           2.9755    0.9969   37.8487 C.ar    1  UNL1        0.1766
     29 F           4.0171    0.1208   37.2181 F       1  UNL1       -0.2009
@<TRIPOS>BOND
     1     1     2    1
     2     2     3   ar
     3     3     4    2
     4     3     5   ar
     5     5    21    1
     6    21    22    1
     7    22    23   ar
     8    23    24   ar
     9    24    25   ar
    10    25    26    1
    11    25    27   ar
    12    27    28   ar
    13    28    29    1
    14     5     6   ar
    15     6     7   ar
    16     7     8   ar
    17     8     9   ar
    18     9    10   ar
    19    10    13    1
    20    13    15    1
    21    15    16    1
    22    16    17    1
    23    17    18    1
    24    18    19    1
    25    19    20    1
    26    10    11   ar
    27    11    12   ar
    28    12     2   ar
    29    28    22   ar
    30    12     7   ar
    31    20    15    1
    32    13    14    1
@<TRIPOS>MOLECULE
*****
 29 32 0 0 0
SMALL
GASTEIGER

@<TRIPOS>ATOM
      1 C           5.0288   -3.9879   19.1171 C.3     1  UNL1        0.1351
      2 N           5.2221   -3.4232   20.4933 N.ar    1  UNL1       -0.2760
      3 C           6.3872   -3.8649   21.3283 C.ar    1  UNL1        0.2966
      4 O           7.3591   -4.8714   20.7873 O.2     1  UNL1       -0.2636
      5 C           6.5806   -3.3003   22.7045 C.ar    1  UNL1        0.2013
      6 C           5.6088   -2.2939   23.2456 C.ar    1  UNL1        0.0470
      7 C           4.4436   -1.8522   22.4105 C.ar    1  UNL1        0.0567
      8 C           3.4718   -0.8458   22.9516 C.ar    1  UNL1        0.1049
      9 N           2.3067   -0.4041   22.1166 N.ar    1  UNL1       -0.2122
     10 C           2.1134   -0.9687   20.7404 C.ar    1  UNL1        0.2182
     11 N           3.0852   -1.9751   20.1993 N.ar    1  UNL1       -0.1963
     12 C           4.2503   -2.4168   21.0344 C.ar    1  UNL1        0.1506
     13 N           0.9482   -0.5269   19.9053 N.pl3   1  UNL1       -0.3044
     14 H           0.3399   -1.1960   19.5159 H       1  UNL1        0.1496
     15 C           0.7099    0.9341   19.6636 C.3     1  UNL1        0.0768
     16 C           1.4656    1.6485   18.5825 C.3     1  UNL1        0.0517
     17 C           1.2272    3.1096   18.3408 C.3     1  UNL1        0.1439
     18 O           0.2333    3.8563   19.1800 O.3     1  UNL1       -0.3537
     19 C          -0.5224    3.1419   20.2611 C.3     1  UNL1        0.1439
     20 C          -0.2841    1.6809   20.5028 C.3     1  UNL1        0.0517
     21 O           7.7457   -3.7421   23.5396 O.3     1  UNL1       -0.4464
     22 C           7.6459   -4.9899   24.3659 C.ar    1  UNL1        0.1729
     23 C           8.2629   -6.2660   23.8749 C.ar    1  UNL1        0.0421
     24 C           8.1631   -7.5138   24.7012 C.ar    1  UNL1        0.0329
     25 C           7.4463   -7.4857   26.0186 C.ar    1  UNL1        0.1426
     26 F           7.3465   -8.7336   26.8449 F       1  UNL1       -0.2041
     27 C           6.8294   -6.2097   26.5096 C.ar    1  UNL1        0.0624
     28 C           6.9292   -4.9618   25.6832 C.ar    1  UNL1        0.1766
     29 F           6.3122   -3.6857   26.1743 F       1  UNL1       -0.2009
@<TRIPOS>BOND
     1     1     2    1
     2     2     3   ar
     3     3     4    2
     4     3     5   ar
     5     5    21    1
     6    21    22    1
     7    22    23   ar
     8    23    24   ar
     9    24    25   ar
    10    25    26    1
    11    25    27   ar
    12    27    28   ar
    13    28    29    1
    14     5     6   ar
    15     6     7   ar
    16     7     8   ar
    17     8     9   ar
    18     9    10   ar
    19    10    13    1
    20    13    15    1
    21    15    16    1
    22    16    17    1
    23    17    18    1
    24    18    19    1
    25    19    20    1
    26    10    11   ar
    27    11    12   ar
    28    12     2   ar
    29    28    22   ar
    30    12     7   ar
    31    20    15    1
    32    13    14    1
@<TRIPOS>MOLECULE
*****
 29 32 0 0 0
SMALL
GASTEIGER

@<TRIPOS>ATOM
      1 C         -14.8094   -3.4107   19.5881 C.3     1  UNL1        0.1351
      2 N         -14.5976   -1.9752   19.2082 N.ar    1  UNL1       -0.2760
      3 C         -15.6800   -0.9665   19.4549 C.ar    1  UNL1        0.2966
      4 O         -16.9743   -1.3933   20.0816 O.2     1  UNL1       -0.2636
      5 C         -15.4681    0.4691   19.0750 C.ar    1  UNL1        0.2013
      6 C         -14.1739    0.8960   18.4484 C.ar    1  UNL1        0.0470
      7 C         -13.0914   -0.1127   18.2016 C.ar    1  UNL1        0.0567
      8 C         -11.7972    0.3141   17.5750 C.ar    1  UNL1        0.1049
      9 N         -10.7148   -0.6945   17.3283 N.ar    1  UNL1       -0.2122
     10 C         -10.9266   -2.1301   17.7082 C.ar    1  UNL1        0.2182
     11 N         -12.2208   -2.5570   18.3348 N.ar    1  UNL1       -0.1963
     12 C         -13.3032   -1.5483   18.5815 C.ar    1  UNL1        0.1506
     13 N          -9.8441   -3.1388   17.4614 N.pl3   1  UNL1       -0.3044
     14 H          -8.9383   -2.8393   17.2183 H       1  UNL1        0.1496
     15 C         -10.1417   -4.6037   17.5850 C.3     1  UNL1        0.0768
     16 C         -10.9225   -5.3036   16.5123 C.3     1  UNL1        0.0517
     17 C         -11.2201   -6.7686   16.6359 C.3     1  UNL1        0.1439
     18 O         -10.7369   -7.5337   17.8322 O.3     1  UNL1       -0.3537
     19 C          -9.9561   -6.8339   18.9049 C.3     1  UNL1        0.1439
     20 C          -9.6585   -5.3689   18.7813 C.3     1  UNL1        0.0517
     21 O         -16.5506    1.4778   19.3218 O.3     1  UNL1       -0.4464
     22 C         -16.5896    2.2346   20.6163 C.ar    1  UNL1        0.1729
     23 C         -17.3405    1.6767   21.7889 C.ar    1  UNL1        0.0421
     24 C         -17.3794    2.4335   23.0833 C.ar    1  UNL1        0.0329
     25 C         -16.6676    3.7483   23.2052 C.ar    1  UNL1        0.1426
     26 F         -16.7066    4.5051   24.4997 F       1  UNL1       -0.2041
     27 C         -15.9168    4.3061   22.0326 C.ar    1  UNL1        0.0624
     28 C         -15.8778    3.5492   20.7381 C.ar    1  UNL1        0.1766
     29 F         -15.1270    4.1071   19.5655 F       1  UNL1       -0.2009
@<TRIPOS>BOND
     1     1     2    1
     2     2     3   ar
     3     3     4    2
     4     3     5   ar
     5     5    21    1
     6    21    22    1
     7    22    23   ar
     8    23    24   ar
     9    24    25   ar
    10    25    26    1
    11    25    27   ar
    12    27    28   ar
    13    28    29    1
    14     5     6   ar
    15     6     7   ar
    16     7     8   ar
    17     8     9   ar
    18     9    10   ar
    19    10    13    1
    20    13    15    1
    21    15    16    1
    22    16    17    1
    23    17    18    1
    24    18    19    1
    25    19    20    1
    26    10    11   ar
    27    11    12   ar
    28    12     2   ar
    29    28    22   ar
    30    12     7   ar
    31    20    15    1
    32    13    14    1
@<TRIPOS>MOLECULE
*****
 29 32 0 0 0
SMALL
GASTEIGER

@<TRIPOS>ATOM
      1 C          -0.6653    2.5573   20.7013 C.3     1  UNL1        0.1351
      2 N           0.4611    1.5713   20.7971 N.ar    1  UNL1       -0.2760
      3 C           1.0068    0.9329   19.5543 C.ar    1  UNL1        0.2966
      4 O           0.4260    1.2804   18.2156 O.2     1  UNL1       -0.2636
      5 C           2.1332   -0.0530   19.6502 C.ar    1  UNL1        0.2013
      6 C           2.7139   -0.4005   20.9888 C.ar    1  UNL1        0.0470
      7 C           2.1682    0.2379   22.2317 C.ar    1  UNL1        0.0567
      8 C           2.7490   -0.1096   23.5703 C.ar    1  UNL1        0.1049
      9 N           2.2033    0.5289   24.8131 N.ar    1  UNL1       -0.2122
     10 C           1.0769    1.5148   24.7173 C.ar    1  UNL1        0.2182
     11 N           0.4962    1.8623   23.3787 N.ar    1  UNL1       -0.1963
     12 C           1.0418    1.2239   22.1359 C.ar    1  UNL1        0.1506
     13 N           0.5312    2.1532   25.9602 N.pl3   1  UNL1       -0.3044
     14 H           0.1932    3.0774   25.9312 H       1  UNL1        0.1496
     15 C           0.5005    1.3835   27.2472 C.3     1  UNL1        0.0768
     16 C           1.6939    1.3936   28.1559 C.3     1  UNL1        0.0517
     17 C           1.6632    0.6238   29.4430 C.3     1  UNL1        0.1439
     18 O           0.4390   -0.1560   29.8214 O.3     1  UNL1       -0.3537
     19 C          -0.7544   -0.1661   28.9128 C.3     1  UNL1        0.1439
     20 C          -0.7237    0.6036   27.6257 C.3     1  UNL1        0.0517
     21 O           2.6788   -0.6914   18.4072 O.3     1  UNL1       -0.4464
     22 C           4.0971   -1.1787   18.3750 C.ar    1  UNL1        0.1729
     23 C           5.2135   -0.2190   18.0879 C.ar    1  UNL1        0.0421
     24 C           6.6318   -0.7062   18.0556 C.ar    1  UNL1        0.0329
     25 C           6.9337   -2.1533   18.3106 C.ar    1  UNL1        0.1426
     26 F           8.3519   -2.6406   18.2784 F       1  UNL1       -0.2041
     27 C           5.8172   -3.1130   18.5978 C.ar    1  UNL1        0.0624
     28 C           4.3989   -2.6257   18.6300 C.ar    1  UNL1        0.1766
     29 F           3.2824   -3.5854   18.9172 F       1  UNL1       -0.2009
@<TRIPOS>BOND
     1     1     2    1
     2     2     3   ar
     3     3     4    2
     4     3     5   ar
     5     5    21    1
     6    21    22    1
     7    22    23   ar
     8    23    24   ar
     9    24    25   ar
    10    25    26    1
    11    25    27   ar
    12    27    28   ar
    13    28    29    1
    14     5     6   ar
    15     6     7   ar
    16     7     8   ar
    17     8     9   ar
    18     9    10   ar
    19    10    13    1
    20    13    15    1
    21    15    16    1
    22    16    17    1
    23    17    18    1
    24    18    19    1
    25    19    20    1
    26    10    11   ar
    27    11    12   ar
    28    12     2   ar
    29    28    22   ar
    30    12     7   ar
    31    20    15    1
    32    13    14    1
@<TRIPOS>MOLECULE
*****
 29 32 0 0 0
SMALL
GASTEIGER

@<TRIPOS>ATOM
      1 C           4.6341   -0.8087   32.2782 C.3     1  UNL1        0.1351
      2 N           3.7608    0.2974   32.7919 N.ar    1  UNL1       -0.2760
      3 C           4.0675    0.9445   34.1098 C.ar    1  UNL1        0.2966
      4 O           5.2476    0.4856   34.9142 O.2     1  UNL1       -0.2636
      5 C           3.1942    2.0506   34.6235 C.ar    1  UNL1        0.2013
      6 C           2.0142    2.5095   33.8193 C.ar    1  UNL1        0.0470
      7 C           1.7074    1.8624   32.5012 C.ar    1  UNL1        0.0567
      8 C           0.5274    2.3213   31.6970 C.ar    1  UNL1        0.1049
      9 N           0.2207    1.6741   30.3790 N.ar    1  UNL1       -0.2122
     10 C           1.0940    0.5680   29.8653 C.ar    1  UNL1        0.2182
     11 N           2.2740    0.1091   30.6696 N.ar    1  UNL1       -0.1963
     12 C           2.5807    0.7563   31.9875 C.ar    1  UNL1        0.1506
     13 N           0.7873   -0.0791   28.5473 N.pl3   1  UNL1       -0.3044
     14 H           0.6183   -1.0480   28.5021 H       1  UNL1        0.1496
     15 C           0.7379    0.7498   27.2982 C.3     1  UNL1        0.0768
     16 C           1.9886    0.9850   26.5041 C.3     1  UNL1        0.0517
     17 C           1.9391    1.8140   25.2550 C.3     1  UNL1        0.1439
     18 O           0.6391    2.4079   24.7999 O.3     1  UNL1       -0.3537
     19 C          -0.6116    2.1727   25.5939 C.3     1  UNL1        0.1439
     20 C          -0.5622    1.3437   26.8430 C.3     1  UNL1        0.0517
     21 O           3.5009    2.6978   35.9416 O.3     1  UNL1       -0.4464
     22 C           2.7409    2.2943   37.1701 C.ar    1  UNL1        0.1729
     23 C           3.0943    1.0254   37.8878 C.ar    1  UNL1        0.0421
     24 C           2.3343    0.6219   39.1164 C.ar    1  UNL1        0.0329
     25 C           1.2207    1.4873   39.6274 C.ar    1  UNL1        0.1426
     26 F           0.4606    1.0839   40.8559 F       1  UNL1       -0.2041
     27 C           0.8672    2.7562   38.9097 C.ar    1  UNL1        0.0624
     28 C           1.6274    3.1597   37.6811 C.ar    1  UNL1        0.1766
     29 F           1.2739    4.4286   36.9634 F       1  UNL1       -0.2009
@<TRIPOS>BOND
     1     1     2    1
     2     2     3   ar
     3     3     4    2
     4     3     5   ar
     5     5    21    1
     6    21    22    1
     7    22    23   ar
     8    23    24   ar
     9    24    25   ar
    10    25    26    1
    11    25    27   ar
    12    27    28   ar
    13    28    29    1
    14     5     6   ar
    15     6     7   ar
    16     7     8   ar
    17     8     9   ar
    18     9    10   ar
    19    10    13    1
    20    13    15    1
    21    15    16    1
    22    16    17    1
    23    17    18    1
    24    18    19    1
    25    19    20    1
    26    10    11   ar
    27    11    12   ar
    28    12     2   ar
    29    28    22   ar
    30    12     7   ar
    31    20    15    1
    32    13    14    1
@<TRIPOS>MOLECULE
*****
 29 32 0 0 0
SMALL
GASTEIGER

@<TRIPOS>ATOM
      1 C         -15.2602   -4.1593   20.2472 C.3     1  UNL1        0.1351
      2 N         -15.1582   -2.7560   19.7273 N.ar    1  UNL1       -0.2760
      3 C         -16.3748   -1.8793   19.6910 C.ar    1  UNL1        0.2966
      4 O         -17.6935   -2.4059   20.1747 O.2     1  UNL1       -0.2636
      5 C         -16.2728   -0.4760   19.1710 C.ar    1  UNL1        0.2013
      6 C         -14.9543    0.0506   18.6873 C.ar    1  UNL1        0.0470
      7 C         -13.7376   -0.8261   18.7236 C.ar    1  UNL1        0.0567
      8 C         -12.4190   -0.2994   18.2399 C.ar    1  UNL1        0.1049
      9 N         -11.2025   -1.1761   18.2761 N.ar    1  UNL1       -0.2122
     10 C         -11.3044   -2.5794   18.7961 C.ar    1  UNL1        0.2182
     11 N         -12.6230   -3.1060   19.2798 N.ar    1  UNL1       -0.1963
     12 C         -13.8396   -2.2294   19.2435 C.ar    1  UNL1        0.1506
     13 N         -10.0878   -3.4561   18.8324 N.pl3   1  UNL1       -0.3044
     14 H          -9.2198   -3.0824   19.1085 H       1  UNL1        0.1496
     15 C         -10.1935   -4.9021   18.4479 C.3     1  UNL1        0.0768
     16 C          -9.4919   -5.9480   19.2626 C.3     1  UNL1        0.0517
     17 C          -9.5978   -7.3941   18.8781 C.3     1  UNL1        0.1439
     18 O         -10.4051   -7.7941   17.6789 O.3     1  UNL1       -0.3537
     19 C         -11.1067   -6.7482   16.8642 C.3     1  UNL1        0.1439
     20 C         -11.0010   -5.3022   17.2487 C.3     1  UNL1        0.0517
     21 O         -17.4895    0.4007   19.1347 O.3     1  UNL1       -0.4464
     22 C         -17.9973    1.0314   20.3973 C.ar    1  UNL1        0.1729
     23 C         -17.0290    1.5273   21.4301 C.ar    1  UNL1        0.0421
     24 C         -17.5368    2.1581   22.6927 C.ar    1  UNL1        0.0329
     25 C         -19.0129    2.2930   22.9226 C.ar    1  UNL1        0.1426
     26 F         -19.5207    2.9238   24.1852 F       1  UNL1       -0.2041
     27 C         -19.9812    1.7972   21.8899 C.ar    1  UNL1        0.0624
     28 C         -19.4734    1.1664   20.6272 C.ar    1  UNL1        0.1766
     29 F         -20.4417    0.6705   19.5945 F       1  UNL1       -0.2009
@<TRIPOS>BOND
     1     1     2    1
     2     2     3   ar
     3     3     4    2
     4     3     5   ar
     5     5    21    1
     6    21    22    1
     7    22    23   ar
     8    23    24   ar
     9    24    25   ar
    10    25    26    1
    11    25    27   ar
    12    27    28   ar
    13    28    29    1
    14     5     6   ar
    15     6     7   ar
    16     7     8   ar
    17     8     9   ar
    18     9    10   ar
    19    10    13    1
    20    13    15    1
    21    15    16    1
    22    16    17    1
    23    17    18    1
    24    18    19    1
    25    19    20    1
    26    10    11   ar
    27    11    12   ar
    28    12     2   ar
    29    28    22   ar
    30    12     7   ar
    31    20    15    1
    32    13    14    1
@<TRIPOS>MOLECULE
*****
 29 32 0 0 0
SMALL
GASTEIGER

@<TRIPOS>ATOM
      1 C           7.7748   -4.4478   22.5109 C.3     1  UNL1        0.1351
      2 N           6.4828   -3.6876   22.5651 N.ar    1  UNL1       -0.2760
      3 C           5.5908   -3.6379   21.3602 C.ar    1  UNL1        0.2966
      4 O           5.9906   -4.3485   20.1011 O.2     1  UNL1       -0.2636
      5 C           4.2988   -2.8777   21.4144 C.ar    1  UNL1        0.2013
      6 C           3.8990   -2.1671   22.6734 C.ar    1  UNL1        0.0470
      7 C           4.7910   -2.2168   23.8783 C.ar    1  UNL1        0.0567
      8 C           4.3912   -1.5062   25.1374 C.ar    1  UNL1        0.1049
      9 N           5.2832   -1.5559   26.3422 N.ar    1  UNL1       -0.2122
     10 C           6.5752   -2.3162   26.2880 C.ar    1  UNL1        0.2182
     11 N           6.9750   -3.0267   25.0290 N.ar    1  UNL1       -0.1963
     12 C           6.0830   -2.9770   23.8242 C.ar    1  UNL1        0.1506
     13 N           7.4672   -2.3658   27.4930 N.pl3   1  UNL1       -0.3044
     14 H           8.2029   -1.7185   27.5878 H       1  UNL1        0.1496
     15 C           7.2384   -3.4018   28.5533 C.3     1  UNL1        0.0768
     16 C           6.8435   -2.9828   29.9384 C.3     1  UNL1        0.0517
     17 C           6.6147   -4.0188   30.9988 C.3     1  UNL1        0.1439
     18 O           6.7808   -5.4738   30.6741 O.3     1  UNL1       -0.3537
     19 C           7.1758   -5.8928   29.2890 C.3     1  UNL1        0.1439
     20 C           7.4046   -4.8568   28.2287 C.3     1  UNL1        0.0517
     21 O           3.4067   -2.8280   20.2094 O.3     1  UNL1       -0.4464
     22 C           2.9251   -1.5071   19.6868 C.ar    1  UNL1        0.1729
     23 C           1.5755   -0.9891   20.0871 C.ar    1  UNL1        0.0421
     24 C           1.0939    0.3318   19.5645 C.ar    1  UNL1        0.0329
     25 C           1.9618    1.1348   18.6415 C.ar    1  UNL1        0.1426
     26 F           1.4802    2.4557   18.1188 F       1  UNL1       -0.2041
     27 C           3.3114    0.6168   18.2411 C.ar    1  UNL1        0.0624
     28 C           3.7930   -0.7042   18.7638 C.ar    1  UNL1        0.1766
     29 F           5.1426   -1.2222   18.3635 F       1  UNL1       -0.2009
@<TRIPOS>BOND
     1     1     2    1
     2     2     3   ar
     3     3     4    2
     4     3     5   ar
     5     5    21    1
     6    21    22    1
     7    22    23   ar
     8    23    24   ar
     9    24    25   ar
    10    25    26    1
    11    25    27   ar
    12    27    28   ar
    13    28    29    1
    14     5     6   ar
    15     6     7   ar
    16     7     8   ar
    17     8     9   ar
    18     9    10   ar
    19    10    13    1
    20    13    15    1
    21    15    16    1
    22    16    17    1
    23    17    18    1
    24    18    19    1
    25    19    20    1
    26    10    11   ar
    27    11    12   ar
    28    12     2   ar
    29    28    22   ar
    30    12     7   ar
    31    20    15    1
    32    13    14    1
