@<TRIPOS>MOLECULE
*****
 21 23 0 0 0
SMALL
GASTEIGER

@<TRIPOS>ATOM
      1 C          -7.8782  -19.1573   21.7190 C.2     1  UNL1       -0.0242
      2 C          -8.5009  -19.4636   20.3892 C.2     1  UNL1       -0.0420
      3 C          -7.3972  -19.7645   19.4190 C.3     1  UNL1        0.0480
      4 C          -6.0925  -19.6442   20.1492 C.ar    1  UNL1       -0.0184
      5 C          -4.6721  -19.8279   19.7033 C.ar    1  UNL1       -0.0040
      6 C          -3.5491  -19.6363   20.6790 C.ar    1  UNL1       -0.0003
      7 C          -3.8464  -19.2611   22.1005 C.ar    1  UNL1       -0.0000
      8 C          -5.2667  -19.0774   22.5464 C.ar    1  UNL1       -0.0006
      9 C          -6.3898  -19.2690   21.5707 C.ar    1  UNL1       -0.0078
     10 C          -9.4862  -19.8210   23.6489 C.3     1  UNL1        0.0116
     11 C          -8.6147  -18.8019   22.9765 C.3     1  UNL1        0.0681
     12 C          -8.4799  -17.4274   23.5616 C.ar    1  UNL1        0.0919
     13 N          -7.5928  -16.3330   23.0466 N.ar    1  UNL1       -0.2408
     14 C          -7.7732  -15.1351   23.9313 C.ar    1  UNL1        0.1061
     15 C          -8.7717  -15.4892   24.9931 C.ar    1  UNL1        0.0572
     16 S          -9.2086  -16.9059   24.7646 S.2     1  UNL1       -0.0699
     17 C          -9.9694  -19.4682   20.0833 C.3     1  UNL1        0.0394
     18 C         -10.6790  -18.1789   19.7930 C.3     1  UNL1        0.0765
     19 N         -11.2184  -17.3494   20.9204 N.3     1  UNL1       -0.2700
     20 C         -12.2408  -17.9267   21.8539 C.3     1  UNL1        0.0897
     21 C         -10.7354  -15.9426   21.1142 C.3     1  UNL1        0.0897
@<TRIPOS>BOND
     1    11    10    1
     2    11     1    1
     3     1     2    2
     4     2    17    1
     5    17    18    1
     6    18    19    1
     7    19    20    1
     8    19    21    1
     9     2     3    1
    10     3     4    1
    11     4     5   ar
    12     5     6   ar
    13     6     7   ar
    14     7     8   ar
    15     8     9   ar
    16    11    12    1
    17    12    13   ar
    18    13    14   ar
    19    14    15   ar
    20    15    16   ar
    21     9     1    1
    22    16    12   ar
    23     9     4   ar
@<TRIPOS>MOLECULE
*****
 21 23 0 0 0
SMALL
GASTEIGER

@<TRIPOS>ATOM
      1 C          -8.6860  -17.2142   23.9185 C.2     1  UNL1       -0.0242
      2 C          -9.7361  -17.9866   24.6605 C.2     1  UNL1       -0.0420
      3 C          -9.5713  -17.7044   26.1244 C.3     1  UNL1        0.0480
      4 C          -8.4194  -16.7576   26.2872 C.ar    1  UNL1       -0.0184
      5 C          -7.7980  -16.1321   27.5008 C.ar    1  UNL1       -0.0040
      6 C          -6.6294  -15.2038   27.3509 C.ar    1  UNL1       -0.0003
      7 C          -6.0822  -14.9008   25.9875 C.ar    1  UNL1       -0.0000
      8 C          -6.7036  -15.5262   24.7740 C.ar    1  UNL1       -0.0006
      9 C          -7.8722  -16.4546   24.9239 C.ar    1  UNL1       -0.0078
     10 C          -9.1239  -16.1338   21.5966 C.3     1  UNL1        0.0116
     11 C          -8.4849  -17.2033   22.4321 C.3     1  UNL1        0.0681
     12 C          -7.6449  -18.2618   21.7811 C.ar    1  UNL1        0.0919
     13 N          -6.8500  -18.1042   20.5189 N.ar    1  UNL1       -0.2408
     14 C          -6.1661  -19.4088   20.2357 C.ar    1  UNL1        0.1061
     15 C          -6.5384  -20.3728   21.3228 C.ar    1  UNL1        0.0572
     16 S          -7.4524  -19.6640   22.2780 S.2     1  UNL1       -0.0699
     17 C         -10.7696  -18.8838   24.0464 C.3     1  UNL1        0.0394
     18 C         -11.9281  -18.2920   23.2997 C.3     1  UNL1        0.0765
     19 N         -11.9175  -18.2621   21.8001 N.3     1  UNL1       -0.2700
     20 C         -11.2207  -19.3469   21.0332 C.3     1  UNL1        0.0897
     21 C         -12.6035  -17.1476   21.0672 C.3     1  UNL1        0.0897
@<TRIPOS>BOND
     1    11    10    1
     2    11     1    1
     3     1     2    2
     4     2    17    1
     5    17    18    1
     6    18    19    1
     7    19    20    1
     8    19    21    1
     9     2     3    1
    10     3     4    1
    11     4     5   ar
    12     5     6   ar
    13     6     7   ar
    14     7     8   ar
    15     8     9   ar
    16    11    12    1
    17    12    13   ar
    18    13    14   ar
    19    14    15   ar
    20    15    16   ar
    21     9     1    1
    22    16    12   ar
    23     9     4   ar
@<TRIPOS>MOLECULE
*****
 21 23 0 0 0
SMALL
GASTEIGER

@<TRIPOS>ATOM
      1 C          -8.3081  -18.3759   22.3627 C.2     1  UNL1       -0.0242
      2 C          -7.7812  -17.2704   23.2288 C.2     1  UNL1       -0.0420
      3 C          -6.2837  -17.2894   23.1448 C.3     1  UNL1        0.0480
      4 C          -5.8851  -18.4067   22.2267 C.ar    1  UNL1       -0.0184
      5 C          -4.5445  -18.8993   21.7684 C.ar    1  UNL1       -0.0040
      6 C          -4.4550  -20.0635   20.8268 C.ar    1  UNL1       -0.0003
      7 C          -5.7062  -20.7350   20.3435 C.ar    1  UNL1       -0.0000
      8 C          -7.0468  -20.2423   20.8017 C.ar    1  UNL1       -0.0006
      9 C          -7.1362  -19.0782   21.7434 C.ar    1  UNL1       -0.0078
     10 C         -10.2981  -20.0182   22.6679 C.3     1  UNL1        0.0116
     11 C          -9.7532  -18.7190   22.1527 C.3     1  UNL1        0.0681
     12 C         -10.6533  -17.7630   21.4277 C.ar    1  UNL1        0.0919
     13 N         -10.3435  -17.0681   20.1351 N.ar    1  UNL1       -0.2408
     14 C         -11.5201  -16.2097   19.7765 C.ar    1  UNL1        0.1061
     15 C         -12.5573  -16.3740   20.8476 C.ar    1  UNL1        0.0572
     16 S         -12.0216  -17.3341   21.8682 S.2     1  UNL1       -0.0699
     17 C          -8.6068  -16.3138   24.0370 C.3     1  UNL1        0.0394
     18 C          -7.9415  -15.2018   24.7926 C.3     1  UNL1        0.0765
     19 N          -7.3084  -15.4742   26.1249 N.3     1  UNL1       -0.2700
     20 C          -8.1528  -15.9325   27.2769 C.3     1  UNL1        0.0897
     21 C          -5.8309  -15.2883   26.3052 C.3     1  UNL1        0.0897
@<TRIPOS>BOND
     1    11    10    1
     2    11     1    1
     3     1     2    2
     4     2    17    1
     5    17    18    1
     6    18    19    1
     7    19    20    1
     8    19    21    1
     9     2     3    1
    10     3     4    1
    11     4     5   ar
    12     5     6   ar
    13     6     7   ar
    14     7     8   ar
    15     8     9   ar
    16    11    12    1
    17    12    13   ar
    18    13    14   ar
    19    14    15   ar
    20    15    16   ar
    21     9     1    1
    22    16    12   ar
    23     9     4   ar
@<TRIPOS>MOLECULE
*****
 21 23 0 0 0
SMALL
GASTEIGER

@<TRIPOS>ATOM
      1 C          -8.5632  -17.2563   24.0871 C.2     1  UNL1       -0.0242
      2 C          -7.5282  -17.1667   23.0050 C.2     1  UNL1       -0.0420
      3 C          -6.3921  -16.3327   23.5182 C.3     1  UNL1        0.0480
      4 C          -6.7248  -15.9067   24.9175 C.ar    1  UNL1       -0.0184
      5 C          -5.9793  -15.0729   25.9169 C.ar    1  UNL1       -0.0040
      6 C          -6.5756  -14.8098   27.2679 C.ar    1  UNL1       -0.0003
      7 C          -7.9175  -15.3807   27.6194 C.ar    1  UNL1       -0.0000
      8 C          -8.6630  -16.2145   26.6200 C.ar    1  UNL1       -0.0006
      9 C          -8.0666  -16.4776   25.2691 C.ar    1  UNL1       -0.0078
     10 C         -10.1366  -19.1467   24.9243 C.3     1  UNL1        0.0116
     11 C          -9.8660  -17.9949   24.0021 C.3     1  UNL1        0.0681
     12 C         -10.8980  -17.5819   22.9952 C.ar    1  UNL1        0.0919
     13 N         -11.1989  -16.1762   22.5667 N.ar    1  UNL1       -0.2408
     14 C         -12.2973  -16.2276   21.5466 C.ar    1  UNL1        0.1061
     15 C         -12.6755  -17.6650   21.3446 C.ar    1  UNL1        0.0572
     16 S         -11.8107  -18.5020   22.2399 S.2     1  UNL1       -0.0699
     17 C          -7.6144  -17.8001   21.6480 C.3     1  UNL1        0.0394
     18 C          -6.8955  -19.0878   21.3743 C.3     1  UNL1        0.0765
     19 N          -5.4075  -19.0907   21.1856 N.3     1  UNL1       -0.2700
     20 C          -4.8253  -18.9316   19.8123 C.3     1  UNL1        0.0897
     21 C          -4.5016  -19.2526   22.3701 C.3     1  UNL1        0.0897
@<TRIPOS>BOND
     1    11    10    1
     2    11     1    1
     3     1     2    2
     4     2    17    1
     5    17    18    1
     6    18    19    1
     7    19    20    1
     8    19    21    1
     9     2     3    1
    10     3     4    1
    11     4     5   ar
    12     5     6   ar
    13     6     7   ar
    14     7     8   ar
    15     8     9   ar
    16    11    12    1
    17    12    13   ar
    18    13    14   ar
    19    14    15   ar
    20    15    16   ar
    21     9     1    1
    22    16    12   ar
    23     9     4   ar
@<TRIPOS>MOLECULE
*****
 21 23 0 0 0
SMALL
GASTEIGER

@<TRIPOS>ATOM
      1 C          -8.6588  -17.2119   24.1469 C.2     1  UNL1       -0.0242
      2 C          -7.6558  -17.1457   23.0335 C.2     1  UNL1       -0.0420
      3 C          -6.4852  -16.3389   23.5116 C.3     1  UNL1        0.0480
      4 C          -6.7647  -15.9064   24.9204 C.ar    1  UNL1       -0.0184
      5 C          -5.9696  -15.0909   25.8965 C.ar    1  UNL1       -0.0040
      6 C          -6.5178  -14.8151   27.2652 C.ar    1  UNL1       -0.0003
      7 C          -7.8612  -15.3546   27.6578 C.ar    1  UNL1       -0.0000
      8 C          -8.6564  -16.1701   26.6817 C.ar    1  UNL1       -0.0006
      9 C          -8.1081  -16.4459   25.3131 C.ar    1  UNL1       -0.0078
     10 C         -10.3024  -18.9728   25.1206 C.3     1  UNL1        0.0116
     11 C          -9.9806  -17.9197   24.1019 C.3     1  UNL1        0.0681
     12 C         -10.9805  -17.5746   23.0385 C.ar    1  UNL1        0.0919
     13 N         -11.7845  -18.5522   22.2336 N.ar    1  UNL1       -0.2408
     14 C         -12.6529  -17.7730   21.2908 C.ar    1  UNL1        0.1061
     15 C         -12.3856  -16.3139   21.5130 C.ar    1  UNL1        0.0572
     16 S         -11.3519  -16.1913   22.5932 S.2     1  UNL1       -0.0699
     17 C          -7.7984  -17.7758   21.6797 C.3     1  UNL1        0.0394
     18 C          -7.8467  -19.2693   21.5489 C.3     1  UNL1        0.0765
     19 N          -7.4252  -19.9238   20.2667 N.3     1  UNL1       -0.2700
     20 C          -8.2902  -19.8093   19.0465 C.3     1  UNL1        0.0897
     21 C          -6.1389  -20.6929   20.2048 C.3     1  UNL1        0.0897
@<TRIPOS>BOND
     1    11    10    1
     2    11     1    1
     3     1     2    2
     4     2    17    1
     5    17    18    1
     6    18    19    1
     7    19    20    1
     8    19    21    1
     9     2     3    1
    10     3     4    1
    11     4     5   ar
    12     5     6   ar
    13     6     7   ar
    14     7     8   ar
    15     8     9   ar
    16    11    12    1
    17    12    13   ar
    18    13    14   ar
    19    14    15   ar
    20    15    16   ar
    21     9     1    1
    22    16    12   ar
    23     9     4   ar
@<TRIPOS>MOLECULE
*****
 21 23 0 0 0
SMALL
GASTEIGER

@<TRIPOS>ATOM
      1 C          -7.4158  -18.3180   21.8690 C.2     1  UNL1       -0.0242
      2 C          -7.3794  -17.0529   22.6741 C.2     1  UNL1       -0.0420
      3 C          -8.6592  -16.3101   22.4284 C.3     1  UNL1        0.0480
      4 C          -9.4865  -17.1161   21.4714 C.ar    1  UNL1       -0.0184
      5 C         -10.8404  -16.8804   20.8701 C.ar    1  UNL1       -0.0040
      6 C         -11.4257  -17.8856   19.9231 C.ar    1  UNL1       -0.0003
      7 C         -10.6572  -19.1266   19.5774 C.ar    1  UNL1       -0.0000
      8 C          -9.3034  -19.3623   20.1787 C.ar    1  UNL1       -0.0006
      9 C          -8.7181  -18.3571   21.1256 C.ar    1  UNL1       -0.0078
     10 C          -6.5828  -20.7208   22.4008 C.3     1  UNL1        0.0116
     11 C          -6.3390  -19.3609   21.8164 C.3     1  UNL1        0.0681
     12 C          -5.0184  -19.0441   21.1796 C.ar    1  UNL1        0.0919
     13 N          -4.7934  -18.7133   19.7339 N.ar    1  UNL1       -0.2408
     14 C          -3.3269  -18.4672   19.5375 C.ar    1  UNL1        0.1061
     15 C          -2.6454  -18.6459   20.8616 C.ar    1  UNL1        0.0572
     16 S          -3.6909  -19.0024   21.8766 S.2     1  UNL1       -0.0699
     17 C          -6.2598  -16.6086   23.5680 C.3     1  UNL1        0.0394
     18 C          -6.4130  -15.3728   24.4043 C.3     1  UNL1        0.0765
     19 N          -7.0635  -15.4560   25.7533 N.3     1  UNL1       -0.2700
     20 C          -8.5593  -15.4791   25.8645 C.3     1  UNL1        0.0897
     21 C          -6.2184  -15.5161   26.9911 C.3     1  UNL1        0.0897
@<TRIPOS>BOND
     1    11    10    1
     2    11     1    1
     3     1     2    2
     4     2    17    1
     5    17    18    1
     6    18    19    1
     7    19    20    1
     8    19    21    1
     9     2     3    1
    10     3     4    1
    11     4     5   ar
    12     5     6   ar
    13     6     7   ar
    14     7     8   ar
    15     8     9   ar
    16    11    12    1
    17    12    13   ar
    18    13    14   ar
    19    14    15   ar
    20    15    16   ar
    21     9     1    1
    22    16    12   ar
    23     9     4   ar
@<TRIPOS>MOLECULE
*****
 21 23 0 0 0
SMALL
GASTEIGER

@<TRIPOS>ATOM
      1 C          -6.6109  -17.5234   22.8811 C.2     1  UNL1       -0.0242
      2 C          -7.3482  -18.7512   22.4352 C.2     1  UNL1       -0.0420
      3 C          -6.3346  -19.7693   22.0037 C.3     1  UNL1        0.0480
      4 C          -4.9709  -19.1706   22.1828 C.ar    1  UNL1       -0.0184
      5 C          -3.5958  -19.7101   21.9222 C.ar    1  UNL1       -0.0040
      6 C          -2.3915  -18.8615   22.2039 C.ar    1  UNL1       -0.0003
      7 C          -2.5622  -17.4735   22.7463 C.ar    1  UNL1       -0.0000
      8 C          -3.9374  -16.9340   23.0069 C.ar    1  UNL1       -0.0006
      9 C          -5.1417  -17.7826   22.7251 C.ar    1  UNL1       -0.0078
     10 C          -7.8428  -15.2802   22.4328 C.3     1  UNL1        0.0116
     11 C          -7.2335  -16.2584   23.3931 C.3     1  UNL1        0.0681
     12 C          -7.2469  -15.9715   24.8653 C.ar    1  UNL1        0.0919
     13 N          -6.0620  -15.5824   25.6986 N.ar    1  UNL1       -0.2408
     14 C          -6.5304  -15.3937   27.1110 C.ar    1  UNL1        0.1061
     15 C          -8.0048  -15.6662   27.1507 C.ar    1  UNL1        0.0572
     16 S          -8.4477  -16.0233   25.7627 S.2     1  UNL1       -0.0699
     17 C          -8.8374  -18.9297   22.4230 C.3     1  UNL1        0.0394
     18 C          -9.6597  -18.2973   21.3396 C.3     1  UNL1        0.0765
     19 N         -10.9037  -17.5358   21.6898 N.3     1  UNL1       -0.2700
     20 C         -11.9859  -17.3559   20.6668 C.3     1  UNL1        0.0897
     21 C         -11.0655  -16.9542   23.0629 C.3     1  UNL1        0.0897
@<TRIPOS>BOND
     1    11    10    1
     2    11     1    1
     3     1     2    2
     4     2    17    1
     5    17    18    1
     6    18    19    1
     7    19    20    1
     8    19    21    1
     9     2     3    1
    10     3     4    1
    11     4     5   ar
    12     5     6   ar
    13     6     7   ar
    14     7     8   ar
    15     8     9   ar
    16    11    12    1
    17    12    13   ar
    18    13    14   ar
    19    14    15   ar
    20    15    16   ar
    21     9     1    1
    22    16    12   ar
    23     9     4   ar
@<TRIPOS>MOLECULE
*****
 21 23 0 0 0
SMALL
GASTEIGER

@<TRIPOS>ATOM
      1 C          -8.1382  -17.2531   22.6170 C.2     1  UNL1       -0.0242
      2 C          -7.2617  -18.4414   22.3530 C.2     1  UNL1       -0.0420
      3 C          -8.1476  -19.6089   22.0332 C.3     1  UNL1        0.0480
      4 C          -9.5716  -19.1421   22.0995 C.ar    1  UNL1       -0.0184
      5 C         -10.8727  -19.8548   21.8779 C.ar    1  UNL1       -0.0040
      6 C         -12.1681  -19.1114   22.0171 C.ar    1  UNL1       -0.0003
      7 C         -12.1623  -17.6555   22.3779 C.ar    1  UNL1       -0.0000
      8 C         -10.8612  -16.9428   22.5994 C.ar    1  UNL1       -0.0006
      9 C          -9.5658  -17.6862   22.4602 C.ar    1  UNL1       -0.0078
     10 C          -7.8306  -14.7493   21.9952 C.3     1  UNL1        0.0116
     11 C          -7.6695  -15.8739   22.9748 C.3     1  UNL1        0.0681
     12 C          -7.0398  -15.6191   24.3120 C.ar    1  UNL1        0.0919
     13 N          -5.6220  -15.1923   24.5521 N.ar    1  UNL1       -0.2408
     14 C          -5.4232  -15.0559   26.0325 C.ar    1  UNL1        0.1061
     15 C          -6.7181  -15.3983   26.7076 C.ar    1  UNL1        0.0572
     16 S          -7.7173  -15.7465   25.6443 S.2     1  UNL1       -0.0699
     17 C          -5.7626  -18.4591   22.4006 C.3     1  UNL1        0.0394
     18 C          -5.0091  -19.6404   21.8651 C.3     1  UNL1        0.0765
     19 N          -3.8092  -19.4306   20.9897 N.3     1  UNL1       -0.2700
     20 C          -3.9856  -18.9698   19.5731 C.3     1  UNL1        0.0897
     21 C          -2.4330  -19.6816   21.5309 C.3     1  UNL1        0.0897
@<TRIPOS>BOND
     1    11    10    1
     2    11     1    1
     3     1     2    2
     4     2    17    1
     5    17    18    1
     6    18    19    1
     7    19    20    1
     8    19    21    1
     9     2     3    1
    10     3     4    1
    11     4     5   ar
    12     5     6   ar
    13     6     7   ar
    14     7     8   ar
    15     8     9   ar
    16    11    12    1
    17    12    13   ar
    18    13    14   ar
    19    14    15   ar
    20    15    16   ar
    21     9     1    1
    22    16    12   ar
    23     9     4   ar
@<TRIPOS>MOLECULE
*****
 21 23 0 0 0
SMALL
GASTEIGER

@<TRIPOS>ATOM
      1 C          -6.4009  -18.4823   21.9529 C.2     1  UNL1       -0.0242
      2 C          -6.5398  -17.3412   22.9166 C.2     1  UNL1       -0.0420
      3 C          -5.1670  -16.9631   23.3882 C.3     1  UNL1        0.0480
      4 C          -4.1797  -17.8705   22.7160 C.ar    1  UNL1       -0.0184
      5 C          -2.6847  -17.9631   22.7971 C.ar    1  UNL1       -0.0040
      6 C          -1.9524  -18.9945   21.9911 C.ar    1  UNL1       -0.0003
      7 C          -2.7150  -19.9335   21.1040 C.ar    1  UNL1       -0.0000
      8 C          -4.2099  -19.8409   21.0230 C.ar    1  UNL1       -0.0006
      9 C          -4.9422  -18.8094   21.8290 C.ar    1  UNL1       -0.0078
     10 C          -7.4194  -19.4511   19.7678 C.3     1  UNL1        0.0116
     11 C          -7.5235  -19.1747   21.2386 C.3     1  UNL1        0.0681
     12 C          -8.7502  -19.5907   21.9947 C.ar    1  UNL1        0.0919
     13 N          -8.7933  -20.0467   23.4231 N.ar    1  UNL1       -0.2408
     14 C         -10.2190  -20.3617   23.7664 C.ar    1  UNL1        0.1061
     15 C         -11.0573  -20.1003   22.5504 C.ar    1  UNL1        0.0572
     16 S         -10.1495  -19.6238   21.4553 S.2     1  UNL1       -0.0699
     17 C          -7.8258  -16.6922   23.3351 C.3     1  UNL1        0.0394
     18 C          -8.6130  -15.8822   22.3482 C.3     1  UNL1        0.0765
     19 N         -10.0871  -16.1134   22.1944 N.3     1  UNL1       -0.2700
     20 C         -10.9056  -16.5459   23.3748 C.3     1  UNL1        0.0897
     21 C         -10.7427  -15.9121   20.8604 C.3     1  UNL1        0.0897
@<TRIPOS>BOND
     1    11    10    1
     2    11     1    1
     3     1     2    2
     4     2    17    1
     5    17    18    1
     6    18    19    1
     7    19    20    1
     8    19    21    1
     9     2     3    1
    10     3     4    1
    11     4     5   ar
    12     5     6   ar
    13     6     7   ar
    14     7     8   ar
    15     8     9   ar
    16    11    12    1
    17    12    13   ar
    18    13    14   ar
    19    14    15   ar
    20    15    16   ar
    21     9     1    1
    22    16    12   ar
    23     9     4   ar
