@<TRIPOS>MOLECULE
*****
 17 19 0 0 0
SMALL
GASTEIGER

@<TRIPOS>ATOM
      1 C          -7.6376  -18.3747   21.5094 C.ar    1  UNL1        0.1241
      2 C          -7.0313  -19.2463   20.4498 C.ar    1  UNL1        0.0360
      3 C          -5.5751  -19.4168   20.7671 C.ar    1  UNL1        0.0372
      4 C          -4.4787  -20.1708   20.0748 C.ar    1  UNL1        0.0031
      5 C          -3.0886  -20.1586   20.6382 C.ar    1  UNL1        0.0002
      6 C          -2.7950  -19.3925   21.8939 C.ar    1  UNL1        0.0031
      7 C          -3.8914  -18.6386   22.5862 C.ar    1  UNL1        0.0375
      8 C          -5.2815  -18.6507   22.0228 C.ar    1  UNL1        0.1448
      9 O          -6.5561  -18.0067   22.4816 O.2     1  UNL1       -0.4577
     10 C         -12.4302  -17.6696   21.4638 C.2     1  UNL1       -0.0136
     11 C         -11.5720  -18.8291   21.0526 C.2     1  UNL1       -0.0288
     12 C         -10.0781  -18.9524   21.1060 C.3     1  UNL1        0.0346
     13 C          -9.0732  -17.9464   21.5839 C.3     1  UNL1        0.0775
     14 C          -9.3141  -16.5688   22.1263 C.3     1  UNL1        0.0767
     15 N         -10.6194  -15.8570   22.3248 N.3     1  UNL1       -0.2934
     16 C         -12.0062  -16.3468   22.0300 C.3     1  UNL1        0.0950
     17 H         -10.5292  -15.0007   21.7779 H       1  UNL1        0.1236
@<TRIPOS>BOND
     1    10    11    2
     2    11    12    1
     3    12    13    1
     4    13     1    1
     5     1     2   ar
     6     2     3   ar
     7     3     4   ar
     8     4     5   ar
     9     5     6   ar
    10     6     7   ar
    11     7     8   ar
    12     8     9   ar
    13    13    14    1
    14    14    15    1
    15    15    16    1
    16    16    10    1
    17     9     1   ar
    18     8     3   ar
    19    15    17    1
@<TRIPOS>MOLECULE
*****
 17 19 0 0 0
SMALL
GASTEIGER

@<TRIPOS>ATOM
      1 C          -7.5698  -18.6252   21.9884 C.ar    1  UNL1        0.1241
      2 C          -8.5765  -19.4670   22.7150 C.ar    1  UNL1        0.0360
      3 C          -9.8690  -18.7071   22.7618 C.ar    1  UNL1        0.0372
      4 C         -11.2082  -19.0399   23.3495 C.ar    1  UNL1        0.0031
      5 C         -12.3396  -18.0613   23.2395 C.ar    1  UNL1        0.0002
      6 C         -12.1317  -16.7498   22.5417 C.ar    1  UNL1        0.0031
      7 C         -10.7924  -16.4170   21.9540 C.ar    1  UNL1        0.0375
      8 C          -9.6610  -17.3957   22.0640 C.ar    1  UNL1        0.1448
      9 O          -8.2401  -17.3451   21.5861 O.2     1  UNL1       -0.4577
     10 C          -3.2421  -20.2507   20.5404 C.2     1  UNL1       -0.0136
     11 C          -4.6364  -20.5025   20.0478 C.2     1  UNL1       -0.0288
     12 C          -5.9276  -19.9451   20.5695 C.3     1  UNL1        0.0346
     13 C          -6.1433  -18.9981   21.7126 C.3     1  UNL1        0.0775
     14 C          -5.1213  -18.3747   22.6164 C.3     1  UNL1        0.0767
     15 N          -3.6310  -18.5444   22.6002 N.3     1  UNL1       -0.2934
     16 C          -2.7946  -19.3793   21.6764 C.3     1  UNL1        0.0950
     17 H          -3.4029  -18.8889   23.5328 H       1  UNL1        0.1236
@<TRIPOS>BOND
     1    10    11    2
     2    11    12    1
     3    12    13    1
     4    13     1    1
     5     1     2   ar
     6     2     3   ar
     7     3     4   ar
     8     4     5   ar
     9     5     6   ar
    10     6     7   ar
    11     7     8   ar
    12     8     9   ar
    13    13    14    1
    14    14    15    1
    15    15    16    1
    16    16    10    1
    17     9     1   ar
    18     8     3   ar
    19    15    17    1
@<TRIPOS>MOLECULE
*****
 17 19 0 0 0
SMALL
GASTEIGER

@<TRIPOS>ATOM
      1 C          -6.2661  -19.2760   20.9258 C.ar    1  UNL1        0.1241
      2 C          -5.1681  -19.6523   21.8759 C.ar    1  UNL1        0.0360
      3 C          -3.8601  -19.2763   21.2451 C.ar    1  UNL1        0.0372
      4 C          -2.4428  -19.4095   21.7177 C.ar    1  UNL1        0.0031
      5 C          -1.3152  -18.9340   20.8503 C.ar    1  UNL1        0.0002
      6 C          -1.6049  -18.3253   19.5103 C.ar    1  UNL1        0.0031
      7 C          -3.0223  -18.1920   19.0377 C.ar    1  UNL1        0.0375
      8 C          -4.1499  -18.6675   19.9051 C.ar    1  UNL1        0.1448
      9 O          -5.6368  -18.6674   19.7078 O.2     1  UNL1       -0.4577
     10 C         -11.0790  -19.8283   20.9176 C.2     1  UNL1       -0.0136
     11 C         -10.0855  -19.5762   19.8224 C.2     1  UNL1       -0.0288
     12 C          -8.5975  -19.4184   19.9274 C.3     1  UNL1        0.0346
     13 C          -7.7355  -19.4736   21.1537 C.3     1  UNL1        0.0775
     14 C          -8.1485  -19.7004   22.5779 C.3     1  UNL1        0.0767
     15 N          -9.5256  -19.9278   23.1273 N.3     1  UNL1       -0.2934
     16 C         -10.8298  -19.9848   22.3885 C.3     1  UNL1        0.0950
     17 H          -9.6529  -19.1840   23.8135 H       1  UNL1        0.1236
@<TRIPOS>BOND
     1    10    11    2
     2    11    12    1
     3    12    13    1
     4    13     1    1
     5     1     2   ar
     6     2     3   ar
     7     3     4   ar
     8     4     5   ar
     9     5     6   ar
    10     6     7   ar
    11     7     8   ar
    12     8     9   ar
    13    13    14    1
    14    14    15    1
    15    15    16    1
    16    16    10    1
    17     9     1   ar
    18     8     3   ar
    19    15    17    1
@<TRIPOS>MOLECULE
*****
 17 19 0 0 0
SMALL
GASTEIGER

@<TRIPOS>ATOM
      1 C          -6.8432  -18.6123   22.0933 C.ar    1  UNL1        0.1241
      2 C          -6.1982  -19.5880   21.1542 C.ar    1  UNL1        0.0360
      3 C          -4.7129  -19.3927   21.2310 C.ar    1  UNL1        0.0372
      4 C          -3.5738  -20.0716   20.5300 C.ar    1  UNL1        0.0031
      5 C          -2.1617  -19.6540   20.8156 C.ar    1  UNL1        0.0002
      6 C          -1.8888  -18.5574   21.8021 C.ar    1  UNL1        0.0031
      7 C          -3.0279  -17.8786   22.5030 C.ar    1  UNL1        0.0375
      8 C          -4.4400  -18.2962   22.2175 C.ar    1  UNL1        0.1448
      9 O          -5.7566  -17.8139   22.7504 O.2     1  UNL1       -0.4577
     10 C         -11.5838  -18.8519   23.0616 C.2     1  UNL1       -0.0136
     11 C         -10.4830  -19.8686   23.1273 C.2     1  UNL1       -0.0288
     12 C          -9.0287  -19.6950   22.8031 C.3     1  UNL1        0.0346
     13 C          -8.3162  -18.4615   22.3331 C.3     1  UNL1        0.0775
     14 C          -8.8819  -17.0971   22.0712 C.3     1  UNL1        0.0767
     15 N         -10.2998  -16.6293   22.2147 N.3     1  UNL1       -0.2934
     16 C         -11.5023  -17.4102   22.6554 C.3     1  UNL1        0.0950
     17 H         -10.5479  -16.2785   21.2896 H       1  UNL1        0.1236
@<TRIPOS>BOND
     1    10    11    2
     2    11    12    1
     3    12    13    1
     4    13     1    1
     5     1     2   ar
     6     2     3   ar
     7     3     4   ar
     8     4     5   ar
     9     5     6   ar
    10     6     7   ar
    11     7     8   ar
    12     8     9   ar
    13    13    14    1
    14    14    15    1
    15    15    16    1
    16    16    10    1
    17     9     1   ar
    18     8     3   ar
    19    15    17    1
@<TRIPOS>MOLECULE
*****
 17 19 0 0 0
SMALL
GASTEIGER

@<TRIPOS>ATOM
      1 C          -8.1893  -18.8232   21.6565 C.ar    1  UNL1        0.1241
      2 C          -7.0622  -18.3281   22.5136 C.ar    1  UNL1        0.0360
      3 C          -5.7865  -18.9154   21.9867 C.ar    1  UNL1        0.0372
      4 C          -4.3603  -18.7797   22.4310 C.ar    1  UNL1        0.0031
      5 C          -3.2728  -19.5020   21.6926 C.ar    1  UNL1        0.0002
      6 C          -3.6114  -20.3601   20.5098 C.ar    1  UNL1        0.0031
      7 C          -5.0376  -20.4958   20.0654 C.ar    1  UNL1        0.0375
      8 C          -6.1251  -19.7735   20.8039 C.ar    1  UNL1        0.1448
      9 O          -7.6101  -19.7165   20.5998 O.2     1  UNL1       -0.4577
     10 C         -12.7625  -17.8655   22.9359 C.2     1  UNL1       -0.0136
     11 C         -11.5560  -18.2838   23.7228 C.2     1  UNL1       -0.0288
     12 C         -10.1666  -18.5593   23.2291 C.3     1  UNL1        0.0346
     13 C          -9.6406  -18.4845   21.8263 C.3     1  UNL1        0.0775
     14 C         -10.3741  -18.1158   20.5708 C.3     1  UNL1        0.0767
     15 N         -11.8147  -17.7309   20.4082 N.3     1  UNL1       -0.2934
     16 C         -12.8777  -17.6195   21.4607 C.3     1  UNL1        0.0950
     17 H         -12.1860  -18.4068   19.7406 H       1  UNL1        0.1236
@<TRIPOS>BOND
     1    10    11    2
     2    11    12    1
     3    12    13    1
     4    13     1    1
     5     1     2   ar
     6     2     3   ar
     7     3     4   ar
     8     4     5   ar
     9     5     6   ar
    10     6     7   ar
    11     7     8   ar
    12     8     9   ar
    13    13    14    1
    14    14    15    1
    15    15    16    1
    16    16    10    1
    17     9     1   ar
    18     8     3   ar
    19    15    17    1
@<TRIPOS>MOLECULE
*****
 17 19 0 0 0
SMALL
GASTEIGER

@<TRIPOS>ATOM
      1 C          -6.8670  -18.7568   22.2675 C.ar    1  UNL1        0.1241
      2 C          -7.5970  -17.4523   22.3923 C.ar    1  UNL1        0.0360
      3 C          -9.0373  -17.7531   22.6836 C.ar    1  UNL1        0.0372
      4 C         -10.2236  -16.8625   22.9057 C.ar    1  UNL1        0.0031
      5 C         -11.5702  -17.4622   23.1831 C.ar    1  UNL1        0.0002
      6 C         -11.7305  -18.9526   23.2383 C.ar    1  UNL1        0.0031
      7 C         -10.5442  -19.8433   23.0162 C.ar    1  UNL1        0.0375
      8 C          -9.1976  -19.2435   22.7389 C.ar    1  UNL1        0.1448
      9 O          -7.8563  -19.8638   22.4817 O.2     1  UNL1       -0.4577
     10 C          -2.3654  -19.7659   20.7892 C.2     1  UNL1       -0.0136
     11 C          -3.7138  -20.2246   20.3187 C.2     1  UNL1       -0.0288
     12 C          -5.0664  -19.8503   20.8482 C.3     1  UNL1        0.0346
     13 C          -5.4046  -18.9247   21.9791 C.3     1  UNL1        0.0775
     14 C          -4.4739  -18.1449   22.8598 C.3     1  UNL1        0.0767
     15 N          -2.9750  -18.0981   22.8270 N.3     1  UNL1       -0.2934
     16 C          -2.0366  -18.8195   21.9055 C.3     1  UNL1        0.0950
     17 H          -2.6897  -18.3899   23.7618 H       1  UNL1        0.1236
@<TRIPOS>BOND
     1    10    11    2
     2    11    12    1
     3    12    13    1
     4    13     1    1
     5     1     2   ar
     6     2     3   ar
     7     3     4   ar
     8     4     5   ar
     9     5     6   ar
    10     6     7   ar
    11     7     8   ar
    12     8     9   ar
    13    13    14    1
    14    14    15    1
    15    15    16    1
    16    16    10    1
    17     9     1   ar
    18     8     3   ar
    19    15    17    1
@<TRIPOS>MOLECULE
*****
 17 19 0 0 0
SMALL
GASTEIGER

@<TRIPOS>ATOM
      1 C          -8.2535  -17.9292   22.5326 C.ar    1  UNL1        0.1241
      2 C          -9.1876  -18.1872   23.6776 C.ar    1  UNL1        0.0360
      3 C         -10.5919  -18.0264   23.1756 C.ar    1  UNL1        0.0372
      4 C         -11.9222  -18.1593   23.8556 C.ar    1  UNL1        0.0031
      5 C         -13.1865  -17.9348   23.0803 C.ar    1  UNL1        0.0002
      6 C         -13.1204  -17.5774   21.6249 C.ar    1  UNL1        0.0031
      7 C         -11.7901  -17.4446   20.9449 C.ar    1  UNL1        0.0375
      8 C         -10.5258  -17.6691   21.7203 C.ar    1  UNL1        0.1448
      9 O          -9.0806  -17.6090   21.3229 O.2     1  UNL1       -0.4577
     10 C          -3.4845  -18.7631   22.3617 C.2     1  UNL1       -0.0136
     11 C          -4.6692  -19.5510   21.8866 C.2     1  UNL1       -0.0288
     12 C          -6.1249  -19.2035   21.9871 C.3     1  UNL1        0.0346
     13 C          -6.7555  -17.9821   22.5876 C.3     1  UNL1        0.0775
     14 C          -6.0861  -16.8066   23.2359 C.3     1  UNL1        0.0767
     15 N          -4.6208  -16.5623   23.4437 N.3     1  UNL1       -0.2934
     16 C          -3.4630  -17.4330   23.0547 C.3     1  UNL1        0.0950
     17 H          -4.5224  -16.4416   24.4518 H       1  UNL1        0.1236
@<TRIPOS>BOND
     1    10    11    2
     2    11    12    1
     3    12    13    1
     4    13     1    1
     5     1     2   ar
     6     2     3   ar
     7     3     4   ar
     8     4     5   ar
     9     5     6   ar
    10     6     7   ar
    11     7     8   ar
    12     8     9   ar
    13    13    14    1
    14    14    15    1
    15    15    16    1
    16    16    10    1
    17     9     1   ar
    18     8     3   ar
    19    15    17    1
@<TRIPOS>MOLECULE
*****
 17 19 0 0 0
SMALL
GASTEIGER

@<TRIPOS>ATOM
      1 C          -8.5569  -16.9088   23.3720 C.ar    1  UNL1        0.1241
      2 C          -9.8748  -16.5084   22.7780 C.ar    1  UNL1        0.0360
      3 C         -10.1372  -17.3915   21.5943 C.ar    1  UNL1        0.0372
      4 C         -11.2792  -17.4563   20.6240 C.ar    1  UNL1        0.0031
      5 C         -11.2654  -18.4673   19.5160 C.ar    1  UNL1        0.0002
      6 C         -10.1097  -19.4134   19.3783 C.ar    1  UNL1        0.0031
      7 C          -8.9677  -19.3486   20.3486 C.ar    1  UNL1        0.0375
      8 C          -8.9814  -18.3377   21.4566 C.ar    1  UNL1        0.1448
      9 O          -8.0047  -18.0393   22.5553 O.2     1  UNL1       -0.4577
     10 C          -7.0100  -15.2203   27.6410 C.2     1  UNL1       -0.0136
     11 C          -8.1821  -16.0716   27.2519 C.2     1  UNL1       -0.0288
     12 C          -8.5807  -16.5467   25.8861 C.3     1  UNL1        0.0346
     13 C          -7.9054  -16.2877   24.5719 C.3     1  UNL1        0.0775
     14 C          -6.6649  -15.4897   24.2990 C.3     1  UNL1        0.0767
     15 N          -5.7933  -14.7537   25.2729 N.3     1  UNL1       -0.2934
     16 C          -5.9468  -14.6337   26.7602 C.3     1  UNL1        0.0950
     17 H          -5.7925  -13.7903   24.9377 H       1  UNL1        0.1236
@<TRIPOS>BOND
     1    10    11    2
     2    11    12    1
     3    12    13    1
     4    13     1    1
     5     1     2   ar
     6     2     3   ar
     7     3     4   ar
     8     4     5   ar
     9     5     6   ar
    10     6     7   ar
    11     7     8   ar
    12     8     9   ar
    13    13    14    1
    14    14    15    1
    15    15    16    1
    16    16    10    1
    17     9     1   ar
    18     8     3   ar
    19    15    17    1
@<TRIPOS>MOLECULE
*****
 17 19 0 0 0
SMALL
GASTEIGER

@<TRIPOS>ATOM
      1 C          -8.2083  -17.2653   22.9922 C.ar    1  UNL1        0.1241
      2 C          -8.9361  -17.0094   24.2786 C.ar    1  UNL1        0.0360
      3 C          -8.0055  -16.2782   25.2002 C.ar    1  UNL1        0.0372
      4 C          -8.1762  -15.7655   26.5995 C.ar    1  UNL1        0.0031
      5 C          -7.0440  -15.0569   27.2819 C.ar    1  UNL1        0.0002
      6 C          -5.7410  -14.8610   26.5651 C.ar    1  UNL1        0.0031
      7 C          -5.5702  -15.3736   25.1659 C.ar    1  UNL1        0.0375
      8 C          -6.7025  -16.0822   24.4834 C.ar    1  UNL1        0.1448
      9 O          -6.8279  -16.6923   23.1188 O.2     1  UNL1       -0.4577
     10 C          -9.3052  -19.8135   19.0208 C.2     1  UNL1       -0.0136
     11 C          -8.0302  -19.6343   19.7904 C.2     1  UNL1       -0.0288
     12 C          -7.7890  -18.8141   21.0229 C.3     1  UNL1        0.0346
     13 C          -8.7635  -17.9704   21.7903 C.3     1  UNL1        0.0775
     14 C         -10.2196  -17.7387   21.5147 C.3     1  UNL1        0.0767
     15 N         -11.0609  -18.2933   20.4036 N.3     1  UNL1       -0.2934
     16 C         -10.6540  -19.2167   19.2937 C.3     1  UNL1        0.0950
     17 H         -11.4314  -17.4704   19.9284 H       1  UNL1        0.1236
@<TRIPOS>BOND
     1    10    11    2
     2    11    12    1
     3    12    13    1
     4    13     1    1
     5     1     2   ar
     6     2     3   ar
     7     3     4   ar
     8     4     5   ar
     9     5     6   ar
    10     6     7   ar
    11     7     8   ar
    12     8     9   ar
    13    13    14    1
    14    14    15    1
    15    15    16    1
    16    16    10    1
    17     9     1   ar
    18     8     3   ar
    19    15    17    1
