@<TRIPOS>MOLECULE
*****
 30 34 0 0 0
SMALL
GASTEIGER

@<TRIPOS>ATOM
      1 C         -10.5103  -17.2054   21.1931 C.ar    1  UNL1        0.1543
      2 C         -11.3173  -18.0191   20.2251 C.ar    1  UNL1        0.0384
      3 C         -10.7120  -19.2270   19.5735 C.ar    1  UNL1        0.0032
      4 C          -9.2997  -19.6212   19.8898 C.ar    1  UNL1        0.0018
      5 C          -8.4928  -18.8076   20.8577 C.ar    1  UNL1        0.0246
      6 C          -7.0872  -18.9507   21.3615 C.ar    1  UNL1        0.0722
      7 C          -6.8237  -17.8312   22.3245 C.ar    1  UNL1        0.0805
      8 N          -8.0666  -16.9963   22.4159 N.ar    1  UNL1       -0.3236
      9 C          -9.0981  -17.5998   21.5093 C.ar    1  UNL1        0.0945
     10 C          -6.1156  -20.0246   20.9709 C.2     1  UNL1        0.2506
     11 O          -6.5884  -21.4378   20.8000 O.2     1  UNL1       -0.2699
     12 N          -4.6710  -19.6854   20.7511 N.am    1  UNL1       -0.2732
     13 C          -3.6994  -20.7593   20.3605 C.3     1  UNL1        0.1110
     14 C          -2.2549  -20.4201   20.1407 C.3     1  UNL1        0.0939
     15 N          -1.7820  -19.0068   20.3115 N.3     1  UNL1       -0.2709
     16 C          -0.3375  -18.6676   20.0917 C.3     1  UNL1        0.0722
     17 C           0.1354  -17.2544   20.2626 C.3     1  UNL1        0.0174
     18 C          -0.8363  -16.1804   20.6532 C.3     1  UNL1        0.0029
     19 C          -2.2807  -16.5197   20.8730 C.3     1  UNL1        0.0177
     20 C          -2.7536  -17.9329   20.7021 C.3     1  UNL1        0.0774
     21 C          -4.1982  -18.2722   20.9219 C.3     1  UNL1        0.1096
     22 C         -12.4046  -16.1206   22.6020 C.3     1  UNL1        0.2525
     23 O         -11.1156  -15.9975   21.8447 O.3     1  UNL1       -0.4700
     24 C          -8.2463  -15.7727   23.2647 C.3     1  UNL1        0.1061
     25 C          -7.7237  -15.7518   24.6706 C.3     1  UNL1        0.0226
     26 C          -6.3067  -15.3390   24.9380 C.3     1  UNL1        0.0019
     27 C          -5.7841  -15.3181   26.3439 C.3     1  UNL1        0.0001
     28 C          -6.6786  -15.7101   27.4824 C.3     1  UNL1        0.0000
     29 C          -8.0956  -16.1229   27.2150 C.3     1  UNL1        0.0001
     30 C          -8.6182  -16.1438   25.8092 C.3     1  UNL1        0.0019
@<TRIPOS>BOND
     1    22    23    1
     2    23     1    1
     3     1     2   ar
     4     2     3   ar
     5     3     4   ar
     6     4     5   ar
     7     5     6   ar
     8     6    10    1
     9    10    11    2
    10    10    12   am
    11    12    13    1
    12    13    14    1
    13    14    15    1
    14    15    16    1
    15    16    17    1
    16    17    18    1
    17    18    19    1
    18    20    19    1
    19    20    21    1
    20     6     7   ar
    21     7     8   ar
    22     8    24    1
    23    24    25    1
    24    25    26    1
    25    26    27    1
    26    27    28    1
    27    28    29    1
    28    29    30    1
    29     8     9   ar
    30     9     1   ar
    31     9     5   ar
    32    21    12    1
    33    30    25    1
    34    20    15    1
@<TRIPOS>MOLECULE
*****
 30 34 0 0 0
SMALL
GASTEIGER

@<TRIPOS>ATOM
      1 C         -11.8826  -17.3564   22.1096 C.ar    1  UNL1        0.1543
      2 C         -12.4905  -16.9912   20.7877 C.ar    1  UNL1        0.0384
      3 C         -11.8236  -17.4154   19.5128 C.ar    1  UNL1        0.0032
      4 C         -10.5490  -18.2048   19.5598 C.ar    1  UNL1        0.0018
      5 C          -9.9412  -18.5699   20.8816 C.ar    1  UNL1        0.0246
      6 C          -8.7015  -19.3349   21.2392 C.ar    1  UNL1        0.0722
      7 C          -8.6021  -19.3835   22.7351 C.ar    1  UNL1        0.0805
      8 N          -9.7804  -18.6485   23.3020 N.ar    1  UNL1       -0.3236
      9 C         -10.6080  -18.1457   22.1565 C.ar    1  UNL1        0.0945
     10 C          -7.7314  -19.9443   20.2708 C.2     1  UNL1        0.2506
     11 O          -8.2362  -20.7468   19.1084 O.2     1  UNL1       -0.2699
     12 N          -6.2566  -19.7512   20.4650 N.am    1  UNL1       -0.2732
     13 C          -5.2865  -20.3606   19.4967 C.3     1  UNL1        0.1110
     14 C          -3.8118  -20.1676   19.6908 C.3     1  UNL1        0.0939
     15 N          -3.3069  -19.3651   20.8533 N.3     1  UNL1       -0.2709
     16 C          -1.8322  -19.1721   21.0474 C.3     1  UNL1        0.0722
     17 C          -1.3274  -18.3696   22.2098 C.3     1  UNL1        0.0174
     18 C          -2.2975  -17.7602   23.1781 C.3     1  UNL1        0.0029
     19 C          -3.7723  -17.9532   22.9840 C.3     1  UNL1        0.0177
     20 C          -4.2770  -18.7557   21.8216 C.3     1  UNL1        0.0774
     21 C          -5.7518  -18.9488   21.6274 C.3     1  UNL1        0.1096
     22 C         -13.6303  -17.7818   23.9844 C.3     1  UNL1        0.2525
     23 O         -12.5495  -16.9321   23.3845 O.3     1  UNL1       -0.4700
     24 C         -10.0787  -18.4510   24.7587 C.3     1  UNL1        0.1061
     25 C          -9.3443  -17.4015   25.5392 C.3     1  UNL1        0.0226
     26 C          -8.8144  -16.1829   24.8433 C.3     1  UNL1        0.0019
     27 C          -8.0799  -15.1334   25.6237 C.3     1  UNL1        0.0001
     28 C          -7.8754  -15.3024   27.1001 C.3     1  UNL1        0.0000
     29 C          -8.4053  -16.5209   27.7960 C.3     1  UNL1        0.0001
     30 C          -9.1398  -17.5705   27.0155 C.3     1  UNL1        0.0019
@<TRIPOS>BOND
     1    22    23    1
     2    23     1    1
     3     1     2   ar
     4     2     3   ar
     5     3     4   ar
     6     4     5   ar
     7     5     6   ar
     8     6    10    1
     9    10    11    2
    10    10    12   am
    11    12    13    1
    12    13    14    1
    13    14    15    1
    14    15    16    1
    15    16    17    1
    16    17    18    1
    17    18    19    1
    18    20    19    1
    19    20    21    1
    20     6     7   ar
    21     7     8   ar
    22     8    24    1
    23    24    25    1
    24    25    26    1
    25    26    27    1
    26    27    28    1
    27    28    29    1
    28    29    30    1
    29     8     9   ar
    30     9     1   ar
    31     9     5   ar
    32    21    12    1
    33    30    25    1
    34    20    15    1
@<TRIPOS>MOLECULE
*****
 30 34 0 0 0
SMALL
GASTEIGER

@<TRIPOS>ATOM
      1 C           4.9924    1.9549   18.2288 C.ar    1  UNL1        0.1543
      2 C           5.4539    3.3815   18.2767 C.ar    1  UNL1        0.0384
      3 C           4.4519    4.4899   18.4091 C.ar    1  UNL1        0.0032
      4 C           2.9885    4.1718   18.4935 C.ar    1  UNL1        0.0018
      5 C           2.5270    2.7454   18.4456 C.ar    1  UNL1        0.0246
      6 C           1.1604    2.1301   18.5065 C.ar    1  UNL1        0.0722
      7 C           1.3177    0.6413   18.4118 C.ar    1  UNL1        0.0805
      8 N           2.7816    0.3366   18.2924 N.ar    1  UNL1       -0.3236
      9 C           3.5290    1.6370   18.3132 C.ar    1  UNL1        0.0945
     10 C          -0.1360    2.8731   18.6389 C.2     1  UNL1        0.2506
     11 O          -0.8295    3.3952   17.4157 O.2     1  UNL1       -0.2699
     12 N          -0.7388    3.0938   19.9947 N.am    1  UNL1       -0.2732
     13 C          -2.0352    3.8368   20.1271 C.3     1  UNL1        0.1110
     14 C          -2.6380    4.0575   21.4827 C.3     1  UNL1        0.0939
     15 N          -1.9445    3.5354   22.7060 N.3     1  UNL1       -0.2709
     16 C          -2.5473    3.7562   24.0617 C.3     1  UNL1        0.0722
     17 C          -1.8538    3.2340   25.2849 C.3     1  UNL1        0.0174
     18 C          -0.5575    2.4911   25.1525 C.3     1  UNL1        0.0029
     19 C           0.0453    2.2703   23.7969 C.3     1  UNL1        0.0177
     20 C          -0.6482    2.7924   22.5736 C.3     1  UNL1        0.0774
     21 C          -0.0453    2.5717   21.2179 C.3     1  UNL1        0.1096
     22 C           6.6459    0.5787   16.7722 C.3     1  UNL1        0.2525
     23 O           5.9943    0.8465   18.0964 O.3     1  UNL1       -0.4700
     24 C           3.3910   -1.0288   18.1730 C.3     1  UNL1        0.1061
     25 C           3.7057   -1.8202   19.4078 C.3     1  UNL1        0.0226
     26 C           3.7030   -1.1495   20.7495 C.3     1  UNL1        0.0019
     27 C           4.0177   -1.9410   21.9842 C.3     1  UNL1        0.0001
     28 C           4.3351   -3.4031   21.8773 C.3     1  UNL1        0.0000
     29 C           4.3379   -4.0738   20.5356 C.3     1  UNL1        0.0001
     30 C           4.0231   -3.2823   19.3008 C.3     1  UNL1        0.0019
@<TRIPOS>BOND
     1    22    23    1
     2    23     1    1
     3     1     2   ar
     4     2     3   ar
     5     3     4   ar
     6     4     5   ar
     7     5     6   ar
     8     6    10    1
     9    10    11    2
    10    10    12   am
    11    12    13    1
    12    13    14    1
    13    14    15    1
    14    15    16    1
    15    16    17    1
    16    17    18    1
    17    18    19    1
    18    20    19    1
    19    20    21    1
    20     6     7   ar
    21     7     8   ar
    22     8    24    1
    23    24    25    1
    24    25    26    1
    25    26    27    1
    26    27    28    1
    27    28    29    1
    28    29    30    1
    29     8     9   ar
    30     9     1   ar
    31     9     5   ar
    32    21    12    1
    33    30    25    1
    34    20    15    1
@<TRIPOS>MOLECULE
*****
 30 34 0 0 0
SMALL
GASTEIGER

@<TRIPOS>ATOM
      1 C           7.3516   -0.1434   18.9905 C.ar    1  UNL1        0.1543
      2 C           8.6095    0.4758   19.5238 C.ar    1  UNL1        0.0384
      3 C           9.4607   -0.2787   20.5018 C.ar    1  UNL1        0.0032
      4 C           9.0540   -1.6523   20.9464 C.ar    1  UNL1        0.0018
      5 C           7.7961   -2.2715   20.4131 C.ar    1  UNL1        0.0246
      6 C           7.1452   -3.5989   20.6666 C.ar    1  UNL1        0.0722
      7 C           5.8917   -3.6649   19.8453 C.ar    1  UNL1        0.0805
      8 N           5.7680   -2.3782   19.0842 N.ar    1  UNL1       -0.3236
      9 C           6.9450   -1.5170   19.4351 C.ar    1  UNL1        0.0945
     10 C           7.6578   -4.6719   21.5808 C.2     1  UNL1        0.2506
     11 O           8.4046   -5.8441   21.0169 O.2     1  UNL1       -0.2699
     12 N           7.4234   -4.5728   23.0591 N.am    1  UNL1       -0.2732
     13 C           7.9359   -5.6458   23.9734 C.3     1  UNL1        0.1110
     14 C           7.7016   -5.5467   25.4516 C.3     1  UNL1        0.0939
     15 N           6.9547   -4.3745   26.0157 N.3     1  UNL1       -0.2709
     16 C           6.7203   -4.2754   27.4939 C.3     1  UNL1        0.0722
     17 C           5.9734   -3.1032   28.0579 C.3     1  UNL1        0.0174
     18 C           5.4609   -2.0301   27.1436 C.3     1  UNL1        0.0029
     19 C           5.6953   -2.1293   25.6654 C.3     1  UNL1        0.0177
     20 C           6.4421   -3.3014   25.1014 C.3     1  UNL1        0.0774
     21 C           6.6765   -3.4006   23.6231 C.3     1  UNL1        0.1096
     22 C           7.0264    0.9189   16.6419 C.3     1  UNL1        0.2525
     23 O           6.5005    0.6110   18.0125 O.3     1  UNL1       -0.4700
     24 C           4.6615   -2.0162   18.1384 C.3     1  UNL1        0.1061
     25 C           3.4803   -1.2334   18.6303 C.3     1  UNL1        0.0226
     26 C           2.9831   -0.0545   17.8474 C.3     1  UNL1        0.0019
     27 C           1.8019    0.7283   18.3393 C.3     1  UNL1        0.0001
     28 C           1.1178    0.3321   19.6141 C.3     1  UNL1        0.0000
     29 C           1.6150   -0.8468   20.3970 C.3     1  UNL1        0.0001
     30 C           2.7962   -1.6296   19.9051 C.3     1  UNL1        0.0019
@<TRIPOS>BOND
     1    22    23    1
     2    23     1    1
     3     1     2   ar
     4     2     3   ar
     5     3     4   ar
     6     4     5   ar
     7     5     6   ar
     8     6    10    1
     9    10    11    2
    10    10    12   am
    11    12    13    1
    12    13    14    1
    13    14    15    1
    14    15    16    1
    15    16    17    1
    16    17    18    1
    17    18    19    1
    18    20    19    1
    19    20    21    1
    20     6     7   ar
    21     7     8   ar
    22     8    24    1
    23    24    25    1
    24    25    26    1
    25    26    27    1
    26    27    28    1
    27    28    29    1
    28    29    30    1
    29     8     9   ar
    30     9     1   ar
    31     9     5   ar
    32    21    12    1
    33    30    25    1
    34    20    15    1
@<TRIPOS>MOLECULE
*****
 30 34 0 0 0
SMALL
GASTEIGER

@<TRIPOS>ATOM
      1 C           5.8791   -0.6971   18.8007 C.ar    1  UNL1        0.1543
      2 C           7.2494   -0.1810   18.4749 C.ar    1  UNL1        0.0384
      3 C           8.4569   -0.8094   19.1050 C.ar    1  UNL1        0.0032
      4 C           8.2941   -1.9539   20.0609 C.ar    1  UNL1        0.0018
      5 C           6.9239   -2.4700   20.3866 C.ar    1  UNL1        0.0246
      6 C           6.4554   -3.5761   21.2850 C.ar    1  UNL1        0.0722
      7 C           4.9582   -3.6312   21.2101 C.ar    1  UNL1        0.0805
      8 N           4.5015   -2.5592   20.2654 N.ar    1  UNL1       -0.3236
      9 C           5.7164   -1.8416   19.7565 C.ar    1  UNL1        0.0945
     10 C           7.3303   -4.4700   22.1129 C.2     1  UNL1        0.2506
     11 O           8.1894   -5.5039   21.4474 O.2     1  UNL1       -0.2699
     12 N           7.3461   -4.3299   23.6063 N.am    1  UNL1       -0.2732
     13 C           8.2210   -5.2239   24.4342 C.3     1  UNL1        0.1110
     14 C           8.2368   -5.0838   25.9275 C.3     1  UNL1        0.0939
     15 N           7.3776   -4.0499   26.5930 N.3     1  UNL1       -0.2709
     16 C           7.3934   -3.9099   28.0864 C.3     1  UNL1        0.0722
     17 C           6.5343   -2.8759   28.7518 C.3     1  UNL1        0.0174
     18 C           5.6594   -1.9820   27.9239 C.3     1  UNL1        0.0029
     19 C           5.6436   -2.1220   26.4306 C.3     1  UNL1        0.0177
     20 C           6.5027   -3.1559   25.7651 C.3     1  UNL1        0.0774
     21 C           6.4869   -3.2960   24.2717 C.3     1  UNL1        0.1096
     22 C           4.1124   -0.6299   16.8968 C.3     1  UNL1        0.2525
     23 O           4.6716   -0.0687   18.1706 O.3     1  UNL1       -0.4700
     24 C           3.0796   -2.2579   19.8949 C.3     1  UNL1        0.1061
     25 C           2.3390   -1.1577   20.5956 C.3     1  UNL1        0.0226
     26 C           1.1124   -0.5625   19.9701 C.3     1  UNL1        0.0019
     27 C           0.3717    0.5377   20.6708 C.3     1  UNL1        0.0001
     28 C           0.8576    1.0428   21.9970 C.3     1  UNL1        0.0000
     29 C           2.0842    0.4476   22.6225 C.3     1  UNL1        0.0001
     30 C           2.8249   -0.6526   21.9218 C.3     1  UNL1        0.0019
@<TRIPOS>BOND
     1    22    23    1
     2    23     1    1
     3     1     2   ar
     4     2     3   ar
     5     3     4   ar
     6     4     5   ar
     7     5     6   ar
     8     6    10    1
     9    10    11    2
    10    10    12   am
    11    12    13    1
    12    13    14    1
    13    14    15    1
    14    15    16    1
    15    16    17    1
    16    17    18    1
    17    18    19    1
    18    20    19    1
    19    20    21    1
    20     6     7   ar
    21     7     8   ar
    22     8    24    1
    23    24    25    1
    24    25    26    1
    25    26    27    1
    26    27    28    1
    27    28    29    1
    28    29    30    1
    29     8     9   ar
    30     9     1   ar
    31     9     5   ar
    32    21    12    1
    33    30    25    1
    34    20    15    1
@<TRIPOS>MOLECULE
*****
 30 34 0 0 0
SMALL
GASTEIGER

@<TRIPOS>ATOM
      1 C           4.7274   -1.4077   25.7802 C.ar    1  UNL1        0.1543
      2 C           3.6219   -0.4113   25.5921 C.ar    1  UNL1        0.0384
      3 C           2.9122   -0.3184   24.2739 C.ar    1  UNL1        0.0032
      4 C           3.3080   -1.2217   23.1437 C.ar    1  UNL1        0.0018
      5 C           4.4135   -2.2179   23.3317 C.ar    1  UNL1        0.0246
      6 C           5.0185   -3.2322   22.4070 C.ar    1  UNL1        0.0722
      7 C           6.1021   -3.9522   23.1537 C.ar    1  UNL1        0.0805
      8 N           6.1668   -3.3827   24.5399 N.ar    1  UNL1       -0.3236
      9 C           5.1231   -2.3109   24.6500 C.ar    1  UNL1        0.0945
     10 C           4.6113   -3.4827   20.9852 C.2     1  UNL1        0.2506
     11 O           3.9109   -4.7575   20.6191 O.2     1  UNL1       -0.2699
     12 N           4.9047   -2.4583   19.9294 N.am    1  UNL1       -0.2732
     13 C           4.4976   -2.7087   18.5076 C.3     1  UNL1        0.1110
     14 C           4.7910   -1.6844   17.4519 C.3     1  UNL1        0.0939
     15 N           5.4915   -0.4095   17.8180 N.3     1  UNL1       -0.2709
     16 C           5.7849    0.6149   16.7623 C.3     1  UNL1        0.0722
     17 C           6.4853    1.8897   17.1284 C.3     1  UNL1        0.0174
     18 C           6.8925    2.1402   18.5502 C.3     1  UNL1        0.0029
     19 C           6.5991    1.1159   19.6059 C.3     1  UNL1        0.0177
     20 C           5.8986   -0.1590   19.2398 C.3     1  UNL1        0.0774
     21 C           5.6052   -1.1834   20.2955 C.3     1  UNL1        0.1096
     22 C           6.5575   -0.5550   27.4153 C.3     1  UNL1        0.2525
     23 O           5.4371   -1.5006   27.0984 O.3     1  UNL1       -0.4700
     24 C           7.1096   -3.8100   25.6255 C.3     1  UNL1        0.1061
     25 C           7.6212   -5.2196   25.6626 C.3     1  UNL1        0.0226
     26 C           6.8954   -6.2601   26.4629 C.3     1  UNL1        0.0019
     27 C           7.4070   -7.6697   26.5000 C.3     1  UNL1        0.0001
     28 C           8.6445   -8.0388   25.7368 C.3     1  UNL1        0.0000
     29 C           9.3703   -6.9983   24.9365 C.3     1  UNL1        0.0001
     30 C           8.8587   -5.5887   24.8994 C.3     1  UNL1        0.0019
@<TRIPOS>BOND
     1    22    23    1
     2    23     1    1
     3     1     2   ar
     4     2     3   ar
     5     3     4   ar
     6     4     5   ar
     7     5     6   ar
     8     6    10    1
     9    10    11    2
    10    10    12   am
    11    12    13    1
    12    13    14    1
    13    14    15    1
    14    15    16    1
    15    16    17    1
    16    17    18    1
    17    18    19    1
    18    20    19    1
    19    20    21    1
    20     6     7   ar
    21     7     8   ar
    22     8    24    1
    23    24    25    1
    24    25    26    1
    25    26    27    1
    26    27    28    1
    27    28    29    1
    28    29    30    1
    29     8     9   ar
    30     9     1   ar
    31     9     5   ar
    32    21    12    1
    33    30    25    1
    34    20    15    1
@<TRIPOS>MOLECULE
*****
 30 34 0 0 0
SMALL
GASTEIGER

@<TRIPOS>ATOM
      1 C           7.9511   -5.9548   27.6476 C.ar    1  UNL1        0.1543
      2 C           8.0321   -7.4396   27.4499 C.ar    1  UNL1        0.0384
      3 C           7.9731   -8.0163   26.0665 C.ar    1  UNL1        0.0032
      4 C           7.8332   -7.1084   24.8807 C.ar    1  UNL1        0.0018
      5 C           7.7522   -5.6237   25.0784 C.ar    1  UNL1        0.0246
      6 C           7.6126   -4.4882   24.1083 C.ar    1  UNL1        0.0722
      7 C           7.5853   -3.2095   24.8922 C.ar    1  UNL1        0.0805
      8 N           7.7080   -3.5549   26.3467 N.ar    1  UNL1       -0.3236
      9 C           7.8111   -5.0470   26.4618 C.ar    1  UNL1        0.0945
     10 C           7.5171   -4.6099   22.6163 C.2     1  UNL1        0.2506
     11 O           8.4873   -5.4776   21.8709 O.2     1  UNL1       -0.2699
     12 N           6.4513   -3.8637   21.8696 N.am    1  UNL1       -0.2732
     13 C           6.3558   -3.9854   20.3776 C.3     1  UNL1        0.1110
     14 C           5.2901   -3.2393   19.6310 C.3     1  UNL1        0.0939
     15 N           4.3198   -2.3715   20.3763 N.3     1  UNL1       -0.2709
     16 C           3.2540   -1.6254   19.6297 C.3     1  UNL1        0.0722
     17 C           2.2838   -0.7576   20.3750 C.3     1  UNL1        0.0174
     18 C           2.3793   -0.6360   21.8670 C.3     1  UNL1        0.0029
     19 C           3.4450   -1.3820   22.6137 C.3     1  UNL1        0.0177
     20 C           4.4153   -2.2498   21.8683 C.3     1  UNL1        0.0774
     21 C           5.4811   -2.9960   22.6150 C.3     1  UNL1        0.1096
     22 C           6.7971   -5.4180   29.9125 C.3     1  UNL1        0.2525
     23 O           8.0100   -5.3780   29.0310 O.3     1  UNL1       -0.4700
     24 C           7.7246   -2.5795   27.4861 C.3     1  UNL1        0.1061
     25 C           6.4386   -1.9989   27.9953 C.3     1  UNL1        0.0226
     26 C           6.3318   -1.5493   29.4223 C.3     1  UNL1        0.0019
     27 C           5.0458   -0.9687   29.9315 C.3     1  UNL1        0.0001
     28 C           3.8667   -0.8378   29.0136 C.3     1  UNL1        0.0000
     29 C           3.9735   -1.2875   27.5866 C.3     1  UNL1        0.0001
     30 C           5.2595   -1.8680   27.0774 C.3     1  UNL1        0.0019
@<TRIPOS>BOND
     1    22    23    1
     2    23     1    1
     3     1     2   ar
     4     2     3   ar
     5     3     4   ar
     6     4     5   ar
     7     5     6   ar
     8     6    10    1
     9    10    11    2
    10    10    12   am
    11    12    13    1
    12    13    14    1
    13    14    15    1
    14    15    16    1
    15    16    17    1
    16    17    18    1
    17    18    19    1
    18    20    19    1
    19    20    21    1
    20     6     7   ar
    21     7     8   ar
    22     8    24    1
    23    24    25    1
    24    25    26    1
    25    26    27    1
    26    27    28    1
    27    28    29    1
    28    29    30    1
    29     8     9   ar
    30     9     1   ar
    31     9     5   ar
    32    21    12    1
    33    30    25    1
    34    20    15    1
@<TRIPOS>MOLECULE
*****
 30 34 0 0 0
SMALL
GASTEIGER

@<TRIPOS>ATOM
      1 C           2.7839    1.8357   22.3660 C.ar    1  UNL1        0.1543
      2 C           3.0191    3.1676   23.0149 C.ar    1  UNL1        0.0384
      3 C           2.3362    4.3924   22.4824 C.ar    1  UNL1        0.0032
      4 C           1.4182    4.2854   21.3010 C.ar    1  UNL1        0.0018
      5 C           1.1831    2.9537   20.6521 C.ar    1  UNL1        0.0246
      6 C           0.3388    2.5422   19.4825 C.ar    1  UNL1        0.0722
      7 C           0.4999    1.0630   19.2921 C.ar    1  UNL1        0.0805
      8 N           1.4437    0.5604   20.3441 N.ar    1  UNL1       -0.3236
      9 C           1.8659    1.7289   21.1846 C.ar    1  UNL1        0.0945
     10 C          -0.5164    3.4504   18.6495 C.2     1  UNL1        0.2506
     11 O          -0.0013    3.9749   17.3421 O.2     1  UNL1       -0.2699
     12 N          -1.8867    3.8340   19.1240 N.am    1  UNL1       -0.2732
     13 C          -2.7419    4.7422   18.2911 C.3     1  UNL1        0.1110
     14 C          -4.1121    5.1258   18.7655 C.3     1  UNL1        0.0939
     15 N          -4.6273    4.6013   20.0731 N.3     1  UNL1       -0.2709
     16 C          -5.9975    4.9849   20.5475 C.3     1  UNL1        0.0722
     17 C          -6.5126    4.4603   21.8550 C.3     1  UNL1        0.0174
     18 C          -5.6574    3.5522   22.6880 C.3     1  UNL1        0.0029
     19 C          -4.2872    3.1685   22.2135 C.3     1  UNL1        0.0177
     20 C          -3.7721    3.6931   20.9060 C.3     1  UNL1        0.0774
     21 C          -2.4018    3.3095   20.4315 C.3     1  UNL1        0.1096
     22 C           2.8406   -0.1714   24.0146 C.3     1  UNL1        0.2525
     23 O           3.4668    0.6109   22.8985 O.3     1  UNL1       -0.4700
     24 C           1.8874   -0.8612   20.5239 C.3     1  UNL1        0.1061
     25 C           3.0130   -1.4061   19.6956 C.3     1  UNL1        0.0226
     26 C           3.3195   -2.8742   19.7197 C.3     1  UNL1        0.0019
     27 C           4.4451   -3.4191   18.8914 C.3     1  UNL1        0.0001
     28 C           5.2642   -2.4959   18.0389 C.3     1  UNL1        0.0000
     29 C           4.9577   -1.0278   18.0148 C.3     1  UNL1        0.0001
     30 C           3.8321   -0.4828   18.8431 C.3     1  UNL1        0.0019
@<TRIPOS>BOND
     1    22    23    1
     2    23     1    1
     3     1     2   ar
     4     2     3   ar
     5     3     4   ar
     6     4     5   ar
     7     5     6   ar
     8     6    10    1
     9    10    11    2
    10    10    12   am
    11    12    13    1
    12    13    14    1
    13    14    15    1
    14    15    16    1
    15    16    17    1
    16    17    18    1
    17    18    19    1
    18    20    19    1
    19    20    21    1
    20     6     7   ar
    21     7     8   ar
    22     8    24    1
    23    24    25    1
    24    25    26    1
    25    26    27    1
    26    27    28    1
    27    28    29    1
    28    29    30    1
    29     8     9   ar
    30     9     1   ar
    31     9     5   ar
    32    21    12    1
    33    30    25    1
    34    20    15    1
@<TRIPOS>MOLECULE
*****
 30 34 0 0 0
SMALL
GASTEIGER

@<TRIPOS>ATOM
      1 C           7.6275   -5.2141   28.9030 C.ar    1  UNL1        0.1543
      2 C           7.5729   -6.1295   30.0902 C.ar    1  UNL1        0.0384
      3 C           7.0945   -5.6124   31.4145 C.ar    1  UNL1        0.0032
      4 C           6.6708   -4.1801   31.5517 C.ar    1  UNL1        0.0018
      5 C           6.7254   -3.2648   30.3646 C.ar    1  UNL1        0.0246
      6 C           6.3749   -1.8159   30.1974 C.ar    1  UNL1        0.0722
      7 C           6.6367   -1.4375   28.7696 C.ar    1  UNL1        0.0805
      8 N           7.1489   -2.6525   28.0546 N.ar    1  UNL1       -0.3236
      9 C           7.2038   -3.7818   29.0403 C.ar    1  UNL1        0.0945
     10 C           5.8541   -0.9054   31.2696 C.2     1  UNL1        0.2506
     11 O           6.7000   -0.5995   32.4699 O.2     1  UNL1       -0.2699
     12 N           4.4874   -0.3007   31.1414 N.am    1  UNL1       -0.2732
     13 C           3.9666    0.6099   32.2136 C.3     1  UNL1        0.1110
     14 C           2.5999    1.2146   32.0855 C.3     1  UNL1        0.0939
     15 N           1.7539    0.9087   30.8851 N.3     1  UNL1       -0.2709
     16 C           0.3872    1.5134   30.7570 C.3     1  UNL1        0.0722
     17 C          -0.4587    1.2076   29.5566 C.3     1  UNL1        0.0174
     18 C           0.0621    0.2970   28.4844 C.3     1  UNL1        0.0029
     19 C           1.4288   -0.3077   28.6126 C.3     1  UNL1        0.0177
     20 C           2.2747   -0.0018   29.8129 C.3     1  UNL1        0.0774
     21 C           3.6415   -0.6065   29.9411 C.3     1  UNL1        0.1096
     22 C           7.1724   -6.5020   26.6930 C.3     1  UNL1        0.2525
     23 O           8.1059   -5.7312   27.5787 O.3     1  UNL1       -0.4700
     24 C           7.5380   -2.7254   26.6077 C.3     1  UNL1        0.1061
     25 C           6.4824   -2.6696   25.5435 C.3     1  UNL1        0.0226
     26 C           6.5106   -3.6484   24.4072 C.3     1  UNL1        0.0019
     27 C           5.4550   -3.5926   23.3429 C.3     1  UNL1        0.0001
     28 C           4.3713   -2.5580   23.4149 C.3     1  UNL1        0.0000
     29 C           4.3432   -1.5792   24.5512 C.3     1  UNL1        0.0001
     30 C           5.3987   -1.6350   25.6155 C.3     1  UNL1        0.0019
@<TRIPOS>BOND
     1    22    23    1
     2    23     1    1
     3     1     2   ar
     4     2     3   ar
     5     3     4   ar
     6     4     5   ar
     7     5     6   ar
     8     6    10    1
     9    10    11    2
    10    10    12   am
    11    12    13    1
    12    13    14    1
    13    14    15    1
    14    15    16    1
    15    16    17    1
    16    17    18    1
    17    18    19    1
    18    20    19    1
    19    20    21    1
    20     6     7   ar
    21     7     8   ar
    22     8    24    1
    23    24    25    1
    24    25    26    1
    25    26    27    1
    26    27    28    1
    27    28    29    1
    28    29    30    1
    29     8     9   ar
    30     9     1   ar
    31     9     5   ar
    32    21    12    1
    33    30    25    1
    34    20    15    1
