@<TRIPOS>MOLECULE
*****
 27 30 0 0 0
SMALL
GASTEIGER

@<TRIPOS>ATOM
      1 N          -6.6028  -16.4216   23.7644 N.ar    1  UNL1       -0.2954
      2 C          -5.1122  -16.4345   23.9320 C.ar    1  UNL1        0.2014
      3 N          -4.7985  -15.9753   25.3251 N.ar    1  UNL1       -0.2136
      4 C          -6.0951  -15.6786   26.0185 C.ar    1  UNL1        0.0999
      5 C          -6.4044  -15.1929   27.4035 C.ar    1  UNL1        0.0207
      6 C          -7.8288  -14.9831   27.8240 C.ar    1  UNL1        0.0016
      7 C          -8.9440  -15.2589   26.8594 C.ar    1  UNL1        0.0016
      8 C          -8.6347  -15.7446   25.4744 C.ar    1  UNL1        0.0188
      9 C          -7.2102  -15.9544   25.0539 C.ar    1  UNL1        0.0801
     10 N          -4.1112  -16.8361   22.8896 N.pl3   1  UNL1       -0.2794
     11 C          -4.1270  -18.2283   22.3315 C.3     1  UNL1        0.0949
     12 C          -3.1260  -18.6299   21.2891 C.3     1  UNL1        0.0375
     13 C          -2.1092  -17.6393   20.8047 C.3     1  UNL1        0.0610
     14 C          -2.0934  -16.2471   21.3627 C.3     1  UNL1        0.0375
     15 C          -3.0944  -15.8455   22.4051 C.3     1  UNL1        0.0949
     16 N          -1.1082  -18.0409   19.7622 N.3     1  UNL1       -0.2715
     17 C           0.2964  -18.3820   20.1632 C.3     1  UNL1        0.0896
     18 C          -1.5118  -18.1014   18.3188 C.3     1  UNL1        0.0896
     19 C          -7.3541  -16.8080   22.5249 C.3     1  UNL1        0.1354
     20 C         -11.7502  -17.7404   22.7570 C.ar    1  UNL1        0.1387
     21 C         -11.2888  -16.4461   22.1555 C.ar    1  UNL1        0.0366
     22 C          -9.8234  -16.1353   22.0782 C.ar    1  UNL1        0.0007
     23 C          -8.8194  -17.1188   22.6023 C.ar    1  UNL1        0.0007
     24 C          -9.2809  -18.4132   23.2038 C.ar    1  UNL1        0.0007
     25 C         -10.7463  -18.7239   23.2811 C.ar    1  UNL1        0.0366
     26 C         -13.9126  -18.0546   24.1627 C.3     1  UNL1        0.2525
     27 O         -13.2157  -18.0512   22.8343 O.3     1  UNL1       -0.4714
@<TRIPOS>BOND
     1    26    27    1
     2    27    20    1
     3    20    21   ar
     4    21    22   ar
     5    22    23   ar
     6    23    19    1
     7    19     1    1
     8     1     2   ar
     9     2    10    1
    10    10    11    1
    11    11    12    1
    12    12    13    1
    13    13    16    1
    14    16    17    1
    15    16    18    1
    16    13    14    1
    17    14    15    1
    18     2     3   ar
    19     3     4   ar
    20     4     5   ar
    21     5     6   ar
    22     6     7   ar
    23     7     8   ar
    24     8     9   ar
    25    23    24   ar
    26    24    25   ar
    27    25    20   ar
    28     9     1   ar
    29    15    10    1
    30     9     4   ar
@<TRIPOS>MOLECULE
*****
 27 30 0 0 0
SMALL
GASTEIGER

@<TRIPOS>ATOM
      1 N         -12.7710   -3.8562   18.7037 N.ar    1  UNL1       -0.2954
      2 C         -13.5679   -2.6606   18.2733 C.ar    1  UNL1        0.2014
      3 N         -12.7930   -1.9471   17.2053 N.ar    1  UNL1       -0.2136
      4 C         -11.5172   -2.7019   16.9757 C.ar    1  UNL1        0.0999
      5 C         -10.3661   -2.4672   16.0430 C.ar    1  UNL1        0.0207
      6 C          -9.2015   -3.4124   16.0363 C.ar    1  UNL1        0.0016
      7 C          -9.1879   -4.5923   16.9624 C.ar    1  UNL1        0.0016
      8 C         -10.3389   -4.8270   17.8951 C.ar    1  UNL1        0.0188
      9 C         -11.5036   -3.8818   17.9017 C.ar    1  UNL1        0.0801
     10 N         -14.9049   -2.2503   18.8156 N.pl3   1  UNL1       -0.2794
     11 C         -15.0409   -0.9710   19.5868 C.3     1  UNL1        0.0949
     12 C         -16.3779   -0.5608   20.1292 C.3     1  UNL1        0.0375
     13 C         -17.5789   -1.4299   19.9003 C.3     1  UNL1        0.0610
     14 C         -17.4428   -2.7092   19.1291 C.3     1  UNL1        0.0375
     15 C         -16.1058   -3.1194   18.5867 C.3     1  UNL1        0.0949
     16 N         -18.9159   -1.0196   20.4426 N.3     1  UNL1       -0.2715
     17 C         -19.9378   -2.0624   20.7865 C.3     1  UNL1        0.0896
     18 C         -19.2310    0.4334   20.6411 C.3     1  UNL1        0.0896
     19 C         -13.1711   -4.8517   19.7520 C.3     1  UNL1        0.1354
     20 C         -14.9838   -8.7886   18.5416 C.ar    1  UNL1        0.1387
     21 C         -15.8057   -7.7841   19.2936 C.ar    1  UNL1        0.0366
     22 C         -15.2015   -6.4718   19.6970 C.ar    1  UNL1        0.0007
     23 C         -13.7753   -6.1639   19.3485 C.ar    1  UNL1        0.0007
     24 C         -12.9534   -7.1685   18.5966 C.ar    1  UNL1        0.0007
     25 C         -13.5577   -8.4807   18.1931 C.ar    1  UNL1        0.0366
     26 C         -16.9726  -10.4596   18.5902 C.3     1  UNL1        0.2525
     27 O         -15.5880  -10.1009   18.1381 O.3     1  UNL1       -0.4714
@<TRIPOS>BOND
     1    26    27    1
     2    27    20    1
     3    20    21   ar
     4    21    22   ar
     5    22    23   ar
     6    23    19    1
     7    19     1    1
     8     1     2   ar
     9     2    10    1
    10    10    11    1
    11    11    12    1
    12    12    13    1
    13    13    16    1
    14    16    17    1
    15    16    18    1
    16    13    14    1
    17    14    15    1
    18     2     3   ar
    19     3     4   ar
    20     4     5   ar
    21     5     6   ar
    22     6     7   ar
    23     7     8   ar
    24     8     9   ar
    25    23    24   ar
    26    24    25   ar
    27    25    20   ar
    28     9     1   ar
    29    15    10    1
    30     9     4   ar
@<TRIPOS>MOLECULE
*****
 27 30 0 0 0
SMALL
GASTEIGER

@<TRIPOS>ATOM
      1 N          -7.4220  -19.5498   21.3385 N.ar    1  UNL1       -0.2954
      2 C          -8.3601  -18.4924   21.8404 C.ar    1  UNL1        0.2014
      3 N          -9.5078  -18.3970   20.8794 N.ar    1  UNL1       -0.2136
      4 C          -9.2791  -19.3954   19.7835 C.ar    1  UNL1        0.0999
      5 C         -10.0781  -19.7477   18.5639 C.ar    1  UNL1        0.0207
      6 C          -9.5880  -20.8125   17.6281 C.ar    1  UNL1        0.0016
      7 C          -8.2989  -21.5251   17.9118 C.ar    1  UNL1        0.0016
      8 C          -7.4999  -21.1727   19.1314 C.ar    1  UNL1        0.0188
      9 C          -7.9900  -20.1079   20.0672 C.ar    1  UNL1        0.0801
     10 N          -8.1817  -17.6742   23.0849 N.pl3   1  UNL1       -0.2794
     11 C          -7.0766  -16.6632   23.1657 C.3     1  UNL1        0.0949
     12 C          -6.8983  -15.8449   24.4102 C.3     1  UNL1        0.0375
     13 C          -7.8250  -16.0377   25.5738 C.3     1  UNL1        0.0610
     14 C          -8.9301  -17.0487   25.4929 C.3     1  UNL1        0.0375
     15 C          -9.1084  -17.8670   24.2484 C.3     1  UNL1        0.0949
     16 N          -7.6466  -15.2195   26.8182 N.3     1  UNL1       -0.2715
     17 C          -6.2767  -14.7668   27.2282 C.3     1  UNL1        0.0896
     18 C          -8.8383  -14.8539   27.6527 C.3     1  UNL1        0.0896
     19 C          -6.1409  -19.9747   21.9928 C.3     1  UNL1        0.1354
     20 C          -2.2971  -17.8548   21.0020 C.ar    1  UNL1        0.1387
     21 C          -2.7912  -17.8893   22.4179 C.ar    1  UNL1        0.0366
     22 C          -4.0724  -18.5959   22.7482 C.ar    1  UNL1        0.0007
     23 C          -4.8597  -19.2681   21.6626 C.ar    1  UNL1        0.0007
     24 C          -4.3656  -19.2336   20.2467 C.ar    1  UNL1        0.0007
     25 C          -3.0843  -18.5270   19.9165 C.ar    1  UNL1        0.0366
     26 C           0.0265  -17.8349   19.8399 C.3     1  UNL1        0.2525
     27 O          -1.0159  -17.1482   20.6718 O.3     1  UNL1       -0.4714
@<TRIPOS>BOND
     1    26    27    1
     2    27    20    1
     3    20    21   ar
     4    21    22   ar
     5    22    23   ar
     6    23    19    1
     7    19     1    1
     8     1     2   ar
     9     2    10    1
    10    10    11    1
    11    11    12    1
    12    12    13    1
    13    13    16    1
    14    16    17    1
    15    16    18    1
    16    13    14    1
    17    14    15    1
    18     2     3   ar
    19     3     4   ar
    20     4     5   ar
    21     5     6   ar
    22     6     7   ar
    23     7     8   ar
    24     8     9   ar
    25    23    24   ar
    26    24    25   ar
    27    25    20   ar
    28     9     1   ar
    29    15    10    1
    30     9     4   ar
@<TRIPOS>MOLECULE
*****
 27 30 0 0 0
SMALL
GASTEIGER

@<TRIPOS>ATOM
      1 N          -8.9370  -17.0752   22.0086 N.ar    1  UNL1       -0.2954
      2 C          -8.3095  -18.3407   21.5040 C.ar    1  UNL1        0.2014
      3 N          -9.4037  -19.3404   21.2730 N.ar    1  UNL1       -0.2136
      4 C         -10.7074  -18.6927   21.6349 C.ar    1  UNL1        0.0999
      5 C         -12.1199  -19.1969   21.6091 C.ar    1  UNL1        0.0207
      6 C         -13.2439  -18.3011   22.0380 C.ar    1  UNL1        0.0016
      7 C         -12.9554  -16.9010   22.4926 C.ar    1  UNL1        0.0016
      8 C         -11.5429  -16.3968   22.5184 C.ar    1  UNL1        0.0188
      9 C         -10.4189  -17.2927   22.0895 C.ar    1  UNL1        0.0801
     10 N          -6.8451  -18.5669   21.2712 N.pl3   1  UNL1       -0.2794
     11 C          -6.3475  -18.9055   19.8973 C.3     1  UNL1        0.0949
     12 C          -4.8831  -19.1316   19.6645 C.3     1  UNL1        0.0375
     13 C          -3.9161  -19.0192   20.8057 C.3     1  UNL1        0.0610
     14 C          -4.4137  -18.6806   22.1796 C.3     1  UNL1        0.0375
     15 C          -5.8781  -18.4544   22.4124 C.3     1  UNL1        0.0949
     16 N          -2.4516  -19.2453   20.5729 N.3     1  UNL1       -0.2715
     17 C          -1.6707  -20.1228   21.5057 C.3     1  UNL1        0.0896
     18 C          -1.7681  -18.5940   19.4074 C.3     1  UNL1        0.0896
     19 C          -8.2101  -15.8135   22.3690 C.3     1  UNL1        0.1354
     20 C          -6.9829  -15.0635   26.6330 C.ar    1  UNL1        0.1387
     21 C          -8.4209  -15.3342   26.3030 C.ar    1  UNL1        0.0366
     22 C          -8.8299  -15.5842   24.8817 C.ar    1  UNL1        0.0007
     23 C          -7.8010  -15.5635   23.7903 C.ar    1  UNL1        0.0007
     24 C          -6.3631  -15.2928   24.1204 C.ar    1  UNL1        0.0007
     25 C          -5.9540  -15.0428   25.5417 C.ar    1  UNL1        0.0366
     26 C          -6.8359  -13.4786   28.6865 C.3     1  UNL1        0.2525
     27 O          -6.5738  -14.8135   28.0543 O.3     1  UNL1       -0.4714
@<TRIPOS>BOND
     1    26    27    1
     2    27    20    1
     3    20    21   ar
     4    21    22   ar
     5    22    23   ar
     6    23    19    1
     7    19     1    1
     8     1     2   ar
     9     2    10    1
    10    10    11    1
    11    11    12    1
    12    12    13    1
    13    13    16    1
    14    16    17    1
    15    16    18    1
    16    13    14    1
    17    14    15    1
    18     2     3   ar
    19     3     4   ar
    20     4     5   ar
    21     5     6   ar
    22     6     7   ar
    23     7     8   ar
    24     8     9   ar
    25    23    24   ar
    26    24    25   ar
    27    25    20   ar
    28     9     1   ar
    29    15    10    1
    30     9     4   ar
@<TRIPOS>MOLECULE
*****
 27 30 0 0 0
SMALL
GASTEIGER

@<TRIPOS>ATOM
      1 N          -3.9379  -18.1473   22.2105 N.ar    1  UNL1       -0.2954
      2 C          -3.8980  -16.8500   22.9625 C.ar    1  UNL1        0.2014
      3 N          -2.7699  -16.0293   22.4113 N.ar    1  UNL1       -0.2136
      4 C          -2.1126  -16.8194   21.3187 C.ar    1  UNL1        0.0999
      5 C          -0.9500  -16.5159   20.4207 C.ar    1  UNL1        0.0207
      6 C          -0.5093  -17.5215   19.3987 C.ar    1  UNL1        0.0016
      7 C          -1.2312  -18.8305   19.2746 C.ar    1  UNL1        0.0016
      8 C          -2.3938  -19.1339   20.1725 C.ar    1  UNL1        0.0188
      9 C          -2.8345  -18.1283   21.1945 C.ar    1  UNL1        0.0801
     10 N          -4.8236  -16.4446   24.0710 N.pl3   1  UNL1       -0.2794
     11 C          -4.4044  -16.6207   25.5004 C.3     1  UNL1        0.0949
     12 C          -5.3300  -16.2153   26.6089 C.3     1  UNL1        0.0375
     13 C          -6.6750  -15.6339   26.2880 C.3     1  UNL1        0.0610
     14 C          -7.0942  -15.4578   24.8587 C.3     1  UNL1        0.0375
     15 C          -6.1686  -15.8632   23.7501 C.3     1  UNL1        0.0949
     16 N          -7.6006  -15.2285   27.3965 N.3     1  UNL1       -0.2715
     17 C          -8.8089  -16.0613   27.7070 C.3     1  UNL1        0.0896
     18 C          -7.3180  -13.9903   28.1946 C.3     1  UNL1        0.0896
     19 C          -4.9105  -19.2669   22.4350 C.3     1  UNL1        0.1354
     20 C          -8.9154  -19.2139   20.3837 C.ar    1  UNL1        0.1387
     21 C          -7.6794  -19.5583   19.6068 C.ar    1  UNL1        0.0366
     22 C          -6.3444  -19.5760   20.2906 C.ar    1  UNL1        0.0007
     23 C          -6.2454  -19.2492   21.7513 C.ar    1  UNL1        0.0007
     24 C          -7.4815  -18.9048   22.5281 C.ar    1  UNL1        0.0007
     25 C          -8.8165  -18.8871   21.8443 C.ar    1  UNL1        0.0366
     26 C         -11.1286  -17.9842   19.8005 C.3     1  UNL1        0.2525
     27 O         -10.2504  -19.1962   19.7000 O.3     1  UNL1       -0.4714
@<TRIPOS>BOND
     1    26    27    1
     2    27    20    1
     3    20    21   ar
     4    21    22   ar
     5    22    23   ar
     6    23    19    1
     7    19     1    1
     8     1     2   ar
     9     2    10    1
    10    10    11    1
    11    11    12    1
    12    12    13    1
    13    13    16    1
    14    16    17    1
    15    16    18    1
    16    13    14    1
    17    14    15    1
    18     2     3   ar
    19     3     4   ar
    20     4     5   ar
    21     5     6   ar
    22     6     7   ar
    23     7     8   ar
    24     8     9   ar
    25    23    24   ar
    26    24    25   ar
    27    25    20   ar
    28     9     1   ar
    29    15    10    1
    30     9     4   ar
@<TRIPOS>MOLECULE
*****
 27 30 0 0 0
SMALL
GASTEIGER

@<TRIPOS>ATOM
      1 N         -12.7421   -2.9938   18.9409 N.ar    1  UNL1       -0.2954
      2 C         -12.9337   -1.7811   18.0791 C.ar    1  UNL1        0.2014
      3 N         -11.8201   -1.7456   17.0749 N.ar    1  UNL1       -0.2136
      4 C         -10.9402   -2.9362   17.3160 C.ar    1  UNL1        0.0999
      5 C          -9.6938   -3.4176   16.6344 C.ar    1  UNL1        0.0207
      6 C          -9.0172   -4.6704   17.1061 C.ar    1  UNL1        0.0016
      7 C          -9.5870   -5.4419   18.2594 C.ar    1  UNL1        0.0016
      8 C         -10.8334   -4.9605   18.9410 C.ar    1  UNL1        0.0188
      9 C         -11.5100   -3.7077   18.4693 C.ar    1  UNL1        0.0801
     10 N         -14.0440   -0.7799   18.2003 N.pl3   1  UNL1       -0.2794
     11 C         -13.7399    0.6318   18.6059 C.3     1  UNL1        0.0949
     12 C         -14.8502    1.6331   18.7271 C.3     1  UNL1        0.0375
     13 C         -16.2647    1.2227   18.4426 C.3     1  UNL1        0.0610
     14 C         -16.5688   -0.1890   18.0370 C.3     1  UNL1        0.0375
     15 C         -15.4584   -1.1903   17.9159 C.3     1  UNL1        0.0949
     16 N         -17.3750    2.2239   18.5638 N.3     1  UNL1       -0.2715
     17 C         -18.7301    1.7877   19.0363 C.3     1  UNL1        0.0896
     18 C         -17.1302    3.6615   18.2125 C.3     1  UNL1        0.0896
     19 C         -13.6271   -3.4181   20.0753 C.3     1  UNL1        0.1354
     20 C         -16.7188   -6.6254   19.4390 C.ar    1  UNL1        0.1387
     21 C         -17.1474   -5.2163   19.7235 C.ar    1  UNL1        0.0366
     22 C         -16.1169   -4.1473   19.9355 C.ar    1  UNL1        0.0007
     23 C         -14.6576   -4.4872   19.8632 C.ar    1  UNL1        0.0007
     24 C         -14.2290   -5.8962   19.5787 C.ar    1  UNL1        0.0007
     25 C         -15.2596   -6.9653   19.3667 C.ar    1  UNL1        0.0366
     26 C         -17.5005   -9.0862   19.7285 C.3     1  UNL1        0.2525
     27 O         -17.7493   -7.6945   19.2269 O.3     1  UNL1       -0.4714
@<TRIPOS>BOND
     1    26    27    1
     2    27    20    1
     3    20    21   ar
     4    21    22   ar
     5    22    23   ar
     6    23    19    1
     7    19     1    1
     8     1     2   ar
     9     2    10    1
    10    10    11    1
    11    11    12    1
    12    12    13    1
    13    13    16    1
    14    16    17    1
    15    16    18    1
    16    13    14    1
    17    14    15    1
    18     2     3   ar
    19     3     4   ar
    20     4     5   ar
    21     5     6   ar
    22     6     7   ar
    23     7     8   ar
    24     8     9   ar
    25    23    24   ar
    26    24    25   ar
    27    25    20   ar
    28     9     1   ar
    29    15    10    1
    30     9     4   ar
@<TRIPOS>MOLECULE
*****
 27 30 0 0 0
SMALL
GASTEIGER

@<TRIPOS>ATOM
      1 N           6.2111   -2.2569   30.2098 N.ar    1  UNL1       -0.2954
      2 C           6.3961   -2.7169   31.6255 C.ar    1  UNL1        0.2014
      3 N           6.8245   -4.1540   31.5937 N.ar    1  UNL1       -0.2136
      4 C           6.9043   -4.5823   30.1584 C.ar    1  UNL1        0.0999
      5 C           7.2731   -5.8884   29.5197 C.ar    1  UNL1        0.0207
      6 C           7.2628   -6.0221   28.0257 C.ar    1  UNL1        0.0016
      7 C           6.8837   -4.8496   27.1704 C.ar    1  UNL1        0.0016
      8 C           6.5148   -3.5435   27.8091 C.ar    1  UNL1        0.0188
      9 C           6.5251   -3.4098   29.3031 C.ar    1  UNL1        0.0801
     10 N           6.1891   -1.8856   32.8568 N.pl3   1  UNL1       -0.2794
     11 C           7.3030   -1.0268   33.3780 C.3     1  UNL1        0.0949
     12 C           7.0960   -0.1955   34.6093 C.3     1  UNL1        0.0375
     13 C           5.7751   -0.2230   35.3195 C.3     1  UNL1        0.0610
     14 C           4.6611   -1.0818   34.7983 C.3     1  UNL1        0.0375
     15 C           4.8682   -1.9131   33.5670 C.3     1  UNL1        0.0949
     16 N           5.5680    0.6083   36.5508 N.3     1  UNL1       -0.2715
     17 C           4.2482    0.5782   37.2628 C.3     1  UNL1        0.0896
     18 C           6.6809    1.4695   37.0701 C.3     1  UNL1        0.0896
     19 C           5.7865   -0.8850   29.7768 C.3     1  UNL1        0.1354
     20 C           1.4214    0.2069   29.7212 C.ar    1  UNL1        0.1387
     21 C           2.2664    0.5548   30.9107 C.ar    1  UNL1        0.0366
     22 C           3.7214    0.1908   30.9292 C.ar    1  UNL1        0.0007
     23 C           4.3316   -0.5210   29.7583 C.ar    1  UNL1        0.0007
     24 C           3.4865   -0.8689   28.5688 C.ar    1  UNL1        0.0007
     25 C           2.0314   -0.5049   28.5503 C.ar    1  UNL1        0.0366
     26 C          -0.9832   -0.1790   28.8159 C.3     1  UNL1        0.2525
     27 O          -0.0337    0.5709   29.7026 O.3     1  UNL1       -0.4714
@<TRIPOS>BOND
     1    26    27    1
     2    27    20    1
     3    20    21   ar
     4    21    22   ar
     5    22    23   ar
     6    23    19    1
     7    19     1    1
     8     1     2   ar
     9     2    10    1
    10    10    11    1
    11    11    12    1
    12    12    13    1
    13    13    16    1
    14    16    17    1
    15    16    18    1
    16    13    14    1
    17    14    15    1
    18     2     3   ar
    19     3     4   ar
    20     4     5   ar
    21     5     6   ar
    22     6     7   ar
    23     7     8   ar
    24     8     9   ar
    25    23    24   ar
    26    24    25   ar
    27    25    20   ar
    28     9     1   ar
    29    15    10    1
    30     9     4   ar
@<TRIPOS>MOLECULE
*****
 27 30 0 0 0
SMALL
GASTEIGER

@<TRIPOS>ATOM
      1 N           3.9735    1.4211   34.3411 N.ar    1  UNL1       -0.2954
      2 C           4.5880    0.1484   34.8437 C.ar    1  UNL1        0.2014
      3 N           4.2913    0.0379   36.3099 N.ar    1  UNL1       -0.2136
      4 C           3.4934    1.2423   36.7134 C.ar    1  UNL1        0.0999
      5 C           2.9203    1.6710   38.0317 C.ar    1  UNL1        0.0207
      6 C           2.1508    2.9545   38.1331 C.ar    1  UNL1        0.0016
      7 C           1.9545    3.8094   36.9163 C.ar    1  UNL1        0.0016
      8 C           2.5275    3.3808   35.5981 C.ar    1  UNL1        0.0188
      9 C           3.2970    2.0972   35.4966 C.ar    1  UNL1        0.0801
     10 N           5.3631   -0.8402   34.0240 N.pl3   1  UNL1       -0.2794
     11 C           4.7187   -2.1229   33.5892 C.3     1  UNL1        0.0949
     12 C           5.4938   -3.1115   32.7695 C.3     1  UNL1        0.0375
     13 C           6.9134   -2.8173   32.3847 C.3     1  UNL1        0.0610
     14 C           7.5579   -1.5346   32.8195 C.3     1  UNL1        0.0375
     15 C           6.7827   -0.5460   33.6392 C.3     1  UNL1        0.0949
     16 N           7.6885   -3.8059   31.5650 N.3     1  UNL1       -0.2715
     17 C           9.1856   -3.8410   31.6506 C.3     1  UNL1        0.0896
     18 C           6.9666   -4.7594   30.6598 C.3     1  UNL1        0.0896
     19 C           4.0263    1.9287   32.9306 C.3     1  UNL1        0.1354
     20 C           1.2360    0.2451   29.8274 C.ar    1  UNL1        0.1387
     21 C           2.5264   -0.4552   30.1346 C.ar    1  UNL1        0.0366
     22 C           3.4565    0.1060   31.1690 C.ar    1  UNL1        0.0007
     23 C           3.0962    1.3676   31.8962 C.ar    1  UNL1        0.0007
     24 C           1.8058    2.0679   31.5889 C.ar    1  UNL1        0.0007
     25 C           0.8757    1.5066   30.5545 C.ar    1  UNL1        0.0366
     26 C          -1.1738   -0.1066   28.9222 C.3     1  UNL1        0.2525
     27 O           0.3059   -0.3161   28.7930 O.3     1  UNL1       -0.4714
@<TRIPOS>BOND
     1    26    27    1
     2    27    20    1
     3    20    21   ar
     4    21    22   ar
     5    22    23   ar
     6    23    19    1
     7    19     1    1
     8     1     2   ar
     9     2    10    1
    10    10    11    1
    11    11    12    1
    12    12    13    1
    13    13    16    1
    14    16    17    1
    15    16    18    1
    16    13    14    1
    17    14    15    1
    18     2     3   ar
    19     3     4   ar
    20     4     5   ar
    21     5     6   ar
    22     6     7   ar
    23     7     8   ar
    24     8     9   ar
    25    23    24   ar
    26    24    25   ar
    27    25    20   ar
    28     9     1   ar
    29    15    10    1
    30     9     4   ar
@<TRIPOS>MOLECULE
*****
 27 30 0 0 0
SMALL
GASTEIGER

@<TRIPOS>ATOM
      1 N           5.1952   -1.6768   20.3955 N.ar    1  UNL1       -0.2954
      2 C           6.4418   -1.9331   21.1895 C.ar    1  UNL1        0.2014
      3 N           7.5926   -1.3046   20.4610 N.ar    1  UNL1       -0.2136
      4 C           7.0573   -0.6599   19.2169 C.ar    1  UNL1        0.0999
      5 C           7.7277    0.1068   18.1157 C.ar    1  UNL1        0.0207
      6 C           6.9163    0.6435   16.9740 C.ar    1  UNL1        0.0016
      7 C           5.4346    0.4135   16.9335 C.ar    1  UNL1        0.0016
      8 C           4.7642   -0.3532   18.0347 C.ar    1  UNL1        0.0188
      9 C           5.5756   -0.8900   19.1764 C.ar    1  UNL1        0.0801
     10 N           6.5233   -2.6857   22.4844 N.pl3   1  UNL1       -0.2794
     11 C           6.0005   -2.0658   23.7463 C.3     1  UNL1        0.0949
     12 C           6.0819   -2.8183   25.0413 C.3     1  UNL1        0.0375
     13 C           6.6861   -4.1908   25.0744 C.3     1  UNL1        0.0610
     14 C           7.2089   -4.8107   23.8125 C.3     1  UNL1        0.0375
     15 C           7.1275   -4.0582   22.5175 C.3     1  UNL1        0.0949
     16 N           6.7676   -4.9434   26.3694 N.3     1  UNL1       -0.2715
     17 C           6.5553   -4.2251   27.6689 C.3     1  UNL1        0.0896
     18 C           7.0613   -6.4143   26.3648 C.3     1  UNL1        0.0896
     19 C           3.8112   -2.1281   20.7572 C.3     1  UNL1        0.1354
     20 C           0.5679    0.9091   21.4682 C.ar    1  UNL1        0.1387
     21 C           1.6930    0.7695   22.4504 C.ar    1  UNL1        0.0366
     22 C           2.7741   -0.2429   22.2133 C.ar    1  UNL1        0.0007
     23 C           2.7301   -1.1157   20.9941 C.ar    1  UNL1        0.0007
     24 C           1.6050   -0.9760   20.0120 C.ar    1  UNL1        0.0007
     25 C           0.5239    0.0364   20.2491 C.ar    1  UNL1        0.0366
     26 C          -1.0679    2.7097   20.5557 C.3     1  UNL1        0.2525
     27 O          -0.5132    1.9216   21.7053 O.3     1  UNL1       -0.4714
@<TRIPOS>BOND
     1    26    27    1
     2    27    20    1
     3    20    21   ar
     4    21    22   ar
     5    22    23   ar
     6    23    19    1
     7    19     1    1
     8     1     2   ar
     9     2    10    1
    10    10    11    1
    11    11    12    1
    12    12    13    1
    13    13    16    1
    14    16    17    1
    15    16    18    1
    16    13    14    1
    17    14    15    1
    18     2     3   ar
    19     3     4   ar
    20     4     5   ar
    21     5     6   ar
    22     6     7   ar
    23     7     8   ar
    24     8     9   ar
    25    23    24   ar
    26    24    25   ar
    27    25    20   ar
    28     9     1   ar
    29    15    10    1
    30     9     4   ar
