@<TRIPOS>MOLECULE
*****
 28 31 0 0 0
SMALL
GASTEIGER

@<TRIPOS>ATOM
      1 O          -4.8957  -21.5308   19.5246 O.2     1  UNL1       -0.2699
      2 C          -4.7844  -20.1779   20.1627 C.2     1  UNL1        0.2494
      3 N          -6.0133  -19.4871   20.6753 N.am    1  UNL1       -0.2670
      4 C          -7.3533  -20.1492   20.5498 C.3     1  UNL1        0.1186
      5 C          -8.5821  -19.4584   21.0624 C.3     1  UNL1        0.1302
      6 N          -8.4708  -18.1054   21.7005 N.ar    1  UNL1       -0.2944
      7 C          -7.1308  -17.4433   21.8260 C.ar    1  UNL1        0.1636
      8 N          -7.3304  -16.1165   22.4966 N.ar    1  UNL1       -0.1315
      9 N          -8.7938  -15.9586   22.7856 N.ar    1  UNL1       -0.1274
     10 C          -9.4987  -17.1878   22.2936 C.ar    1  UNL1        0.1840
     11 C          -5.9020  -18.1341   21.3134 C.3     1  UNL1        0.1599
     12 C          -3.4444  -19.5158   20.2881 C.ar    1  UNL1        0.0537
     13 C          -2.6681  -19.6300   21.5666 C.ar    1  UNL1        0.0068
     14 C          -1.3280  -18.9678   21.6920 C.ar    1  UNL1        0.0298
     15 C          -0.7642  -18.1914   20.5390 C.ar    1  UNL1        0.1401
     16 F           0.5759  -17.5293   20.6645 F       1  UNL1       -0.2042
     17 C          -1.5404  -18.0773   19.2606 C.ar    1  UNL1        0.0298
     18 C          -2.8805  -18.7394   19.1351 C.ar    1  UNL1        0.0068
     19 C         -10.9725  -17.4529   22.3795 C.ar    1  UNL1        0.1170
     20 C         -11.8286  -17.3345   21.1535 C.ar    1  UNL1        0.0223
     21 C         -13.3025  -17.5997   21.2396 C.ar    1  UNL1        0.0031
     22 C         -13.9202  -17.9832   22.5515 C.ar    1  UNL1        0.0231
     23 C         -13.0641  -18.1016   23.7775 C.ar    1  UNL1        0.1527
     24 N         -11.5903  -17.8365   23.6915 N.ar    1  UNL1       -0.2383
     25 C         -13.6819  -18.4852   25.0895 C.3     1  UNL1        0.4348
     26 F         -14.2997  -18.8687   26.4015 F       1  UNL1       -0.1644
     27 F         -12.3317  -18.8805   25.6097 F       1  UNL1       -0.1644
     28 F         -15.0321  -18.0898   24.5693 F       1  UNL1       -0.1644
@<TRIPOS>BOND
     1     1     2    2
     2     2    12    1
     3    12    13   ar
     4    13    14   ar
     5    14    15   ar
     6    15    16    1
     7    15    17   ar
     8    17    18   ar
     9     2     3   am
    10     3     4    1
    11     4     5    1
    12     5     6    1
    13     6     7   ar
    14     7     8   ar
    15     8     9   ar
    16     9    10   ar
    17    10    19    1
    18    19    20   ar
    19    20    21   ar
    20    21    22   ar
    21    22    23   ar
    22    23    25    1
    23    25    26    1
    24    25    27    1
    25    25    28    1
    26    23    24   ar
    27     7    11    1
    28    18    12   ar
    29    11     3    1
    30    10     6   ar
    31    24    19   ar
@<TRIPOS>MOLECULE
*****
 28 31 0 0 0
SMALL
GASTEIGER

@<TRIPOS>ATOM
      1 O          -0.4113    5.2289   24.7644 O.2     1  UNL1       -0.2699
      2 C          -1.2878    4.2283   25.4577 C.2     1  UNL1        0.2494
      3 N          -0.6801    3.2023   26.3678 N.am    1  UNL1       -0.2670
      4 C           0.8039    3.1770   26.5845 C.3     1  UNL1        0.1186
      5 C           1.4115    2.1510   27.4945 C.3     1  UNL1        0.1302
      6 N           0.5351    1.1504   28.1878 N.ar    1  UNL1       -0.2944
      7 C          -0.9489    1.1757   27.9711 C.ar    1  UNL1        0.1636
      8 N          -1.5551    0.0708   28.7845 N.ar    1  UNL1       -0.1315
      9 N          -0.4457   -0.6375   29.5040 N.ar    1  UNL1       -0.1274
     10 C           0.8461    0.0297   29.1352 C.ar    1  UNL1        0.1840
     11 C          -1.5565    2.2017   27.0611 C.3     1  UNL1        0.1599
     12 C          -2.7718    4.2537   25.2410 C.ar    1  UNL1        0.0537
     13 C          -3.6540    5.0207   26.1809 C.ar    1  UNL1        0.0068
     14 C          -5.1381    5.0460   25.9641 C.ar    1  UNL1        0.0298
     15 C          -5.7399    4.3043   24.8075 C.ar    1  UNL1        0.1401
     16 F          -7.2239    4.3297   24.5908 F       1  UNL1       -0.2042
     17 C          -4.8576    3.5373   23.8676 C.ar    1  UNL1        0.0298
     18 C          -3.3736    3.5120   24.0843 C.ar    1  UNL1        0.0068
     19 C           2.2096   -0.3559   29.6274 C.ar    1  UNL1        0.1170
     20 C           3.3547   -0.4547   28.6636 C.ar    1  UNL1        0.0223
     21 C           4.7181   -0.8403   29.1558 C.ar    1  UNL1        0.0031
     22 C           4.9364   -1.1273   30.6118 C.ar    1  UNL1        0.0231
     23 C           3.7913   -1.0285   31.5757 C.ar    1  UNL1        0.1527
     24 N           2.4279   -0.6429   31.0834 N.ar    1  UNL1       -0.2383
     25 C           4.0096   -1.3155   33.0317 C.3     1  UNL1        0.4348
     26 F           4.2280   -1.6024   34.4877 F       1  UNL1       -0.1644
     27 F           4.6834   -2.6076   32.6760 F       1  UNL1       -0.1644
     28 F           3.3359   -0.0233   33.3873 F       1  UNL1       -0.1644
@<TRIPOS>BOND
     1     1     2    2
     2     2    12    1
     3    12    13   ar
     4    13    14   ar
     5    14    15   ar
     6    15    16    1
     7    15    17   ar
     8    17    18   ar
     9     2     3   am
    10     3     4    1
    11     4     5    1
    12     5     6    1
    13     6     7   ar
    14     7     8   ar
    15     8     9   ar
    16     9    10   ar
    17    10    19    1
    18    19    20   ar
    19    20    21   ar
    20    21    22   ar
    21    22    23   ar
    22    23    25    1
    23    25    26    1
    24    25    27    1
    25    25    28    1
    26    23    24   ar
    27     7    11    1
    28    18    12   ar
    29    11     3    1
    30    10     6   ar
    31    24    19   ar
@<TRIPOS>MOLECULE
*****
 28 31 0 0 0
SMALL
GASTEIGER

@<TRIPOS>ATOM
      1 O           3.5355   -3.5460   18.9901 O.2     1  UNL1       -0.2699
      2 C           3.4632   -2.4074   19.9640 C.2     1  UNL1        0.2494
      3 N           4.1584   -2.5088   21.2893 N.am    1  UNL1       -0.2670
      4 C           4.9258   -3.7488   21.6408 C.3     1  UNL1        0.1186
      5 C           5.6209   -3.8501   22.9661 C.3     1  UNL1        0.1302
      6 N           5.5487   -2.7115   23.9399 N.ar    1  UNL1       -0.2944
      7 C           4.7813   -1.4716   23.5885 C.ar    1  UNL1        0.1636
      8 N           4.8862   -0.5189   24.7423 N.ar    1  UNL1       -0.1315
      9 N           5.7185   -1.1701   25.8069 N.ar    1  UNL1       -0.1274
     10 C           6.1279   -2.5252   25.3110 C.ar    1  UNL1        0.1840
     11 C           4.0862   -1.3702   22.2632 C.3     1  UNL1        0.1599
     12 C           2.6958   -1.1674   19.6125 C.ar    1  UNL1        0.0537
     13 C           3.2798   -0.1696   18.6568 C.ar    1  UNL1        0.0068
     14 C           2.5123    1.0704   18.3054 C.ar    1  UNL1        0.0298
     15 C           1.1610    1.3126   18.9097 C.ar    1  UNL1        0.1401
     16 F           0.3936    2.5525   18.5582 F       1  UNL1       -0.2042
     17 C           0.5770    0.3148   19.8654 C.ar    1  UNL1        0.0298
     18 C           1.3444   -0.9252   20.2168 C.ar    1  UNL1        0.0068
     19 C           6.9689   -3.5195   26.0555 C.ar    1  UNL1        0.1170
     20 C           8.2360   -4.0380   25.4427 C.ar    1  UNL1        0.0223
     21 C           9.0769   -5.0323   26.1872 C.ar    1  UNL1        0.0031
     22 C           8.6508   -5.5080   27.5444 C.ar    1  UNL1        0.0231
     23 C           7.3837   -4.9895   28.1572 C.ar    1  UNL1        0.1527
     24 N           6.5428   -3.9952   27.4127 N.ar    1  UNL1       -0.2383
     25 C           6.9575   -5.4652   29.5144 C.3     1  UNL1        0.4348
     26 F           6.5313   -5.9409   30.8716 F       1  UNL1       -0.1644
     27 F           7.6508   -6.7733   29.2736 F       1  UNL1       -0.1644
     28 F           6.2642   -4.1570   29.7552 F       1  UNL1       -0.1644
@<TRIPOS>BOND
     1     1     2    2
     2     2    12    1
     3    12    13   ar
     4    13    14   ar
     5    14    15   ar
     6    15    16    1
     7    15    17   ar
     8    17    18   ar
     9     2     3   am
    10     3     4    1
    11     4     5    1
    12     5     6    1
    13     6     7   ar
    14     7     8   ar
    15     8     9   ar
    16     9    10   ar
    17    10    19    1
    18    19    20   ar
    19    20    21   ar
    20    21    22   ar
    21    22    23   ar
    22    23    25    1
    23    25    26    1
    24    25    27    1
    25    25    28    1
    26    23    24   ar
    27     7    11    1
    28    18    12   ar
    29    11     3    1
    30    10     6   ar
    31    24    19   ar
@<TRIPOS>MOLECULE
*****
 28 31 0 0 0
SMALL
GASTEIGER

@<TRIPOS>ATOM
      1 O           8.7126   -5.9446   26.8059 O.2     1  UNL1       -0.2699
      2 C           7.8973   -4.7593   27.2307 C.2     1  UNL1        0.2494
      3 N           7.0141   -4.0622   26.2386 N.am    1  UNL1       -0.2670
      4 C           6.9461   -4.5504   24.8220 C.3     1  UNL1        0.1186
      5 C           6.0629   -3.8533   23.8301 C.3     1  UNL1        0.1302
      6 N           5.2476   -2.6680   24.2548 N.ar    1  UNL1       -0.2944
      7 C           5.3156   -2.1798   25.6715 C.ar    1  UNL1        0.1636
      8 N           4.4040   -0.9954   25.7978 N.ar    1  UNL1       -0.1315
      9 N           3.7726   -0.7515   24.4592 N.ar    1  UNL1       -0.1274
     10 C           4.2940   -1.7853   23.5055 C.ar    1  UNL1        0.1840
     11 C           6.1988   -2.8769   26.6634 C.3     1  UNL1        0.1599
     12 C           7.9653   -4.2711   28.6473 C.ar    1  UNL1        0.0537
     13 C           9.0113   -3.2732   29.0474 C.ar    1  UNL1        0.0068
     14 C           9.0793   -2.7850   30.4641 C.ar    1  UNL1        0.0298
     15 C           8.1012   -3.2947   31.4807 C.ar    1  UNL1        0.1401
     16 F           8.1692   -2.8065   32.8974 F       1  UNL1       -0.2042
     17 C           7.0552   -4.2926   31.0807 C.ar    1  UNL1        0.0298
     18 C           6.9872   -4.7808   29.6640 C.ar    1  UNL1        0.0068
     19 C           3.9263   -1.9138   22.0570 C.ar    1  UNL1        0.1170
     20 C           3.1435   -0.8264   21.3826 C.ar    1  UNL1        0.0223
     21 C           2.7759   -0.9550   19.9340 C.ar    1  UNL1        0.0031
     22 C           3.1911   -2.1709   19.1599 C.ar    1  UNL1        0.0231
     23 C           3.9739   -3.2583   19.8343 C.ar    1  UNL1        0.1527
     24 N           4.3415   -3.1297   21.2829 N.ar    1  UNL1       -0.2383
     25 C           4.3891   -4.4741   19.0602 C.3     1  UNL1        0.4348
     26 F           4.8042   -5.6900   18.2861 F       1  UNL1       -0.1644
     27 F           3.4138   -5.3043   19.8410 F       1  UNL1       -0.1644
     28 F           5.3643   -3.6440   18.2794 F       1  UNL1       -0.1644
@<TRIPOS>BOND
     1     1     2    2
     2     2    12    1
     3    12    13   ar
     4    13    14   ar
     5    14    15   ar
     6    15    16    1
     7    15    17   ar
     8    17    18   ar
     9     2     3   am
    10     3     4    1
    11     4     5    1
    12     5     6    1
    13     6     7   ar
    14     7     8   ar
    15     8     9   ar
    16     9    10   ar
    17    10    19    1
    18    19    20   ar
    19    20    21   ar
    20    21    22   ar
    21    22    23   ar
    22    23    25    1
    23    25    26    1
    24    25    27    1
    25    25    28    1
    26    23    24   ar
    27     7    11    1
    28    18    12   ar
    29    11     3    1
    30    10     6   ar
    31    24    19   ar
@<TRIPOS>MOLECULE
*****
 28 31 0 0 0
SMALL
GASTEIGER

@<TRIPOS>ATOM
      1 O           3.5928   -0.9134   16.5942 O.2     1  UNL1       -0.2699
      2 C           3.6138   -0.9886   18.0922 C.2     1  UNL1        0.2494
      3 N           2.6636   -0.1535   18.8984 N.am    1  UNL1       -0.2670
      4 C           1.6926    0.7567   18.2067 C.3     1  UNL1        0.1186
      5 C           0.7425    1.5917   19.0129 C.3     1  UNL1        0.1302
      6 N           0.7634    1.5165   20.5108 N.ar    1  UNL1       -0.2944
      7 C           1.7344    0.6063   21.2026 C.ar    1  UNL1        0.1636
      8 N           1.5242    0.7422   22.6816 N.ar    1  UNL1       -0.1315
      9 N           0.4233    1.7365   22.9039 N.ar    1  UNL1       -0.1274
     10 C          -0.0469    2.2151   21.5623 C.ar    1  UNL1        0.1840
     11 C           2.6845   -0.2287   20.3964 C.3     1  UNL1        0.1599
     12 C           4.5848   -1.8988   18.7840 C.ar    1  UNL1        0.0537
     13 C           5.9368   -1.3877   19.1849 C.ar    1  UNL1        0.0068
     14 C           6.9079   -2.2981   19.8767 C.ar    1  UNL1        0.0298
     15 C           6.5268   -3.7194   20.1675 C.ar    1  UNL1        0.1401
     16 F           7.4978   -4.6296   20.8593 F       1  UNL1       -0.2042
     17 C           5.1748   -4.2305   19.7666 C.ar    1  UNL1        0.0298
     18 C           4.2038   -3.3202   19.0748 C.ar    1  UNL1        0.0068
     19 C          -1.1362    3.2163   21.3155 C.ar    1  UNL1        0.1170
     20 C          -0.9384    4.6512   21.7052 C.ar    1  UNL1        0.0223
     21 C          -2.0277    5.6524   21.4584 C.ar    1  UNL1        0.0031
     22 C          -3.3148    5.2187   20.8217 C.ar    1  UNL1        0.0231
     23 C          -3.5126    3.7838   20.4319 C.ar    1  UNL1        0.1527
     24 N          -2.4233    2.7827   20.6788 N.ar    1  UNL1       -0.2383
     25 C          -4.7997    3.3502   19.7953 C.3     1  UNL1        0.4348
     26 F          -6.0868    2.9165   19.1587 F       1  UNL1       -0.1644
     27 F          -5.4124    3.1749   21.1532 F       1  UNL1       -0.1644
     28 F          -4.1871    3.5254   18.4374 F       1  UNL1       -0.1644
@<TRIPOS>BOND
     1     1     2    2
     2     2    12    1
     3    12    13   ar
     4    13    14   ar
     5    14    15   ar
     6    15    16    1
     7    15    17   ar
     8    17    18   ar
     9     2     3   am
    10     3     4    1
    11     4     5    1
    12     5     6    1
    13     6     7   ar
    14     7     8   ar
    15     8     9   ar
    16     9    10   ar
    17    10    19    1
    18    19    20   ar
    19    20    21   ar
    20    21    22   ar
    21    22    23   ar
    22    23    25    1
    23    25    26    1
    24    25    27    1
    25    25    28    1
    26    23    24   ar
    27     7    11    1
    28    18    12   ar
    29    11     3    1
    30    10     6   ar
    31    24    19   ar
@<TRIPOS>MOLECULE
*****
 28 31 0 0 0
SMALL
GASTEIGER

@<TRIPOS>ATOM
      1 O           2.4405   -0.4565   29.6277 O.2     1  UNL1       -0.2699
      2 C           1.7482    0.8666   29.7702 C.2     1  UNL1        0.2494
      3 N           1.7687    1.5858   31.0864 N.am    1  UNL1       -0.2670
      4 C           2.4814    0.9820   32.2601 C.3     1  UNL1        0.1186
      5 C           2.5019    1.7013   33.5762 C.3     1  UNL1        0.1302
      6 N           1.8096    3.0244   33.7187 N.ar    1  UNL1       -0.2944
      7 C           1.0969    3.6282   32.5450 C.ar    1  UNL1        0.1636
      8 N           0.5079    4.9362   32.9833 N.ar    1  UNL1       -0.1315
      9 N           0.8565    5.1408   34.4278 N.ar    1  UNL1       -0.1274
     10 C           1.6610    3.9592   34.8823 C.ar    1  UNL1        0.1840
     11 C           1.0765    2.9089   31.2289 C.3     1  UNL1        0.1599
     12 C           1.0355    1.4704   28.5966 C.ar    1  UNL1        0.0537
     13 C          -0.4322    1.2278   28.4045 C.ar    1  UNL1        0.0068
     14 C          -1.1449    1.8317   27.2308 C.ar    1  UNL1        0.0298
     15 C          -0.3898    2.6781   26.2493 C.ar    1  UNL1        0.1401
     16 F          -1.1025    3.2819   25.0757 F       1  UNL1       -0.2042
     17 C           1.0779    2.9206   26.4413 C.ar    1  UNL1        0.0298
     18 C           1.7906    2.3168   27.6150 C.ar    1  UNL1        0.0068
     19 C           2.2190    3.7493   36.2588 C.ar    1  UNL1        0.1170
     20 C           3.1490    4.7646   36.8540 C.ar    1  UNL1        0.0223
     21 C           3.7069    4.5547   38.2304 C.ar    1  UNL1        0.0031
     22 C           3.3349    3.3294   39.0116 C.ar    1  UNL1        0.0231
     23 C           2.4049    2.3140   38.4164 C.ar    1  UNL1        0.1527
     24 N           1.8470    2.5240   37.0400 N.ar    1  UNL1       -0.2383
     25 C           2.0330    1.0888   39.1977 C.3     1  UNL1        0.4348
     26 F           1.6610   -0.1365   39.9789 F       1  UNL1       -0.1644
     27 F           0.6135    1.5677   39.2730 F       1  UNL1       -0.1644
     28 F           3.4524    0.6098   39.1224 F       1  UNL1       -0.1644
@<TRIPOS>BOND
     1     1     2    2
     2     2    12    1
     3    12    13   ar
     4    13    14   ar
     5    14    15   ar
     6    15    16    1
     7    15    17   ar
     8    17    18   ar
     9     2     3   am
    10     3     4    1
    11     4     5    1
    12     5     6    1
    13     6     7   ar
    14     7     8   ar
    15     8     9   ar
    16     9    10   ar
    17    10    19    1
    18    19    20   ar
    19    20    21   ar
    20    21    22   ar
    21    22    23   ar
    22    23    25    1
    23    25    26    1
    24    25    27    1
    25    25    28    1
    26    23    24   ar
    27     7    11    1
    28    18    12   ar
    29    11     3    1
    30    10     6   ar
    31    24    19   ar
@<TRIPOS>MOLECULE
*****
 28 31 0 0 0
SMALL
GASTEIGER

@<TRIPOS>ATOM
      1 O           4.8851   -1.7543   27.7126 O.2     1  UNL1       -0.2699
      2 C           3.8225   -0.8046   27.2447 C.2     1  UNL1        0.2494
      3 N           3.5519   -0.6456   25.7778 N.am    1  UNL1       -0.2670
      4 C           4.3438   -1.4362   24.7790 C.3     1  UNL1        0.1186
      5 C           4.0732   -1.2772   23.3123 C.3     1  UNL1        0.1302
      6 N           3.0106   -0.3275   22.8443 N.ar    1  UNL1       -0.2944
      7 C           2.2186    0.4630   23.8431 C.ar    1  UNL1        0.1636
      8 N           1.2417    1.3161   23.0894 N.ar    1  UNL1       -0.1315
      9 N           1.4300    1.0527   21.6248 N.ar    1  UNL1       -0.1274
     10 C           2.5232    0.0369   21.4733 C.ar    1  UNL1        0.1840
     11 C           2.4892    0.3040   25.3099 C.3     1  UNL1        0.1599
     12 C           3.0305   -0.0140   28.2435 C.ar    1  UNL1        0.0537
     13 C           1.6900   -0.5096   28.6992 C.ar    1  UNL1        0.0068
     14 C           0.8980    0.2811   29.6980 C.ar    1  UNL1        0.0298
     15 C           1.4465    1.5672   30.2412 C.ar    1  UNL1        0.1401
     16 F           0.6545    2.3578   31.2399 F       1  UNL1       -0.2042
     17 C           2.7869    2.0628   29.7855 C.ar    1  UNL1        0.0298
     18 C           3.5789    1.2722   28.7867 C.ar    1  UNL1        0.0068
     19 C           3.0386   -0.5172   20.1782 C.ar    1  UNL1        0.1170
     20 C           3.1766    0.3770   18.9818 C.ar    1  UNL1        0.0223
     21 C           3.6919   -0.1772   17.6867 C.ar    1  UNL1        0.0031
     22 C           4.0694   -1.6256   17.5880 C.ar    1  UNL1        0.0231
     23 C           3.9314   -2.5198   18.7844 C.ar    1  UNL1        0.1527
     24 N           3.4160   -1.9656   20.0794 N.ar    1  UNL1       -0.2383
     25 C           4.3088   -3.9682   18.6857 C.3     1  UNL1        0.4348
     26 F           4.6862   -5.4166   18.5870 F       1  UNL1       -0.1644
     27 F           2.8878   -4.3576   18.9665 F       1  UNL1       -0.1644
     28 F           5.7299   -3.5788   18.4048 F       1  UNL1       -0.1644
@<TRIPOS>BOND
     1     1     2    2
     2     2    12    1
     3    12    13   ar
     4    13    14   ar
     5    14    15   ar
     6    15    16    1
     7    15    17   ar
     8    17    18   ar
     9     2     3   am
    10     3     4    1
    11     4     5    1
    12     5     6    1
    13     6     7   ar
    14     7     8   ar
    15     8     9   ar
    16     9    10   ar
    17    10    19    1
    18    19    20   ar
    19    20    21   ar
    20    21    22   ar
    21    22    23   ar
    22    23    25    1
    23    25    26    1
    24    25    27    1
    25    25    28    1
    26    23    24   ar
    27     7    11    1
    28    18    12   ar
    29    11     3    1
    30    10     6   ar
    31    24    19   ar
@<TRIPOS>MOLECULE
*****
 28 31 0 0 0
SMALL
GASTEIGER

@<TRIPOS>ATOM
      1 O          -4.0602  -21.3210   19.6123 O.2     1  UNL1       -0.2699
      2 C          -3.9416  -19.9894   20.2927 C.2     1  UNL1        0.2494
      3 N          -5.0972  -19.4427   21.0775 N.am    1  UNL1       -0.2670
      4 C          -6.3712  -20.2275   21.1818 C.3     1  UNL1        0.1186
      5 C          -7.5267  -19.6807   21.9665 C.3     1  UNL1        0.1302
      6 N          -7.4082  -18.3492   22.6470 N.ar    1  UNL1       -0.2944
      7 C          -6.1342  -17.5644   22.5426 C.ar    1  UNL1        0.1636
      8 N          -6.3099  -16.2906   23.3149 N.ar    1  UNL1       -0.1315
      9 N          -7.6926  -16.2881   23.8966 N.ar    1  UNL1       -0.1274
     10 C          -8.3714  -17.5604   23.4838 C.ar    1  UNL1        0.1840
     11 C          -4.9787  -18.1112   21.7579 C.3     1  UNL1        0.1599
     12 C          -2.6676  -19.2046   20.1884 C.ar    1  UNL1        0.0537
     13 C          -2.3189  -18.5077   18.9067 C.ar    1  UNL1        0.0068
     14 C          -1.0448  -17.7228   18.8024 C.ar    1  UNL1        0.0298
     15 C          -0.1195  -17.6350   19.9798 C.ar    1  UNL1        0.1401
     16 F           1.1545  -16.8502   19.8754 F       1  UNL1       -0.2042
     17 C          -0.4682  -18.3320   21.2614 C.ar    1  UNL1        0.0298
     18 C          -1.7423  -19.1168   21.3657 C.ar    1  UNL1        0.0068
     19 C          -9.7681  -17.9717   23.8444 C.ar    1  UNL1        0.1170
     20 C         -10.0532  -18.5521   25.1978 C.ar    1  UNL1        0.0223
     21 C         -11.4499  -18.9634   25.5583 C.ar    1  UNL1        0.0031
     22 C         -12.5615  -18.7943   24.5655 C.ar    1  UNL1        0.0231
     23 C         -12.2764  -18.2138   23.2120 C.ar    1  UNL1        0.1527
     24 N         -10.8797  -17.8026   22.8515 N.ar    1  UNL1       -0.2383
     25 C         -13.3879  -18.0447   22.2192 C.3     1  UNL1        0.4348
     26 F         -14.4995  -17.8755   21.2264 F       1  UNL1       -0.1644
     27 F         -14.3950  -18.2504   23.3117 F       1  UNL1       -0.1644
     28 F         -12.3809  -17.8390   21.1267 F       1  UNL1       -0.1644
@<TRIPOS>BOND
     1     1     2    2
     2     2    12    1
     3    12    13   ar
     4    13    14   ar
     5    14    15   ar
     6    15    16    1
     7    15    17   ar
     8    17    18   ar
     9     2     3   am
    10     3     4    1
    11     4     5    1
    12     5     6    1
    13     6     7   ar
    14     7     8   ar
    15     8     9   ar
    16     9    10   ar
    17    10    19    1
    18    19    20   ar
    19    20    21   ar
    20    21    22   ar
    21    22    23   ar
    22    23    25    1
    23    25    26    1
    24    25    27    1
    25    25    28    1
    26    23    24   ar
    27     7    11    1
    28    18    12   ar
    29    11     3    1
    30    10     6   ar
    31    24    19   ar
@<TRIPOS>MOLECULE
*****
 28 31 0 0 0
SMALL
GASTEIGER

@<TRIPOS>ATOM
      1 O           5.5453   -0.8636   35.4001 O.2     1  UNL1       -0.2699
      2 C           4.8593    0.4388   35.6886 C.2     1  UNL1        0.2494
      3 N           3.9260    1.0352   34.6770 N.am    1  UNL1       -0.2670
      4 C           3.6786    0.3292   33.3769 C.3     1  UNL1        0.1186
      5 C           2.7453    0.9255   32.3654 C.3     1  UNL1        0.1302
      6 N           2.0594    2.2279   32.6539 N.ar    1  UNL1       -0.2944
      7 C           2.3067    2.9340   33.9540 C.ar    1  UNL1        0.1636
      8 N           1.4941    4.1947   33.9588 N.ar    1  UNL1       -0.1315
      9 N           0.7444    4.2679   32.6616 N.ar    1  UNL1       -0.1274
     10 C           1.0938    3.0523   31.8551 C.ar    1  UNL1        0.1840
     11 C           3.2401    2.3376   34.9656 C.3     1  UNL1        0.1599
     12 C           5.1067    1.1449   36.9887 C.ar    1  UNL1        0.0537
     13 C           4.0064    1.2582   38.0018 C.ar    1  UNL1        0.0068
     14 C           4.2538    1.9643   39.3020 C.ar    1  UNL1        0.0298
     15 C           5.6015    2.5570   39.5889 C.ar    1  UNL1        0.1401
     16 F           5.8489    3.2630   40.8890 F       1  UNL1       -0.2042
     17 C           6.7019    2.4436   38.5758 C.ar    1  UNL1        0.0298
     18 C           6.4545    1.7376   37.2757 C.ar    1  UNL1        0.0068
     19 C           0.5696    2.7196   30.4896 C.ar    1  UNL1        0.1170
     20 C           0.7438    3.6929   29.3617 C.ar    1  UNL1        0.0223
     21 C           0.2196    3.3601   27.9963 C.ar    1  UNL1        0.0031
     22 C          -0.4787    2.0540   27.7588 C.ar    1  UNL1        0.0231
     23 C          -0.6530    1.0807   28.8867 C.ar    1  UNL1        0.1527
     24 N          -0.1288    1.4135   30.2521 N.ar    1  UNL1       -0.2383
     25 C          -1.3514   -0.2254   28.6492 C.3     1  UNL1        0.4348
     26 F          -2.0497   -1.5315   28.4117 F       1  UNL1       -0.1644
     27 F          -2.1874   -0.0011   29.8742 F       1  UNL1       -0.1644
     28 F          -0.5153   -0.4497   27.4242 F       1  UNL1       -0.1644
@<TRIPOS>BOND
     1     1     2    2
     2     2    12    1
     3    12    13   ar
     4    13    14   ar
     5    14    15   ar
     6    15    16    1
     7    15    17   ar
     8    17    18   ar
     9     2     3   am
    10     3     4    1
    11     4     5    1
    12     5     6    1
    13     6     7   ar
    14     7     8   ar
    15     8     9   ar
    16     9    10   ar
    17    10    19    1
    18    19    20   ar
    19    20    21   ar
    20    21    22   ar
    21    22    23   ar
    22    23    25    1
    23    25    26    1
    24    25    27    1
    25    25    28    1
    26    23    24   ar
    27     7    11    1
    28    18    12   ar
    29    11     3    1
    30    10     6   ar
    31    24    19   ar
