@<TRIPOS>MOLECULE
*****
 32 34 0 0 0
SMALL
GASTEIGER

@<TRIPOS>ATOM
      1 N          -8.5167  -16.9766   22.9690 N.pl3   1  UNL1       -0.3037
      2 C          -9.9461  -17.3481   23.2311 C.ar    1  UNL1        0.0490
      3 C         -10.2992  -18.1664   24.4376 C.ar    1  UNL1        0.0153
      4 C         -11.7286  -18.5380   24.6998 C.ar    1  UNL1        0.0124
      5 C         -12.8049  -18.0913   23.7554 C.ar    1  UNL1        0.0791
      6 C         -12.4519  -17.2730   22.5488 C.ar    1  UNL1        0.0685
      7 CL        -13.5282  -16.8263   21.6044 Cl      1  UNL1       -0.0815
      8 C         -11.0225  -16.9014   22.2866 C.ar    1  UNL1        0.0266
      9 C         -14.2343  -18.4629   24.0175 C.1     1  UNL1        0.1013
     10 N         -15.6638  -18.8345   24.2796 N.1     1  UNL1       -0.1908
     11 N          -5.6658  -18.9123   21.1827 N.3     1  UNL1       -0.1577
     12 C          -6.8405  -19.8019   20.9018 C.3     1  UNL1        0.0972
     13 C          -8.0514  -19.1850   21.5368 C.3     1  UNL1        0.0403
     14 C          -7.6251  -17.9142   22.2101 C.3     1  UNL1        0.0922
     15 C          -6.1507  -17.7457   21.9913 C.3     1  UNL1        0.1151
     16 S          -4.2541  -19.1480   20.7339 S.O2    1  UNL1        0.0421
     17 O          -4.5840  -18.5665   19.3911 O.2     1  UNL1       -0.1573
     18 O          -3.9242  -19.7296   22.0766 O.2     1  UNL1       -0.1573
     19 C          -2.3790  -18.8566   18.9592 C.3     1  UNL1        0.0270
     20 C          -2.8424  -19.3837   20.2850 C.3     1  UNL1        0.1459
     21 C          -1.8940  -20.1464   21.1618 C.3     1  UNL1        0.0270
     22 C          -7.9789  -15.6674   23.4657 C.3     1  UNL1        0.1176
     23 C          -7.5993  -15.5114   24.9085 C.ar    1  UNL1        0.0015
     24 C          -8.6651  -15.3443   25.9506 C.ar    1  UNL1       -0.0027
     25 C          -8.2855  -15.1884   27.3934 C.ar    1  UNL1       -0.0003
     26 C          -6.8401  -15.1996   27.7941 C.ar    1  UNL1       -0.0001
     27 C          -5.7742  -15.3667   26.7519 C.ar    1  UNL1        0.0036
     28 C          -6.1538  -15.5226   25.3092 C.ar    1  UNL1        0.0691
     29 C          -5.0880  -15.6898   24.2671 C.3     1  UNL1        0.4183
     30 F          -4.0221  -15.8569   23.2250 F       1  UNL1       -0.1659
     31 F          -5.5962  -14.4730   23.5521 F       1  UNL1       -0.1659
     32 F          -4.5797  -16.9065   24.9820 F       1  UNL1       -0.1659
@<TRIPOS>BOND
     1    19    20    1
     2    20    21    1
     3    20    16    1
     4    16    17    2
     5    16    18    2
     6    16    11    1
     7    11    12    1
     8    12    13    1
     9    13    14    1
    10    14     1    1
    11     1    22    1
    12    22    23    1
    13    23    24   ar
    14    24    25   ar
    15    25    26   ar
    16    26    27   ar
    17    27    28   ar
    18    28    29    1
    19    29    30    1
    20    29    31    1
    21    29    32    1
    22     1     2    1
    23     2     3   ar
    24     3     4   ar
    25     4     5   ar
    26     5     9    1
    27     9    10    3
    28     5     6   ar
    29     6     7    1
    30     6     8   ar
    31    14    15    1
    32    15    11    1
    33    28    23   ar
    34     8     2   ar
@<TRIPOS>MOLECULE
*****
 32 34 0 0 0
SMALL
GASTEIGER

@<TRIPOS>ATOM
      1 N          -8.1024  -18.8463   21.4674 N.pl3   1  UNL1       -0.3037
      2 C          -8.2092  -18.0441   22.7303 C.ar    1  UNL1        0.0490
      3 C          -8.8082  -18.6583   23.9607 C.ar    1  UNL1        0.0153
      4 C          -8.9149  -17.8560   25.2236 C.ar    1  UNL1        0.0124
      5 C          -8.4227  -16.4395   25.2561 C.ar    1  UNL1        0.0791
      6 C          -7.8236  -15.8252   24.0257 C.ar    1  UNL1        0.0685
      7 CL         -7.3314  -14.4087   24.0583 Cl      1  UNL1       -0.0815
      8 C          -7.7169  -16.6275   22.7628 C.ar    1  UNL1        0.0266
      9 C          -8.5294  -15.6373   26.5191 C.1     1  UNL1        0.1013
     10 N          -8.6362  -14.8350   27.7820 N.1     1  UNL1       -0.1908
     11 N          -4.4607  -19.2229   20.1781 N.3     1  UNL1       -0.1577
     12 C          -4.9104  -20.6538   20.1985 C.3     1  UNL1        0.0972
     13 C          -6.3294  -20.6869   20.6840 C.3     1  UNL1        0.0403
     14 C          -6.7566  -19.2764   20.9636 C.3     1  UNL1        0.0922
     15 C          -5.6017  -18.3717   20.6510 C.3     1  UNL1        0.1151
     16 S          -3.1077  -18.7298   19.7586 S.O2    1  UNL1        0.0421
     17 O          -2.4607  -19.7947   20.5938 O.2     1  UNL1       -0.1573
     18 O          -3.7546  -17.6650   18.9234 O.2     1  UNL1       -0.1573
     19 C          -1.5268  -17.7808   17.9282 C.3     1  UNL1        0.0270
     20 C          -1.7546  -18.2368   19.3390 C.3     1  UNL1        0.1459
     21 C          -0.6294  -18.1996   20.3302 C.3     1  UNL1        0.0270
     22 C          -9.3414  -19.2185   20.7083 C.3     1  UNL1        0.1176
     23 C         -10.5299  -18.3034   20.7175 C.ar    1  UNL1        0.0015
     24 C         -10.6268  -17.1897   19.7175 C.ar    1  UNL1       -0.0027
     25 C         -11.8153  -16.2746   19.7267 C.ar    1  UNL1       -0.0003
     26 C         -12.9070  -16.4733   20.7360 C.ar    1  UNL1       -0.0001
     27 C         -12.8102  -17.5871   21.7362 C.ar    1  UNL1        0.0036
     28 C         -11.6217  -18.5022   21.7269 C.ar    1  UNL1        0.0691
     29 C         -11.5248  -19.6159   22.7269 C.3     1  UNL1        0.4183
     30 F         -11.4280  -20.7297   23.7270 F       1  UNL1       -0.1659
     31 F         -11.7860  -18.6417   23.8372 F       1  UNL1       -0.1659
     32 F         -11.2636  -20.5901   21.6167 F       1  UNL1       -0.1659
@<TRIPOS>BOND
     1    19    20    1
     2    20    21    1
     3    20    16    1
     4    16    17    2
     5    16    18    2
     6    16    11    1
     7    11    12    1
     8    12    13    1
     9    13    14    1
    10    14     1    1
    11     1    22    1
    12    22    23    1
    13    23    24   ar
    14    24    25   ar
    15    25    26   ar
    16    26    27   ar
    17    27    28   ar
    18    28    29    1
    19    29    30    1
    20    29    31    1
    21    29    32    1
    22     1     2    1
    23     2     3   ar
    24     3     4   ar
    25     4     5   ar
    26     5     9    1
    27     9    10    3
    28     5     6   ar
    29     6     7    1
    30     6     8   ar
    31    14    15    1
    32    15    11    1
    33    28    23   ar
    34     8     2   ar
@<TRIPOS>MOLECULE
*****
 32 34 0 0 0
SMALL
GASTEIGER

@<TRIPOS>ATOM
      1 N          -8.2252  -18.4012   21.8208 N.pl3   1  UNL1       -0.3037
      2 C          -8.1772  -17.6096   23.0940 C.ar    1  UNL1        0.0490
      3 C          -9.2009  -17.8476   24.1642 C.ar    1  UNL1        0.0153
      4 C          -9.1530  -17.0560   25.4373 C.ar    1  UNL1        0.0124
      5 C          -8.0813  -16.0263   25.6404 C.ar    1  UNL1        0.0791
      6 C          -7.0575  -15.7883   24.5702 C.ar    1  UNL1        0.0685
      7 CL         -5.9859  -14.7586   24.7732 Cl      1  UNL1       -0.0815
      8 C          -7.1055  -16.5799   23.2970 C.ar    1  UNL1        0.0266
      9 C          -8.0334  -15.2347   26.9136 C.1     1  UNL1        0.1013
     10 N          -7.9854  -14.4431   28.1868 N.1     1  UNL1       -0.1908
     11 N          -4.7129  -19.1176   20.3321 N.3     1  UNL1       -0.1577
     12 C          -5.3160  -20.4911   20.3258 C.3     1  UNL1        0.0972
     13 C          -6.7052  -20.3899   20.8828 C.3     1  UNL1        0.0403
     14 C          -6.9605  -18.9539   21.2332 C.3     1  UNL1        0.0922
     15 C          -5.7293  -18.1676   20.8928 C.3     1  UNL1        0.1151
     16 S          -3.3354  -18.7574   19.8603 S.O2    1  UNL1        0.0421
     17 O          -3.9115  -17.6589   19.0168 O.2     1  UNL1       -0.1573
     18 O          -2.7592  -19.8559   20.7038 O.2     1  UNL1       -0.1573
     19 C          -1.7689  -17.7538   18.0468 C.3     1  UNL1        0.0270
     20 C          -1.9578  -18.3972   19.3886 C.3     1  UNL1        0.1459
     21 C          -0.7692  -18.6805   20.2586 C.3     1  UNL1        0.0270
     22 C          -9.5377  -18.6402   21.1352 C.3     1  UNL1        0.1176
     23 C         -10.8211  -18.2948   21.8308 C.ar    1  UNL1        0.0015
     24 C         -11.3757  -19.2118   22.8802 C.ar    1  UNL1       -0.0027
     25 C         -12.6590  -18.8664   23.5758 C.ar    1  UNL1       -0.0003
     26 C         -13.3877  -17.6040   23.2219 C.ar    1  UNL1       -0.0001
     27 C         -12.8330  -16.6869   22.1724 C.ar    1  UNL1        0.0036
     28 C         -11.5497  -17.0323   21.4769 C.ar    1  UNL1        0.0691
     29 C         -10.9950  -16.1153   20.4274 C.3     1  UNL1        0.4183
     30 F         -10.4403  -15.1982   19.3780 F       1  UNL1       -0.1659
     31 F         -10.1459  -15.4420   21.4646 F       1  UNL1       -0.1659
     32 F         -11.8441  -16.7886   19.3903 F       1  UNL1       -0.1659
@<TRIPOS>BOND
     1    19    20    1
     2    20    21    1
     3    20    16    1
     4    16    17    2
     5    16    18    2
     6    16    11    1
     7    11    12    1
     8    12    13    1
     9    13    14    1
    10    14     1    1
    11     1    22    1
    12    22    23    1
    13    23    24   ar
    14    24    25   ar
    15    25    26   ar
    16    26    27   ar
    17    27    28   ar
    18    28    29    1
    19    29    30    1
    20    29    31    1
    21    29    32    1
    22     1     2    1
    23     2     3   ar
    24     3     4   ar
    25     4     5   ar
    26     5     9    1
    27     9    10    3
    28     5     6   ar
    29     6     7    1
    30     6     8   ar
    31    14    15    1
    32    15    11    1
    33    28    23   ar
    34     8     2   ar
@<TRIPOS>MOLECULE
*****
 32 34 0 0 0
SMALL
GASTEIGER

@<TRIPOS>ATOM
      1 N          -8.3449  -16.8889   22.4596 N.pl3   1  UNL1       -0.3037
      2 C          -7.3567  -17.8586   21.8823 C.ar    1  UNL1        0.0490
      3 C          -7.6933  -18.6184   20.6336 C.ar    1  UNL1        0.0153
      4 C          -6.7051  -19.5880   20.0562 C.ar    1  UNL1        0.0124
      5 C          -5.3803  -19.7978   20.7276 C.ar    1  UNL1        0.0791
      6 C          -5.0436  -19.0379   21.9764 C.ar    1  UNL1        0.0685
      7 CL         -3.7188  -19.2477   22.6478 Cl      1  UNL1       -0.0815
      8 C          -6.0318  -18.0683   22.5537 C.ar    1  UNL1        0.0266
      9 C          -4.3921  -20.7674   20.1503 C.1     1  UNL1        0.1013
     10 N          -3.4039  -21.7370   19.5729 N.1     1  UNL1       -0.1908
     11 N         -12.0779  -17.7558   23.0754 N.3     1  UNL1       -0.1577
     12 C         -12.0645  -17.5732   21.5865 C.3     1  UNL1        0.0972
     13 C         -10.6644  -17.2262   21.1747 C.3     1  UNL1        0.0403
     14 C          -9.8126  -17.1944   22.4090 C.3     1  UNL1        0.0922
     15 C         -10.6861  -17.5217   23.5836 C.3     1  UNL1        0.1151
     16 S         -13.2730  -18.1102   23.9094 S.O2    1  UNL1        0.0421
     17 O         -12.3669  -18.5509   25.0206 O.2     1  UNL1       -0.1573
     18 O         -14.1793  -17.6695   22.7983 O.2     1  UNL1       -0.1573
     19 C         -15.7872  -18.7416   24.0847 C.3     1  UNL1        0.0270
     20 C         -14.4683  -18.4646   24.7435 C.3     1  UNL1        0.1459
     21 C         -14.3448  -18.5421   26.2364 C.3     1  UNL1        0.0270
     22 C          -7.8654  -15.6139   23.0876 C.3     1  UNL1        0.1176
     23 C          -7.5735  -15.5656   24.5581 C.ar    1  UNL1        0.0015
     24 C          -8.7011  -15.4930   25.5446 C.ar    1  UNL1       -0.0027
     25 C          -8.4091  -15.4447   27.0151 C.ar    1  UNL1       -0.0003
     26 C          -6.9896  -15.4690   27.4991 C.ar    1  UNL1       -0.0001
     27 C          -5.8619  -15.5416   26.5126 C.ar    1  UNL1        0.0036
     28 C          -6.1539  -15.5899   25.0421 C.ar    1  UNL1        0.0691
     29 C          -5.0263  -15.6625   24.0556 C.3     1  UNL1        0.4183
     30 F          -3.8987  -15.7351   23.0691 F       1  UNL1       -0.1659
     31 F          -5.6355  -14.5349   23.2763 F       1  UNL1       -0.1659
     32 F          -4.4171  -16.7901   24.8349 F       1  UNL1       -0.1659
@<TRIPOS>BOND
     1    19    20    1
     2    20    21    1
     3    20    16    1
     4    16    17    2
     5    16    18    2
     6    16    11    1
     7    11    12    1
     8    12    13    1
     9    13    14    1
    10    14     1    1
    11     1    22    1
    12    22    23    1
    13    23    24   ar
    14    24    25   ar
    15    25    26   ar
    16    26    27   ar
    17    27    28   ar
    18    28    29    1
    19    29    30    1
    20    29    31    1
    21    29    32    1
    22     1     2    1
    23     2     3   ar
    24     3     4   ar
    25     4     5   ar
    26     5     9    1
    27     9    10    3
    28     5     6   ar
    29     6     7    1
    30     6     8   ar
    31    14    15    1
    32    15    11    1
    33    28    23   ar
    34     8     2   ar
@<TRIPOS>MOLECULE
*****
 32 34 0 0 0
SMALL
GASTEIGER

@<TRIPOS>ATOM
      1 N          -8.1473  -18.3959   23.0105 N.pl3   1  UNL1       -0.3037
      2 C          -7.8935  -17.4336   24.1329 C.ar    1  UNL1        0.0490
      3 C          -8.8717  -17.3269   25.2649 C.ar    1  UNL1        0.0153
      4 C          -8.6179  -16.3646   26.3873 C.ar    1  UNL1        0.0124
      5 C          -7.3858  -15.5091   26.3775 C.ar    1  UNL1        0.0791
      6 C          -6.4075  -15.6158   25.2454 C.ar    1  UNL1        0.0685
      7 CL         -5.1755  -14.7603   25.2357 Cl      1  UNL1       -0.0815
      8 C          -6.6613  -16.5781   24.1231 C.ar    1  UNL1        0.0266
      9 C          -7.1320  -14.5468   27.4999 C.1     1  UNL1        0.1013
     10 N          -6.8782  -13.5846   28.6222 N.1     1  UNL1       -0.1908
     11 N          -4.8933  -18.9853   20.9783 N.3     1  UNL1       -0.1577
     12 C          -5.6046  -20.2896   20.7711 C.3     1  UNL1        0.0972
     13 C          -6.9102  -20.2275   21.5073 C.3     1  UNL1        0.0403
     14 C          -7.0056  -18.8849   22.1693 C.3     1  UNL1        0.0922
     15 C          -5.7592  -18.1172   21.8423 C.3     1  UNL1        0.1151
     16 S          -3.5517  -18.6143   20.4194 S.O2    1  UNL1        0.0421
     17 O          -3.3663  -17.6184   21.5257 O.2     1  UNL1       -0.1573
     18 O          -3.7370  -19.6101   19.3131 O.2     1  UNL1       -0.1573
     19 C          -2.0917  -17.7812   18.4384 C.3     1  UNL1        0.0270
     20 C          -2.2101  -18.2433   19.8606 C.3     1  UNL1        0.1459
     21 C          -0.9868  -18.3342   20.7239 C.3     1  UNL1        0.0270
     22 C          -9.5426  -18.8691   22.7294 C.3     1  UNL1        0.1176
     23 C         -10.5074  -17.9741   22.0097 C.ar    1  UNL1        0.0015
     24 C         -11.1551  -16.8321   22.7350 C.ar    1  UNL1       -0.0027
     25 C         -12.1200  -15.9371   22.0152 C.ar    1  UNL1       -0.0003
     26 C         -12.4371  -16.1841   20.5701 C.ar    1  UNL1       -0.0001
     27 C         -11.7893  -17.3263   19.8447 C.ar    1  UNL1        0.0036
     28 C         -10.8245  -18.2212   20.5645 C.ar    1  UNL1        0.0691
     29 C         -10.1768  -19.3633   19.8392 C.3     1  UNL1        0.4183
     30 F          -9.5291  -20.5053   19.1139 F       1  UNL1       -0.1659
     31 F         -11.2150  -20.2985   20.3845 F       1  UNL1       -0.1659
     32 F          -9.1386  -18.4281   19.2938 F       1  UNL1       -0.1659
@<TRIPOS>BOND
     1    19    20    1
     2    20    21    1
     3    20    16    1
     4    16    17    2
     5    16    18    2
     6    16    11    1
     7    11    12    1
     8    12    13    1
     9    13    14    1
    10    14     1    1
    11     1    22    1
    12    22    23    1
    13    23    24   ar
    14    24    25   ar
    15    25    26   ar
    16    26    27   ar
    17    27    28   ar
    18    28    29    1
    19    29    30    1
    20    29    31    1
    21    29    32    1
    22     1     2    1
    23     2     3   ar
    24     3     4   ar
    25     4     5   ar
    26     5     9    1
    27     9    10    3
    28     5     6   ar
    29     6     7    1
    30     6     8   ar
    31    14    15    1
    32    15    11    1
    33    28    23   ar
    34     8     2   ar
@<TRIPOS>MOLECULE
*****
 32 34 0 0 0
SMALL
GASTEIGER

@<TRIPOS>ATOM
      1 N           2.4114   -0.5208   21.1540 N.pl3   1  UNL1       -0.3037
      2 C           2.9245   -0.7479   22.5451 C.ar    1  UNL1        0.0490
      3 C           3.9334   -1.8269   22.8056 C.ar    1  UNL1        0.0153
      4 C           4.4465   -2.0539   24.1966 C.ar    1  UNL1        0.0124
      5 C           3.9508   -1.2019   25.3273 C.ar    1  UNL1        0.0791
      6 C           2.9419   -0.1228   25.0668 C.ar    1  UNL1        0.0685
      7 CL          2.4462    0.7291   26.1975 Cl      1  UNL1       -0.0815
      8 C           2.4288    0.1042   23.6757 C.ar    1  UNL1        0.0266
      9 C           4.4640   -1.4290   26.7184 C.1     1  UNL1        0.1013
     10 N           4.9771   -1.6560   28.1095 N.1     1  UNL1       -0.1908
     11 N           0.0401    2.4293   20.2940 N.3     1  UNL1       -0.1577
     12 C           1.3774    3.1064   20.2373 C.3     1  UNL1        0.0972
     13 C           2.4285    2.0836   20.5525 C.3     1  UNL1        0.0403
     14 C           1.7407    0.7745   20.8041 C.3     1  UNL1        0.0922
     15 C           0.2646    0.9882   20.6443 C.3     1  UNL1        0.1151
     16 S          -1.2885    3.0792   20.0443 S.O2    1  UNL1        0.0421
     17 O          -0.8633    3.4105   18.6445 O.2     1  UNL1       -0.1573
     18 O          -1.7137    2.7479   21.4441 O.2     1  UNL1       -0.1573
     19 C          -2.7834    4.6785   18.6451 C.3     1  UNL1        0.0270
     20 C          -2.6171    3.7292   19.7946 C.3     1  UNL1        0.1459
     21 C          -3.7794    3.4299   20.6943 C.3     1  UNL1        0.0270
     22 C           2.5689   -1.5890   20.1128 C.3     1  UNL1        0.1176
     23 C           3.8521   -1.7042   19.3446 C.ar    1  UNL1        0.0015
     24 C           4.4845   -0.4796   18.7529 C.ar    1  UNL1       -0.0027
     25 C           5.7677   -0.5948   17.9847 C.ar    1  UNL1       -0.0003
     26 C           6.4185   -1.9347   17.8082 C.ar    1  UNL1       -0.0001
     27 C           5.7860   -3.1594   18.3999 C.ar    1  UNL1        0.0036
     28 C           4.5028   -3.0442   19.1681 C.ar    1  UNL1        0.0691
     29 C           3.8704   -4.2689   19.7598 C.3     1  UNL1        0.4183
     30 F           3.2379   -5.4936   20.3515 F       1  UNL1       -0.1659
     31 F           2.9398   -4.3552   18.5866 F       1  UNL1       -0.1659
     32 F           4.8009   -4.1826   20.9330 F       1  UNL1       -0.1659
@<TRIPOS>BOND
     1    19    20    1
     2    20    21    1
     3    20    16    1
     4    16    17    2
     5    16    18    2
     6    16    11    1
     7    11    12    1
     8    12    13    1
     9    13    14    1
    10    14     1    1
    11     1    22    1
    12    22    23    1
    13    23    24   ar
    14    24    25   ar
    15    25    26   ar
    16    26    27   ar
    17    27    28   ar
    18    28    29    1
    19    29    30    1
    20    29    31    1
    21    29    32    1
    22     1     2    1
    23     2     3   ar
    24     3     4   ar
    25     4     5   ar
    26     5     9    1
    27     9    10    3
    28     5     6   ar
    29     6     7    1
    30     6     8   ar
    31    14    15    1
    32    15    11    1
    33    28    23   ar
    34     8     2   ar
@<TRIPOS>MOLECULE
*****
 32 34 0 0 0
SMALL
GASTEIGER

@<TRIPOS>ATOM
      1 N           4.2379   -1.7524   22.9020 N.pl3   1  UNL1       -0.3037
      2 C           3.6351   -0.9751   24.0345 C.ar    1  UNL1        0.0490
      3 C           2.6568    0.1261   23.7514 C.ar    1  UNL1        0.0153
      4 C           2.0540    0.9034   24.8839 C.ar    1  UNL1        0.0124
      5 C           2.4296    0.5794   26.2995 C.ar    1  UNL1        0.0791
      6 C           3.4079   -0.5219   26.5827 C.ar    1  UNL1        0.0685
      7 CL          3.7835   -0.8458   27.9983 Cl      1  UNL1       -0.0815
      8 C           4.0107   -1.2991   25.4502 C.ar    1  UNL1        0.0266
      9 C           1.8268    1.3566   27.4320 C.1     1  UNL1        0.1013
     10 N           1.2240    2.1339   28.5645 N.1     1  UNL1       -0.1908
     11 N           7.1337   -4.2455   23.5835 N.3     1  UNL1       -0.1577
     12 C           7.8975   -3.0024   23.2347 C.3     1  UNL1        0.0972
     13 C           6.9056   -1.9172   22.9370 C.3     1  UNL1        0.0403
     14 C           5.5289   -2.4896   23.1018 C.3     1  UNL1        0.0922
     15 C           5.6699   -3.9285   23.5013 C.3     1  UNL1        0.1151
     16 S           7.7292   -5.5724   23.9501 S.O2    1  UNL1        0.0421
     17 O           7.4090   -5.3175   25.3932 O.2     1  UNL1       -0.1573
     18 O           8.0494   -5.8275   22.5070 O.2     1  UNL1       -0.1573
     19 C           7.8121   -7.6471   25.5119 C.3     1  UNL1        0.0270
     20 C           8.3247   -6.8995   24.3167 C.3     1  UNL1        0.1459
     21 C           9.4327   -7.4789   23.4881 C.3     1  UNL1        0.0270
     22 C           3.5497   -1.7924   21.5699 C.3     1  UNL1        0.1176
     23 C           4.3343   -1.5581   20.3130 C.ar    1  UNL1        0.0015
     24 C           4.8440   -0.1843   19.9922 C.ar    1  UNL1       -0.0027
     25 C           5.6285    0.0500   18.7354 C.ar    1  UNL1       -0.0003
     26 C           5.9034   -1.0894   17.7994 C.ar    1  UNL1       -0.0001
     27 C           5.3936   -2.4633   18.1202 C.ar    1  UNL1        0.0036
     28 C           4.6091   -2.6976   19.3770 C.ar    1  UNL1        0.0691
     29 C           4.0993   -4.0713   19.6978 C.3     1  UNL1        0.4183
     30 F           3.5896   -5.4451   20.0186 F       1  UNL1       -0.1659
     31 F           5.4162   -4.4124   20.3298 F       1  UNL1       -0.1659
     32 F           2.7825   -3.7303   19.0659 F       1  UNL1       -0.1659
@<TRIPOS>BOND
     1    19    20    1
     2    20    21    1
     3    20    16    1
     4    16    17    2
     5    16    18    2
     6    16    11    1
     7    11    12    1
     8    12    13    1
     9    13    14    1
    10    14     1    1
    11     1    22    1
    12    22    23    1
    13    23    24   ar
    14    24    25   ar
    15    25    26   ar
    16    26    27   ar
    17    27    28   ar
    18    28    29    1
    19    29    30    1
    20    29    31    1
    21    29    32    1
    22     1     2    1
    23     2     3   ar
    24     3     4   ar
    25     4     5   ar
    26     5     9    1
    27     9    10    3
    28     5     6   ar
    29     6     7    1
    30     6     8   ar
    31    14    15    1
    32    15    11    1
    33    28    23   ar
    34     8     2   ar
@<TRIPOS>MOLECULE
*****
 32 34 0 0 0
SMALL
GASTEIGER

@<TRIPOS>ATOM
      1 N           3.5036   -1.2052   22.2061 N.pl3   1  UNL1       -0.3037
      2 C           2.7577   -0.3076   21.2638 C.ar    1  UNL1        0.0490
      3 C           1.3828   -0.6855   20.7983 C.ar    1  UNL1        0.0153
      4 C           0.6368    0.2121   19.8560 C.ar    1  UNL1        0.0124
      5 C           1.2658    1.4876   19.3792 C.ar    1  UNL1        0.0791
      6 C           2.6408    1.8656   19.8447 C.ar    1  UNL1        0.0685
      7 CL          3.2697    3.1412   19.3679 Cl      1  UNL1       -0.0815
      8 C           3.3867    0.9680   20.7870 C.ar    1  UNL1        0.0266
      9 C           0.5198    2.3852   18.4369 C.1     1  UNL1        0.1013
     10 N          -0.2261    3.2828   17.4947 N.1     1  UNL1       -0.1908
     11 N           4.0499   -0.9752   26.0420 N.3     1  UNL1       -0.1577
     12 C           2.9920    0.0683   25.8368 C.3     1  UNL1        0.0972
     13 C           2.6586    0.1092   24.3748 C.3     1  UNL1        0.0403
     14 C           3.5105   -0.9091   23.6766 C.3     1  UNL1        0.0922
     15 C           4.3703   -1.5793   24.7069 C.3     1  UNL1        0.1151
     16 S           4.6772   -1.3490   27.3522 S.O2    1  UNL1        0.0421
     17 O           6.0387   -1.2310   26.7339 O.2     1  UNL1       -0.1573
     18 O           3.3156   -1.4671   27.9705 O.2     1  UNL1       -0.1573
     19 C           4.9096   -1.0003   29.9163 C.3     1  UNL1        0.0270
     20 C           5.3045   -1.7229   28.6624 C.3     1  UNL1        0.1459
     21 C           6.3266   -2.8192   28.7189 C.3     1  UNL1        0.0270
     22 C           4.2427   -2.3988   21.6779 C.3     1  UNL1        0.1176
     23 C           5.2564   -2.2301   20.5851 C.ar    1  UNL1        0.0015
     24 C           6.4642   -1.3693   20.8089 C.ar    1  UNL1       -0.0027
     25 C           7.4778   -1.2007   19.7161 C.ar    1  UNL1       -0.0003
     26 C           7.2836   -1.8928   18.3996 C.ar    1  UNL1       -0.0001
     27 C           6.0757   -2.7536   18.1758 C.ar    1  UNL1        0.0036
     28 C           5.0621   -2.9223   19.2686 C.ar    1  UNL1        0.0691
     29 C           3.8542   -3.7830   19.0448 C.3     1  UNL1        0.4183
     30 F           2.6464   -4.6438   18.8211 F       1  UNL1       -0.1659
     31 F           3.0445   -2.5626   18.7209 F       1  UNL1       -0.1659
     32 F           4.6639   -5.0034   19.3687 F       1  UNL1       -0.1659
@<TRIPOS>BOND
     1    19    20    1
     2    20    21    1
     3    20    16    1
     4    16    17    2
     5    16    18    2
     6    16    11    1
     7    11    12    1
     8    12    13    1
     9    13    14    1
    10    14     1    1
    11     1    22    1
    12    22    23    1
    13    23    24   ar
    14    24    25   ar
    15    25    26   ar
    16    26    27   ar
    17    27    28   ar
    18    28    29    1
    19    29    30    1
    20    29    31    1
    21    29    32    1
    22     1     2    1
    23     2     3   ar
    24     3     4   ar
    25     4     5   ar
    26     5     9    1
    27     9    10    3
    28     5     6   ar
    29     6     7    1
    30     6     8   ar
    31    14    15    1
    32    15    11    1
    33    28    23   ar
    34     8     2   ar
@<TRIPOS>MOLECULE
*****
 32 34 0 0 0
SMALL
GASTEIGER

@<TRIPOS>ATOM
      1 N           6.6394   -2.6594   25.9215 N.pl3   1  UNL1       -0.3037
      2 C           5.6766   -2.0589   26.9026 C.ar    1  UNL1        0.0490
      3 C           4.3559   -1.5287   26.4288 C.ar    1  UNL1        0.0153
      4 C           3.3931   -0.9283   27.4098 C.ar    1  UNL1        0.0124
      5 C           3.7511   -0.8580   28.8648 C.ar    1  UNL1        0.0791
      6 C           5.0718   -1.3882   29.3387 C.ar    1  UNL1        0.0685
      7 CL          5.4298   -1.3179   30.7936 Cl      1  UNL1       -0.0815
      8 C           6.0346   -1.9887   28.3576 C.ar    1  UNL1        0.0266
      9 C           2.7883   -0.2575   29.8459 C.1     1  UNL1        0.1013
     10 N           1.8255    0.3430   30.8269 N.1     1  UNL1       -0.1908
     11 N           5.8277   -2.6819   22.1260 N.3     1  UNL1       -0.1577
     12 C           6.5649   -1.3821   22.2570 C.3     1  UNL1        0.0972
     13 C           6.9587   -1.2155   23.6949 C.3     1  UNL1        0.0403
     14 C           6.4648   -2.4123   24.4523 C.3     1  UNL1        0.0922
     15 C           5.7658   -3.3185   23.4827 C.3     1  UNL1        0.1151
     16 S           5.2532   -3.2459   20.8604 S.O2    1  UNL1        0.0421
     17 O           4.6133   -4.3531   21.6443 O.2     1  UNL1       -0.1573
     18 O           5.8930   -2.1386   20.0764 O.2     1  UNL1       -0.1573
     19 C           3.6754   -4.9233   19.6575 C.3     1  UNL1        0.0270
     20 C           4.6787   -3.8099   19.5948 C.3     1  UNL1        0.1459
     21 C           5.1074   -3.2606   18.2665 C.3     1  UNL1        0.0270
     22 C           7.7766   -3.5070   26.4096 C.3     1  UNL1        0.1176
     23 C           7.8266   -4.9659   26.0646 C.ar    1  UNL1        0.0015
     24 C           8.3047   -5.4005   24.7109 C.ar    1  UNL1       -0.0027
     25 C           8.3547   -6.8594   24.3658 C.ar    1  UNL1       -0.0003
     26 C           7.9266   -7.8837   25.3744 C.ar    1  UNL1       -0.0001
     27 C           7.4485   -7.4492   26.7282 C.ar    1  UNL1        0.0036
     28 C           7.3985   -5.9903   27.0733 C.ar    1  UNL1        0.0691
     29 C           6.9205   -5.5557   28.4270 C.3     1  UNL1        0.4183
     30 F           6.4424   -5.1212   29.7807 F       1  UNL1       -0.1659
     31 F           5.5084   -5.5347   27.9216 F       1  UNL1       -0.1659
     32 F           8.3326   -5.5767   28.9324 F       1  UNL1       -0.1659
@<TRIPOS>BOND
     1    19    20    1
     2    20    21    1
     3    20    16    1
     4    16    17    2
     5    16    18    2
     6    16    11    1
     7    11    12    1
     8    12    13    1
     9    13    14    1
    10    14     1    1
    11     1    22    1
    12    22    23    1
    13    23    24   ar
    14    24    25   ar
    15    25    26   ar
    16    26    27   ar
    17    27    28   ar
    18    28    29    1
    19    29    30    1
    20    29    31    1
    21    29    32    1
    22     1     2    1
    23     2     3   ar
    24     3     4   ar
    25     4     5   ar
    26     5     9    1
    27     9    10    3
    28     5     6   ar
    29     6     7    1
    30     6     8   ar
    31    14    15    1
    32    15    11    1
    33    28    23   ar
    34     8     2   ar
