@<TRIPOS>MOLECULE
*****
 34 37 0 0 0
SMALL
GASTEIGER

@<TRIPOS>ATOM
      1 C           6.8390   -5.7307   27.1184 C.3     1  UNL1        0.0308
      2 C           7.5208   -6.0306   25.8163 C.ar    1  UNL1       -0.0242
      3 C           7.3632   -5.0953   24.6543 C.ar    1  UNL1       -0.0030
      4 C           8.0450   -5.3952   23.3523 C.ar    1  UNL1        0.0175
      5 C           8.8843   -6.6305   23.2123 C.ar    1  UNL1        0.0012
      6 C           9.0419   -7.5658   24.3743 C.ar    1  UNL1       -0.0029
      7 C           8.3601   -7.2659   25.6763 C.ar    1  UNL1       -0.0065
      8 C           7.8874   -4.4598   22.1903 C.ar    1  UNL1        0.0857
      9 C           8.9316   -3.4175   21.9196 C.ar    1  UNL1        0.0399
     10 C           8.7741   -2.4821   20.7576 C.ar    1  UNL1        0.1034
     11 N           7.5723   -2.5890   19.8663 N.ar    1  UNL1       -0.2120
     12 C           6.5281   -3.6313   20.1370 C.ar    1  UNL1        0.2207
     13 N           6.6857   -4.5667   21.2990 N.ar    1  UNL1       -0.2135
     14 N           5.3264   -3.7382   19.2457 N.pl3   1  UNL1       -0.2801
     15 H           5.1711   -4.5593   18.7252 H       1  UNL1        0.1552
     16 C           4.3613   -2.5942   19.1476 C.ar    1  UNL1        0.0906
     17 C           4.3175   -1.5690   18.0535 C.ar    1  UNL1        0.1363
     18 N           3.1997   -0.6157   18.3561 N.ar    1  UNL1       -0.1662
     19 N           2.5526   -1.0516   19.6372 N.ar    1  UNL1       -0.2460
     20 C           1.3914   -0.3823   20.3108 C.3     1  UNL1        0.1538
     21 C           3.2705   -2.2744   20.1264 C.ar    1  UNL1        0.1114
     22 C           8.5177   -8.2013   26.8384 C.3     1  UNL1        0.1174
     23 N           7.3984   -9.1267   27.2134 N.am    1  UNL1       -0.2847
     24 C           7.7033  -10.4789   27.7867 C.2     1  UNL1        0.3044
     25 O           9.1276  -10.9057   27.9849 O.2     1  UNL1       -0.2526
     26 N           6.5840  -11.4043   28.1617 N.am    1  UNL1       -0.2591
     27 C           6.4984  -12.7849   28.7419 C.3     1  UNL1        0.1262
     28 C           5.0009  -12.7131   28.6921 C.3     1  UNL1        0.1546
     29 C           5.0865  -11.3324   28.1119 C.3     1  UNL1        0.1262
     30 H           6.4636   -8.8466   27.0833 H       1  UNL1        0.1513
     31 O           3.8816  -13.6385   29.0671 O.3     1  UNL1       -0.3552
     32 C           3.1072  -14.3508   27.9979 C.3     1  UNL1        0.1154
     33 C           3.5684  -14.2911   26.5719 C.3     1  UNL1        0.0320
     34 C           1.8717  -15.1227   28.3549 C.3     1  UNL1        0.0320
@<TRIPOS>BOND
     1     1     2    1
     2     2     3   ar
     3     3     4   ar
     4     4     8    1
     5     8     9   ar
     6     9    10   ar
     7    10    11   ar
     8    11    12   ar
     9    12    14    1
    10    14    16    1
    11    16    17   ar
    12    17    18   ar
    13    18    19   ar
    14    19    20    1
    15    19    21   ar
    16    12    13   ar
    17     4     5   ar
    18     5     6   ar
    19     6     7   ar
    20     7    22    1
    21    22    23    1
    22    23    24   am
    23    24    25    2
    24    24    26   am
    25    26    27    1
    26    27    28    1
    27    28    31    1
    28    31    32    1
    29    32    33    1
    30    32    34    1
    31    28    29    1
    32     7     2   ar
    33    29    26    1
    34    13     8   ar
    35    21    16   ar
    36    14    15    1
    37    23    30    1
@<TRIPOS>MOLECULE
*****
 34 37 0 0 0
SMALL
GASTEIGER

@<TRIPOS>ATOM
      1 C           8.5662   -7.0513   23.5806 C.3     1  UNL1        0.0308
      2 C           8.0771   -6.1267   24.6557 C.ar    1  UNL1       -0.0242
      3 C           8.2931   -6.4738   26.0989 C.ar    1  UNL1       -0.0030
      4 C           7.8040   -5.5492   27.1740 C.ar    1  UNL1        0.0175
      5 C           7.0989   -4.2775   26.8059 C.ar    1  UNL1        0.0012
      6 C           6.8830   -3.9304   25.3627 C.ar    1  UNL1       -0.0029
      7 C           7.3721   -4.8550   24.2876 C.ar    1  UNL1       -0.0065
      8 C           8.0200   -5.8963   28.6172 C.ar    1  UNL1        0.0857
      9 C           9.1379   -6.8170   29.0079 C.ar    1  UNL1        0.0399
     10 C           9.3540   -7.1642   30.4511 C.ar    1  UNL1        0.1034
     11 N           8.4521   -6.5907   31.5036 N.ar    1  UNL1       -0.2120
     12 C           7.3342   -5.6700   31.1129 C.ar    1  UNL1        0.2207
     13 N           7.1182   -5.3228   29.6697 N.ar    1  UNL1       -0.2135
     14 N           6.4323   -5.0965   32.1654 N.pl3   1  UNL1       -0.2801
     15 H           5.8550   -5.6914   32.6965 H       1  UNL1        0.1552
     16 C           6.4099   -3.6166   32.4086 C.ar    1  UNL1        0.0906
     17 C           7.5931   -2.6962   32.3542 C.ar    1  UNL1        0.1363
     18 N           7.1149   -1.3079   32.6609 N.ar    1  UNL1       -0.1662
     19 N           5.6362   -1.3703   32.9049 N.ar    1  UNL1       -0.2460
     20 C           4.7489   -0.2097   33.2450 C.3     1  UNL1        0.1538
     21 C           5.2005   -2.7971   32.7489 C.ar    1  UNL1        0.1114
     22 C           7.1561   -4.5078   22.8443 C.3     1  UNL1        0.1174
     23 N           6.0427   -3.5815   22.4543 N.am    1  UNL1       -0.2847
     24 C           5.3738   -3.7327   21.1202 C.2     1  UNL1        0.3044
     25 O           5.8183   -4.8103   20.1762 O.2     1  UNL1       -0.2526
     26 N           4.2604   -2.8063   20.7301 N.am    1  UNL1       -0.2591
     27 C           3.3815   -2.6530   19.5243 C.3     1  UNL1        0.1262
     28 C           2.6858   -1.4963   20.1785 C.3     1  UNL1        0.1546
     29 C           3.5647   -1.6496   21.3844 C.3     1  UNL1        0.1262
     30 H           5.7509   -2.8742   23.0739 H       1  UNL1        0.1513
     31 O           1.5724   -0.5699   19.7885 O.3     1  UNL1       -0.3552
     32 C           1.8304    0.5475   18.8215 C.3     1  UNL1        0.1154
     33 C           3.1572    0.6490   18.1294 C.3     1  UNL1        0.0320
     34 C           0.7614    1.5633   18.5467 C.3     1  UNL1        0.0320
@<TRIPOS>BOND
     1     1     2    1
     2     2     3   ar
     3     3     4   ar
     4     4     8    1
     5     8     9   ar
     6     9    10   ar
     7    10    11   ar
     8    11    12   ar
     9    12    14    1
    10    14    16    1
    11    16    17   ar
    12    17    18   ar
    13    18    19   ar
    14    19    20    1
    15    19    21   ar
    16    12    13   ar
    17     4     5   ar
    18     5     6   ar
    19     6     7   ar
    20     7    22    1
    21    22    23    1
    22    23    24   am
    23    24    25    2
    24    24    26   am
    25    26    27    1
    26    27    28    1
    27    28    31    1
    28    31    32    1
    29    32    33    1
    30    32    34    1
    31    28    29    1
    32     7     2   ar
    33    29    26    1
    34    13     8   ar
    35    21    16   ar
    36    14    15    1
    37    23    30    1
@<TRIPOS>MOLECULE
*****
 34 37 0 0 0
SMALL
GASTEIGER

@<TRIPOS>ATOM
      1 C         -14.0246    0.8694   17.0617 C.3     1  UNL1        0.0308
      2 C         -14.1953   -0.2447   18.0515 C.ar    1  UNL1       -0.0242
      3 C         -13.2595   -1.4168   18.0303 C.ar    1  UNL1       -0.0030
      4 C         -13.4303   -2.5308   19.0201 C.ar    1  UNL1        0.0175
      5 C         -14.5369   -2.4729   20.0310 C.ar    1  UNL1        0.0012
      6 C         -15.4727   -1.3008   20.0522 C.ar    1  UNL1       -0.0029
      7 C         -15.3019   -0.1867   19.0624 C.ar    1  UNL1       -0.0065
      8 C         -12.4944   -3.7029   18.9989 C.ar    1  UNL1        0.0857
      9 C         -11.0115   -3.4783   18.9802 C.ar    1  UNL1        0.0399
     10 C         -10.0756   -4.6503   18.9590 C.ar    1  UNL1        0.1034
     11 N         -10.6227   -6.0470   18.9565 N.ar    1  UNL1       -0.2120
     12 C         -12.1056   -6.2717   18.9753 C.ar    1  UNL1        0.2207
     13 N         -13.0415   -5.0996   18.9964 N.ar    1  UNL1       -0.2135
     14 N         -12.6527   -7.6683   18.9728 N.pl3   1  UNL1       -0.2801
     15 H         -12.1781   -8.3837   19.4546 H       1  UNL1        0.1552
     16 C         -13.9229   -7.9749   18.2362 C.ar    1  UNL1        0.0906
     17 C         -14.1799   -7.7244   16.7798 C.ar    1  UNL1        0.1363
     18 N         -15.5749   -8.1805   16.4701 N.ar    1  UNL1       -0.1662
     19 N         -16.1801   -8.7129   17.7352 N.ar    1  UNL1       -0.2460
     20 C         -17.5634   -9.2738   17.8828 C.3     1  UNL1        0.1538
     21 C         -15.1591   -8.5858   18.8267 C.ar    1  UNL1        0.1114
     22 C         -16.2378    0.9854   19.0836 C.3     1  UNL1        0.1174
     23 N         -16.1092    2.0286   20.1537 N.am    1  UNL1       -0.2847
     24 C         -17.0010    1.9807   21.3589 C.2     1  UNL1        0.3044
     25 O         -18.0215    0.8896   21.4939 O.2     1  UNL1       -0.2526
     26 N         -16.8724    3.0239   22.4290 N.am    1  UNL1       -0.2591
     27 C         -17.5621    3.2966   23.7328 C.3     1  UNL1        0.1262
     28 C         -16.6905    4.4992   23.9423 C.3     1  UNL1        0.1546
     29 C         -16.0008    4.2266   22.6385 C.3     1  UNL1        0.1262
     30 H         -15.4395    2.7447   20.0651 H       1  UNL1        0.1513
     31 O         -16.5619    5.5424   25.0124 O.3     1  UNL1       -0.3552
     32 C         -15.5311    5.3873   26.0911 C.3     1  UNL1        0.1154
     33 C         -14.0991    5.1269   25.7283 C.3     1  UNL1        0.0320
     34 C         -15.9323    5.4925   27.5326 C.3     1  UNL1        0.0320
@<TRIPOS>BOND
     1     1     2    1
     2     2     3   ar
     3     3     4   ar
     4     4     8    1
     5     8     9   ar
     6     9    10   ar
     7    10    11   ar
     8    11    12   ar
     9    12    14    1
    10    14    16    1
    11    16    17   ar
    12    17    18   ar
    13    18    19   ar
    14    19    20    1
    15    19    21   ar
    16    12    13   ar
    17     4     5   ar
    18     5     6   ar
    19     6     7   ar
    20     7    22    1
    21    22    23    1
    22    23    24   am
    23    24    25    2
    24    24    26   am
    25    26    27    1
    26    27    28    1
    27    28    31    1
    28    31    32    1
    29    32    33    1
    30    32    34    1
    31    28    29    1
    32     7     2   ar
    33    29    26    1
    34    13     8   ar
    35    21    16   ar
    36    14    15    1
    37    23    30    1
@<TRIPOS>MOLECULE
*****
 34 37 0 0 0
SMALL
GASTEIGER

@<TRIPOS>ATOM
      1 C           8.0280   -6.6318   24.2007 C.3     1  UNL1        0.0308
      2 C           7.5009   -5.4706   24.9906 C.ar    1  UNL1       -0.0242
      3 C           7.5204   -5.5128   26.4899 C.ar    1  UNL1       -0.0030
      4 C           6.9933   -4.3517   27.2798 C.ar    1  UNL1        0.0175
      5 C           6.4467   -3.1484   26.5704 C.ar    1  UNL1        0.0012
      6 C           6.4272   -3.1062   25.0712 C.ar    1  UNL1       -0.0029
      7 C           6.9543   -4.2673   24.2813 C.ar    1  UNL1       -0.0065
      8 C           7.0128   -4.3940   28.7791 C.ar    1  UNL1        0.0857
      9 C           7.0424   -5.7135   29.4919 C.ar    1  UNL1        0.0399
     10 C           7.0619   -5.7558   30.9911 C.ar    1  UNL1        0.1034
     11 N           7.0518   -4.4785   31.7777 N.ar    1  UNL1       -0.2120
     12 C           7.0221   -3.1590   31.0649 C.ar    1  UNL1        0.2207
     13 N           7.0026   -3.1168   29.5656 N.ar    1  UNL1       -0.2135
     14 N           7.0120   -1.8818   31.8514 N.pl3   1  UNL1       -0.2801
     15 H           7.6759   -1.1805   31.6599 H       1  UNL1        0.1552
     16 C           5.9903   -1.6731   32.9296 C.ar    1  UNL1        0.0906
     17 C           4.6486   -2.3385   33.0136 C.ar    1  UNL1        0.1363
     18 N           3.9601   -1.8391   34.2491 N.ar    1  UNL1       -0.1662
     19 N           4.8762   -0.8650   34.9287 N.ar    1  UNL1       -0.2460
     20 C           4.5882   -0.1236   36.2005 C.3     1  UNL1        0.1538
     21 C           6.1310   -0.7624   34.1132 C.ar    1  UNL1        0.1114
     22 C           6.9348   -4.2250   22.7820 C.3     1  UNL1        0.1174
     23 N           6.1163   -3.1882   22.0715 N.am    1  UNL1       -0.2847
     24 C           5.5241   -3.4918   20.7271 C.2     1  UNL1        0.3044
     25 O           5.7505   -4.8324   20.0933 O.2     1  UNL1       -0.2526
     26 N           4.7055   -2.4550   20.0166 N.am    1  UNL1       -0.2591
     27 C           3.9774   -2.3930   18.7067 C.3     1  UNL1        0.1262
     28 C           3.5479   -0.9886   19.0118 C.3     1  UNL1        0.1546
     29 C           4.2760   -1.0506   20.3218 C.3     1  UNL1        0.1262
     30 H           5.9677   -2.3084   22.4874 H       1  UNL1        0.1513
     31 O           2.7293    0.0482   18.3013 O.3     1  UNL1       -0.3552
     32 C           1.4362    0.5205   18.8970 C.3     1  UNL1        0.1154
     33 C           0.7741    1.7579   18.3673 C.3     1  UNL1        0.0320
     34 C           0.8051   -0.2446   20.0223 C.3     1  UNL1        0.0320
@<TRIPOS>BOND
     1     1     2    1
     2     2     3   ar
     3     3     4   ar
     4     4     8    1
     5     8     9   ar
     6     9    10   ar
     7    10    11   ar
     8    11    12   ar
     9    12    14    1
    10    14    16    1
    11    16    17   ar
    12    17    18   ar
    13    18    19   ar
    14    19    20    1
    15    19    21   ar
    16    12    13   ar
    17     4     5   ar
    18     5     6   ar
    19     6     7   ar
    20     7    22    1
    21    22    23    1
    22    23    24   am
    23    24    25    2
    24    24    26   am
    25    26    27    1
    26    27    28    1
    27    28    31    1
    28    31    32    1
    29    32    33    1
    30    32    34    1
    31    28    29    1
    32     7     2   ar
    33    29    26    1
    34    13     8   ar
    35    21    16   ar
    36    14    15    1
    37    23    30    1
@<TRIPOS>MOLECULE
*****
 34 37 0 0 0
SMALL
GASTEIGER

@<TRIPOS>ATOM
      1 C           9.5326   -7.4691   29.7668 C.3     1  UNL1        0.0308
      2 C           8.5941   -6.7026   28.8826 C.ar    1  UNL1       -0.0242
      3 C           8.7961   -6.7021   27.3963 C.ar    1  UNL1       -0.0030
      4 C           7.8576   -5.9356   26.5121 C.ar    1  UNL1        0.0175
      5 C           6.7172   -5.1696   27.1143 C.ar    1  UNL1        0.0012
      6 C           6.5152   -5.1701   28.6006 C.ar    1  UNL1       -0.0029
      7 C           7.4537   -5.9366   29.4848 C.ar    1  UNL1       -0.0065
      8 C           8.0596   -5.9351   25.0258 C.ar    1  UNL1        0.0857
      9 C           8.4655   -7.1969   24.3236 C.ar    1  UNL1        0.0399
     10 C           8.6675   -7.1965   22.8373 C.ar    1  UNL1        0.1034
     11 N           8.4637   -5.9341   22.0531 N.ar    1  UNL1       -0.2120
     12 C           8.0578   -4.6723   22.7552 C.ar    1  UNL1        0.2207
     13 N           7.8558   -4.6728   24.2416 N.ar    1  UNL1       -0.2135
     14 N           7.8540   -3.4100   21.9710 N.pl3   1  UNL1       -0.2801
     15 H           8.3869   -2.6090   22.1802 H       1  UNL1        0.1552
     16 C           6.8382   -3.3680   20.8681 C.ar    1  UNL1        0.0906
     17 C           6.9861   -2.6486   19.5602 C.ar    1  UNL1        0.1363
     18 N           5.7355   -2.8740   18.7633 N.ar    1  UNL1       -0.1662
     19 N           4.8146   -3.7327   19.5786 N.ar    1  UNL1       -0.2460
     20 C           3.4516   -4.2035   19.1656 C.3     1  UNL1        0.1538
     21 C           5.4962   -4.0380   20.8795 C.ar    1  UNL1        0.1114
     22 C           7.2517   -5.9371   30.9711 C.3     1  UNL1        0.1174
     23 N           6.3809   -4.8962   31.6100 N.am    1  UNL1       -0.2847
     24 C           6.9556   -3.5602   31.9777 C.2     1  UNL1        0.3044
     25 O           8.4011   -3.2653   31.7064 O.2     1  UNL1       -0.2526
     26 N           6.0848   -2.5193   32.6166 N.am    1  UNL1       -0.2591
     27 C           6.2937   -1.1175   33.1077 C.3     1  UNL1        0.1262
     28 C           4.8533   -1.0473   33.5201 C.3     1  UNL1        0.1546
     29 C           4.6443   -2.4491   33.0290 C.3     1  UNL1        0.1262
     30 H           5.4322   -5.0898   31.7881 H       1  UNL1        0.1513
     31 O           3.9825   -0.0064   34.1590 O.3     1  UNL1       -0.3552
     32 C           3.1668    0.9172   33.3035 C.3     1  UNL1        0.1154
     33 C           3.0072    0.6373   31.8385 C.3     1  UNL1        0.0320
     34 C           2.5108    2.1206   33.9130 C.3     1  UNL1        0.0320
@<TRIPOS>BOND
     1     1     2    1
     2     2     3   ar
     3     3     4   ar
     4     4     8    1
     5     8     9   ar
     6     9    10   ar
     7    10    11   ar
     8    11    12   ar
     9    12    14    1
    10    14    16    1
    11    16    17   ar
    12    17    18   ar
    13    18    19   ar
    14    19    20    1
    15    19    21   ar
    16    12    13   ar
    17     4     5   ar
    18     5     6   ar
    19     6     7   ar
    20     7    22    1
    21    22    23    1
    22    23    24   am
    23    24    25    2
    24    24    26   am
    25    26    27    1
    26    27    28    1
    27    28    31    1
    28    31    32    1
    29    32    33    1
    30    32    34    1
    31    28    29    1
    32     7     2   ar
    33    29    26    1
    34    13     8   ar
    35    21    16   ar
    36    14    15    1
    37    23    30    1
@<TRIPOS>MOLECULE
*****
 34 37 0 0 0
SMALL
GASTEIGER

@<TRIPOS>ATOM
      1 C           4.2746   -0.2568   17.1105 C.3     1  UNL1        0.0308
      2 C           3.2335   -0.2334   18.1902 C.ar    1  UNL1       -0.0242
      3 C           2.2191    0.8708   18.2300 C.ar    1  UNL1       -0.0030
      4 C           1.1780    0.8943   19.3097 C.ar    1  UNL1        0.0175
      5 C           1.1513   -0.1865   20.3494 C.ar    1  UNL1        0.0012
      6 C           2.1658   -1.2908   20.3095 C.ar    1  UNL1       -0.0029
      7 C           3.2068   -1.3142   19.2299 C.ar    1  UNL1       -0.0065
      8 C           0.1636    1.9986   19.3495 C.ar    1  UNL1        0.0857
      9 C           0.1513    3.0448   18.2747 C.ar    1  UNL1        0.0399
     10 C          -0.8630    4.1491   18.3145 C.ar    1  UNL1        0.1034
     11 N          -1.8652    4.2071   19.4291 N.ar    1  UNL1       -0.2120
     12 C          -1.8530    3.1608   20.5039 C.ar    1  UNL1        0.2207
     13 N          -0.8386    2.0565   20.4641 N.ar    1  UNL1       -0.2135
     14 N          -2.8551    3.2188   21.6185 N.pl3   1  UNL1       -0.2801
     15 H          -2.6066    2.9122   22.5204 H       1  UNL1        0.1552
     16 C          -4.2360    3.7439   21.3589 C.ar    1  UNL1        0.0906
     17 C          -5.1413    3.3274   20.2377 C.ar    1  UNL1        0.1363
     18 N          -6.4188    4.1038   20.3608 N.ar    1  UNL1       -0.1662
     19 N          -6.3031    5.0002   21.5580 N.ar    1  UNL1       -0.2460
     20 C          -7.3522    5.9518   22.0516 C.3     1  UNL1        0.1538
     21 C          -4.9540    4.7777   22.1748 C.ar    1  UNL1        0.1114
     22 C           4.2213   -2.4185   19.1901 C.3     1  UNL1        0.1174
     23 N           4.7740   -2.9756   20.4683 N.am    1  UNL1       -0.2847
     24 C           6.2500   -3.2014   20.6118 C.2     1  UNL1        0.3044
     25 O           7.1732   -2.8700   19.4769 O.2     1  UNL1       -0.2526
     26 N           6.8028   -3.7585   21.8901 N.am    1  UNL1       -0.2591
     27 C           8.1731   -4.1094   22.3892 C.3     1  UNL1        0.1262
     28 C           7.5845   -4.5464   23.6979 C.3     1  UNL1        0.1546
     29 C           6.2142   -4.1955   23.1987 C.3     1  UNL1        0.1262
     30 H           4.1681   -3.1930   21.2132 H       1  UNL1        0.1513
     31 O           8.1373   -5.1035   24.9761 O.3     1  UNL1       -0.3552
     32 C           7.8253   -6.5153   25.3759 C.3     1  UNL1        0.1154
     33 C           6.9187   -6.7820   26.5407 C.3     1  UNL1        0.0320
     34 C           8.4199   -7.6602   24.6107 C.3     1  UNL1        0.0320
@<TRIPOS>BOND
     1     1     2    1
     2     2     3   ar
     3     3     4   ar
     4     4     8    1
     5     8     9   ar
     6     9    10   ar
     7    10    11   ar
     8    11    12   ar
     9    12    14    1
    10    14    16    1
    11    16    17   ar
    12    17    18   ar
    13    18    19   ar
    14    19    20    1
    15    19    21   ar
    16    12    13   ar
    17     4     5   ar
    18     5     6   ar
    19     6     7   ar
    20     7    22    1
    21    22    23    1
    22    23    24   am
    23    24    25    2
    24    24    26   am
    25    26    27    1
    26    27    28    1
    27    28    31    1
    28    31    32    1
    29    32    33    1
    30    32    34    1
    31    28    29    1
    32     7     2   ar
    33    29    26    1
    34    13     8   ar
    35    21    16   ar
    36    14    15    1
    37    23    30    1
@<TRIPOS>MOLECULE
*****
 34 37 0 0 0
SMALL
GASTEIGER

@<TRIPOS>ATOM
      1 C           3.0220    2.8643   18.2913 C.3     1  UNL1        0.0308
      2 C           2.4807    1.6156   18.9218 C.ar    1  UNL1       -0.0242
      3 C           3.3433    0.3928   19.0249 C.ar    1  UNL1       -0.0030
      4 C           2.8020   -0.8560   19.6554 C.ar    1  UNL1        0.0175
      5 C           1.3981   -0.8820   20.1829 C.ar    1  UNL1        0.0012
      6 C           0.5355    0.3408   20.0799 C.ar    1  UNL1       -0.0029
      7 C           1.0768    1.5896   19.4493 C.ar    1  UNL1       -0.0065
      8 C           3.6647   -2.0788   19.7584 C.ar    1  UNL1        0.0857
      9 C           3.2150   -3.3684   19.1382 C.ar    1  UNL1        0.0399
     10 C           4.0776   -4.5912   19.2412 C.ar    1  UNL1        0.1034
     11 N           5.3901   -4.5244   19.9645 N.ar    1  UNL1       -0.2120
     12 C           5.8399   -3.2348   20.5847 C.ar    1  UNL1        0.2207
     13 N           4.9772   -2.0120   20.4816 N.ar    1  UNL1       -0.2135
     14 N           7.1523   -3.1680   21.3079 N.pl3   1  UNL1       -0.2801
     15 H           7.6793   -2.3365   21.2957 H       1  UNL1        0.1552
     16 C           7.6617   -4.3680   22.0497 C.ar    1  UNL1        0.0906
     17 C           8.6476   -5.3723   21.5306 C.ar    1  UNL1        0.1363
     18 N           8.8700   -6.3995   22.6009 N.ar    1  UNL1       -0.1662
     19 N           8.0215   -6.0301   23.7814 N.ar    1  UNL1       -0.2460
     20 C           7.9349   -6.7838   25.0754 C.3     1  UNL1        0.1538
     21 C           7.2747   -4.7746   23.4407 C.ar    1  UNL1        0.1114
     22 C           0.2141    2.8124   19.3463 C.3     1  UNL1        0.1174
     23 N          -1.0650    2.8957   20.1254 N.am    1  UNL1       -0.2847
     24 C          -2.2714    3.5488   19.5188 C.2     1  UNL1        0.3044
     25 O          -2.1988    4.1187   18.1332 O.2     1  UNL1       -0.2526
     26 N          -3.5505    3.6321   20.2979 N.am    1  UNL1       -0.2591
     27 C          -4.9178    4.1903   20.0355 C.3     1  UNL1        0.1262
     28 C          -5.3594    3.7499   21.3997 C.3     1  UNL1        0.1546
     29 C          -3.9921    3.1917   21.6621 C.3     1  UNL1        0.1262
     30 H          -1.1126    2.5217   21.0348 H       1  UNL1        0.1513
     31 O          -6.6385    3.8332   22.1788 O.3     1  UNL1       -0.3552
     32 C          -6.9006    5.0138   23.0663 C.3     1  UNL1        0.1154
     33 C          -8.0763    5.0055   23.9977 C.3     1  UNL1        0.0320
     34 C          -5.9870    6.2027   23.0222 C.3     1  UNL1        0.0320
@<TRIPOS>BOND
     1     1     2    1
     2     2     3   ar
     3     3     4   ar
     4     4     8    1
     5     8     9   ar
     6     9    10   ar
     7    10    11   ar
     8    11    12   ar
     9    12    14    1
    10    14    16    1
    11    16    17   ar
    12    17    18   ar
    13    18    19   ar
    14    19    20    1
    15    19    21   ar
    16    12    13   ar
    17     4     5   ar
    18     5     6   ar
    19     6     7   ar
    20     7    22    1
    21    22    23    1
    22    23    24   am
    23    24    25    2
    24    24    26   am
    25    26    27    1
    26    27    28    1
    27    28    31    1
    28    31    32    1
    29    32    33    1
    30    32    34    1
    31    28    29    1
    32     7     2   ar
    33    29    26    1
    34    13     8   ar
    35    21    16   ar
    36    14    15    1
    37    23    30    1
@<TRIPOS>MOLECULE
*****
 34 37 0 0 0
SMALL
GASTEIGER

@<TRIPOS>ATOM
      1 C           4.1629    2.0664   18.2191 C.3     1  UNL1        0.0308
      2 C           2.9037    1.5491   18.8489 C.ar    1  UNL1       -0.0242
      3 C           1.7899    2.4956   19.1858 C.ar    1  UNL1       -0.0030
      4 C           0.5307    1.9783   19.8157 C.ar    1  UNL1        0.0175
      5 C           0.3853    0.5144   20.1087 C.ar    1  UNL1        0.0012
      6 C           1.4991   -0.4321   19.7719 C.ar    1  UNL1       -0.0029
      7 C           2.7583    0.0852   19.1420 C.ar    1  UNL1       -0.0065
      8 C          -0.5831    2.9249   20.1525 C.ar    1  UNL1        0.0857
      9 C          -0.3449    4.4055   20.1195 C.ar    1  UNL1        0.0399
     10 C          -1.4586    5.3521   20.4563 C.ar    1  UNL1        0.1034
     11 N          -2.8107    4.8181   20.8262 N.ar    1  UNL1       -0.2120
     12 C          -3.0490    3.3375   20.8592 C.ar    1  UNL1        0.2207
     13 N          -1.9352    2.3909   20.5224 N.ar    1  UNL1       -0.2135
     14 N          -4.4010    2.8035   21.2291 N.pl3   1  UNL1       -0.2801
     15 H          -4.8140    2.0920   20.6884 H       1  UNL1        0.1552
     16 C          -5.1238    3.3537   22.4228 C.ar    1  UNL1        0.0906
     17 C          -4.6765    3.2471   23.8505 C.ar    1  UNL1        0.1363
     18 N          -5.6970    3.9346   24.7085 N.ar    1  UNL1       -0.1662
     19 N          -6.7750    4.4660   23.8109 N.ar    1  UNL1       -0.2460
     20 C          -7.9933    5.2234   24.2491 C.3     1  UNL1        0.1538
     21 C          -6.4207    4.1069   22.3983 C.ar    1  UNL1        0.1114
     22 C           3.8721   -0.8614   18.8052 C.3     1  UNL1        0.1174
     23 N           4.7378   -1.4194   19.8957 N.am    1  UNL1       -0.2847
     24 C           5.6131   -2.6070   19.6248 C.2     1  UNL1        0.3044
     25 O           5.6227   -3.2367   18.2634 O.2     1  UNL1       -0.2526
     26 N           6.4788   -3.1650   20.7153 N.am    1  UNL1       -0.2591
     27 C           7.4522   -4.3014   20.8201 C.3     1  UNL1        0.1262
     28 C           7.7030   -3.9540   22.2576 C.3     1  UNL1        0.1546
     29 C           6.7296   -2.8176   22.1528 C.3     1  UNL1        0.1262
     30 H           4.7314   -1.0061   20.7892 H       1  UNL1        0.1513
     31 O           8.5687   -4.5120   23.3481 O.3     1  UNL1       -0.3552
     32 C           8.0692   -5.6429   24.1977 C.3     1  UNL1        0.1154
     33 C           7.2051   -5.3598   25.3906 C.3     1  UNL1        0.0320
     34 C           8.4339   -7.0567   23.8542 C.3     1  UNL1        0.0320
@<TRIPOS>BOND
     1     1     2    1
     2     2     3   ar
     3     3     4   ar
     4     4     8    1
     5     8     9   ar
     6     9    10   ar
     7    10    11   ar
     8    11    12   ar
     9    12    14    1
    10    14    16    1
    11    16    17   ar
    12    17    18   ar
    13    18    19   ar
    14    19    20    1
    15    19    21   ar
    16    12    13   ar
    17     4     5   ar
    18     5     6   ar
    19     6     7   ar
    20     7    22    1
    21    22    23    1
    22    23    24   am
    23    24    25    2
    24    24    26   am
    25    26    27    1
    26    27    28    1
    27    28    31    1
    28    31    32    1
    29    32    33    1
    30    32    34    1
    31    28    29    1
    32     7     2   ar
    33    29    26    1
    34    13     8   ar
    35    21    16   ar
    36    14    15    1
    37    23    30    1
@<TRIPOS>MOLECULE
*****
 34 37 0 0 0
SMALL
GASTEIGER

@<TRIPOS>ATOM
      1 C           8.6388   -6.8856   24.4594 C.3     1  UNL1        0.0308
      2 C           7.8815   -5.6437   24.0929 C.ar    1  UNL1       -0.0242
      3 C           7.9555   -5.1052   22.6949 C.ar    1  UNL1       -0.0030
      4 C           7.1982   -3.8633   22.3285 C.ar    1  UNL1        0.0175
      5 C           6.3669   -3.1600   23.3601 C.ar    1  UNL1        0.0012
      6 C           6.2929   -3.6986   24.7581 C.ar    1  UNL1       -0.0029
      7 C           7.0502   -4.9404   25.1245 C.ar    1  UNL1       -0.0065
      8 C           7.2723   -3.3248   20.9305 C.ar    1  UNL1        0.0857
      9 C           8.6006   -2.9609   20.3363 C.ar    1  UNL1        0.0399
     10 C           8.6747   -2.4224   18.9383 C.ar    1  UNL1        0.1034
     11 N           7.4204   -2.2477   18.1344 N.ar    1  UNL1       -0.2120
     12 C           6.0920   -2.6116   18.7285 C.ar    1  UNL1        0.2207
     13 N           6.0180   -3.1501   20.1266 N.ar    1  UNL1       -0.2135
     14 N           4.8378   -2.4369   17.9247 N.pl3   1  UNL1       -0.2801
     15 H           4.7466   -2.8826   17.0516 H       1  UNL1        0.1552
     16 C           3.7224   -1.5832   18.4511 C.ar    1  UNL1        0.0906
     17 C           2.8912   -1.8696   19.6664 C.ar    1  UNL1        0.1363
     18 N           1.8975   -0.7567   19.8211 N.ar    1  UNL1       -0.1662
     19 N           2.1145    0.2176   18.7013 N.ar    1  UNL1       -0.2460
     20 C           1.3398    1.4808   18.4690 C.3     1  UNL1        0.1538
     21 C           3.2424   -0.2933   17.8546 C.ar    1  UNL1        0.1114
     22 C           6.9761   -5.4790   26.5226 C.3     1  UNL1        0.1174
     23 N           6.8134   -4.5395   27.6806 N.am    1  UNL1       -0.2847
     24 C           7.0352   -5.0295   29.0809 C.2     1  UNL1        0.3044
     25 O           7.4198   -6.4590   29.3231 O.2     1  UNL1       -0.2526
     26 N           6.8724   -4.0901   30.2388 N.am    1  UNL1       -0.2591
     27 C           7.0049   -4.2094   31.7282 C.3     1  UNL1        0.1262
     28 C           6.6422   -2.7615   31.8764 C.3     1  UNL1        0.1546
     29 C           6.5098   -2.6422   30.3871 C.3     1  UNL1        0.1262
     30 H           6.5609   -3.6013   27.5215 H       1  UNL1        0.1513
     31 O           6.4795   -1.8220   33.0344 O.3     1  UNL1       -0.3552
     32 C           5.1106   -1.3618   33.4402 C.3     1  UNL1        0.1154
     33 C           4.8797   -0.8208   34.8200 C.3     1  UNL1        0.0320
     34 C           3.9728   -1.4426   32.4661 C.3     1  UNL1        0.0320
@<TRIPOS>BOND
     1     1     2    1
     2     2     3   ar
     3     3     4   ar
     4     4     8    1
     5     8     9   ar
     6     9    10   ar
     7    10    11   ar
     8    11    12   ar
     9    12    14    1
    10    14    16    1
    11    16    17   ar
    12    17    18   ar
    13    18    19   ar
    14    19    20    1
    15    19    21   ar
    16    12    13   ar
    17     4     5   ar
    18     5     6   ar
    19     6     7   ar
    20     7    22    1
    21    22    23    1
    22    23    24   am
    23    24    25    2
    24    24    26   am
    25    26    27    1
    26    27    28    1
    27    28    31    1
    28    31    32    1
    29    32    33    1
    30    32    34    1
    31    28    29    1
    32     7     2   ar
    33    29    26    1
    34    13     8   ar
    35    21    16   ar
    36    14    15    1
    37    23    30    1
