@<TRIPOS>MOLECULE
*****
 43 47 0 0 0
SMALL
GASTEIGER

@<TRIPOS>ATOM
      1 C           6.7295   -2.4178   24.3825 C.3     1  UNL1        0.0777
      2 C           6.8691   -3.2502   25.6225 C.3     1  UNL1        0.0412
      3 C           7.3297   -4.6742   25.5219 C.3     1  UNL1        0.0951
      4 N           7.6506   -5.2657   24.1813 N.am    1  UNL1       -0.2794
      5 C           8.1112   -6.6898   24.0807 C.2     1  UNL1        0.2251
      6 O           8.4322   -7.2813   22.7402 O.2     1  UNL1       -0.2749
      7 C           7.5110   -4.4333   22.9414 C.3     1  UNL1        0.0964
      8 C           7.0505   -3.0093   23.0420 C.3     1  UNL1        0.0539
      9 N           4.4180    0.7372   25.0555 N.am    1  UNL1       -0.2485
     10 C           4.8786   -0.6868   24.9550 C.2     1  UNL1        0.3058
     11 O           3.9488   -1.8038   25.3263 O.2     1  UNL1       -0.2524
     12 N           6.2689   -0.9937   24.4831 N.am    1  UNL1       -0.2901
     13 H           5.0282    1.4703   24.8118 H       1  UNL1        0.1583
     14 H           6.8792   -0.2606   24.2394 H       1  UNL1        0.1509
     15 C           1.0783    1.3095   26.9488 C.ar    1  UNL1        0.0803
     16 S           2.5182    0.8896   26.9297 S.2     1  UNL1       -0.0488
     17 C           3.0276    1.0442   25.5274 C.ar    1  UNL1        0.1664
     18 N           1.9025    1.5596   24.6798 N.ar    1  UNL1       -0.2282
     19 C           0.6978    1.7237   25.5582 C.ar    1  UNL1        0.0701
     20 C          -0.6507    2.2154   25.1226 C.3     1  UNL1        0.0528
     21 C          -0.8419    0.2281   28.3248 C.3     1  UNL1        0.0779
     22 C           0.1771    1.3145   28.1479 C.2     1  UNL1        0.1807
     23 O           0.2950    2.4058   29.1702 O.2     1  UNL1       -0.2908
     24 C           8.2508   -7.5222   25.3207 C.3     1  UNL1        0.0767
     25 C           9.5296   -8.0882   25.8633 C.3     1  UNL1        0.0091
     26 C           9.2053   -8.8506   27.1137 C.3     1  UNL1        0.0005
     27 C           7.7260   -8.7558   27.3439 C.3     1  UNL1        0.0005
     28 C           7.1362   -7.9348   26.2358 C.3     1  UNL1        0.0091
     29 C           6.9109   -2.1768   21.8020 C.3     1  UNL1        0.0754
     30 N           5.8412   -2.4968   20.8003 N.3     1  UNL1       -0.2726
     31 C           5.4509   -3.9234   20.5497 C.3     1  UNL1        0.0721
     32 C           4.3812   -4.2434   19.5480 C.3     1  UNL1        0.0174
     33 C           3.7019   -3.1368   18.7969 C.3     1  UNL1        0.0031
     34 C           4.0922   -1.7104   19.0475 C.3     1  UNL1        0.0204
     35 C           5.1618   -1.3904   20.0492 C.3     1  UNL1        0.0724
     36 C           3.4128   -0.6039   18.2964 C.3     1  UNL1        0.0277
     37 C           2.2684    0.1358   18.9234 C.ar    1  UNL1       -0.0220
     38 C           1.4602   -0.5129   20.0079 C.ar    1  UNL1       -0.0020
     39 C           0.3158    0.2268   20.6349 C.ar    1  UNL1        0.0293
     40 C          -0.0205    1.6152   20.1774 C.ar    1  UNL1        0.1401
     41 F          -1.1649    2.3549   20.8045 F       1  UNL1       -0.2042
     42 C           0.7877    2.2639   19.0930 C.ar    1  UNL1        0.0293
     43 C           1.9321    1.5242   18.4660 C.ar    1  UNL1       -0.0020
@<TRIPOS>BOND
     1    21    22    1
     2    22    23    2
     3    22    15    1
     4    15    16   ar
     5    16    17   ar
     6    17     9    1
     7     9    10   am
     8    10    11    2
     9    10    12   am
    10     1    12    1
    11     1     2    1
    12     2     3    1
    13     3     4    1
    14     4     5   am
    15     5     6    2
    16     5    24    1
    17    24    25    1
    18    25    26    1
    19    26    27    1
    20    27    28    1
    21     4     7    1
    22     7     8    1
    23     8    29    1
    24    29    30    1
    25    30    31    1
    26    31    32    1
    27    32    33    1
    28    33    34    1
    29    34    36    1
    30    36    37    1
    31    37    38   ar
    32    38    39   ar
    33    39    40   ar
    34    40    41    1
    35    40    42   ar
    36    42    43   ar
    37    34    35    1
    38    17    18   ar
    39    18    19   ar
    40    19    20    1
    41    19    15   ar
    42     8     1    1
    43    35    30    1
    44    28    24    1
    45    43    37   ar
    46     9    13    1
    47    12    14    1
@<TRIPOS>MOLECULE
*****
 43 47 0 0 0
SMALL
GASTEIGER

@<TRIPOS>ATOM
      1 C           2.1727    2.1266   20.4144 C.3     1  UNL1        0.0777
      2 C           2.3991    0.7671   21.0064 C.3     1  UNL1        0.0412
      3 C           2.9389   -0.3421   20.1530 C.3     1  UNL1        0.0951
      4 N           3.2522   -0.0918   18.7076 N.am    1  UNL1       -0.2794
      5 C           3.7920   -1.2011   17.8542 C.2     1  UNL1        0.2251
      6 O           4.1053   -0.9508   16.4088 O.2     1  UNL1       -0.2749
      7 C           3.0258    1.2677   18.1156 C.3     1  UNL1        0.0964
      8 C           2.4861    2.3769   18.9691 C.3     1  UNL1        0.0539
      9 N          -0.3479    4.3377   22.5376 N.am    1  UNL1       -0.2485
     10 C           0.1919    3.2285   21.6842 C.2     1  UNL1        0.3058
     11 O          -0.7093    2.1118   21.2472 O.2     1  UNL1       -0.2524
     12 N           1.6330    3.2358   21.2679 N.am    1  UNL1       -0.2901
     13 H           0.2437    5.0705   22.8244 H       1  UNL1        0.1583
     14 H           2.2245    3.9687   21.5547 H       1  UNL1        0.1509
     15 C          -4.1996    4.6105   22.9313 C.ar    1  UNL1        0.0803
     16 S          -2.9485    4.7977   22.1253 S.2     1  UNL1       -0.0488
     17 C          -1.7889    4.3303   22.9540 C.ar    1  UNL1        0.1664
     18 N          -2.3233    3.8542   24.2722 N.ar    1  UNL1       -0.2282
     19 C          -3.8133    4.0274   24.2582 C.ar    1  UNL1        0.0701
     20 C          -4.7519    3.6787   25.3750 C.3     1  UNL1        0.0528
     21 C          -5.8835    6.2891   21.8841 C.3     1  UNL1        0.0779
     22 C          -5.5925    4.9474   22.4882 C.2     1  UNL1        0.1807
     23 O          -6.6944    3.9425   22.6491 O.2     1  UNL1       -0.2908
     24 C           4.0184   -2.5606   18.4462 C.3     1  UNL1        0.0767
     25 C           5.3404   -3.2576   18.5738 C.3     1  UNL1        0.0091
     26 C           5.1016   -4.5896   19.2210 C.3     1  UNL1        0.0005
     27 C           3.6319   -4.7157   19.4934 C.3     1  UNL1        0.0005
     28 C           2.9625   -3.4617   19.0146 C.3     1  UNL1        0.0091
     29 C           2.2596    3.7364   18.3771 C.3     1  UNL1        0.0754
     30 N           0.8989    4.3645   18.4396 N.3     1  UNL1       -0.2726
     31 C           0.7019    5.6554   19.1778 C.3     1  UNL1        0.0721
     32 C          -0.6588    6.2835   19.2403 C.3     1  UNL1        0.0174
     33 C          -1.8226    5.6206   18.5647 C.3     1  UNL1        0.0031
     34 C          -1.6256    4.3298   17.8266 C.3     1  UNL1        0.0204
     35 C          -0.2648    3.7017   17.7640 C.3     1  UNL1        0.0724
     36 C          -2.7893    3.6670   17.1509 C.3     1  UNL1        0.0277
     37 C          -4.1908    4.0374   17.5364 C.ar    1  UNL1       -0.0220
     38 C          -4.9607    5.0231   16.7083 C.ar    1  UNL1       -0.0020
     39 C          -6.3622    5.3935   17.0937 C.ar    1  UNL1        0.0293
     40 C          -6.9938    4.7783   18.3073 C.ar    1  UNL1        0.1401
     41 F          -8.3953    5.1488   18.6928 F       1  UNL1       -0.2042
     42 C          -6.2238    3.7927   19.1354 C.ar    1  UNL1        0.0293
     43 C          -4.8224    3.4223   18.7499 C.ar    1  UNL1       -0.0020
@<TRIPOS>BOND
     1    21    22    1
     2    22    23    2
     3    22    15    1
     4    15    16   ar
     5    16    17   ar
     6    17     9    1
     7     9    10   am
     8    10    11    2
     9    10    12   am
    10     1    12    1
    11     1     2    1
    12     2     3    1
    13     3     4    1
    14     4     5   am
    15     5     6    2
    16     5    24    1
    17    24    25    1
    18    25    26    1
    19    26    27    1
    20    27    28    1
    21     4     7    1
    22     7     8    1
    23     8    29    1
    24    29    30    1
    25    30    31    1
    26    31    32    1
    27    32    33    1
    28    33    34    1
    29    34    36    1
    30    36    37    1
    31    37    38   ar
    32    38    39   ar
    33    39    40   ar
    34    40    41    1
    35    40    42   ar
    36    42    43   ar
    37    34    35    1
    38    17    18   ar
    39    18    19   ar
    40    19    20    1
    41    19    15   ar
    42     8     1    1
    43    35    30    1
    44    28    24    1
    45    43    37   ar
    46     9    13    1
    47    12    14    1
@<TRIPOS>MOLECULE
*****
 43 47 0 0 0
SMALL
GASTEIGER

@<TRIPOS>ATOM
      1 C           2.8677    0.5767   21.8957 C.3     1  UNL1        0.0777
      2 C           4.3359    0.3353   22.0856 C.3     1  UNL1        0.0412
      3 C           5.0494   -0.6636   21.2237 C.3     1  UNL1        0.0951
      4 N           4.2947   -1.4212   20.1718 N.am    1  UNL1       -0.2794
      5 C           5.0083   -2.4202   19.3098 C.2     1  UNL1        0.2251
      6 O           4.2536   -3.1777   18.2579 O.2     1  UNL1       -0.2749
      7 C           2.8265   -1.1798   19.9818 C.3     1  UNL1        0.0964
      8 C           2.1130   -0.1809   20.8437 C.3     1  UNL1        0.0539
      9 N           1.0351    2.2062   25.0160 N.am    1  UNL1       -0.2485
     10 C           1.7486    1.2073   24.1540 C.2     1  UNL1        0.3058
     11 O           2.0567   -0.1600   24.6884 O.2     1  UNL1       -0.2524
     12 N           2.1541    1.5757   22.7576 N.am    1  UNL1       -0.2901
     13 H           0.8329    3.1036   24.6652 H       1  UNL1        0.1583
     14 H           1.9519    2.4731   22.4069 H       1  UNL1        0.1509
     15 C           0.6120    1.6213   28.8297 C.ar    1  UNL1        0.0803
     16 S           1.3723    2.1882   27.6676 S.2     1  UNL1       -0.0488
     17 C           0.6296    1.8378   26.4124 C.ar    1  UNL1        0.1664
     18 N          -0.5898    1.0544   26.7988 N.ar    1  UNL1       -0.2282
     19 C          -0.6007    0.9206   28.2927 C.ar    1  UNL1        0.0701
     20 C          -1.6416    0.2107   29.1068 C.3     1  UNL1        0.0528
     21 C           0.7093    2.9989   31.0303 C.3     1  UNL1        0.0779
     22 C           0.9968    1.7352   30.2750 C.2     1  UNL1        0.1807
     23 O           1.6690    0.5855   30.9650 O.2     1  UNL1       -0.2908
     24 C           6.4764   -2.6615   19.4998 C.3     1  UNL1        0.0767
     25 C           7.5846   -2.0051   18.7309 C.3     1  UNL1        0.0091
     26 C           8.8873   -2.5396   19.2479 C.3     1  UNL1        0.0005
     27 C           8.5843   -3.5263   20.3363 C.3     1  UNL1        0.0005
     28 C           7.0943   -3.6016   20.4920 C.3     1  UNL1        0.0091
     29 C           0.6447    0.0605   20.6538 C.3     1  UNL1        0.0754
     30 N           0.1701    1.3327   20.0164 N.3     1  UNL1       -0.2726
     31 C           0.7166    1.7534   18.6843 C.3     1  UNL1        0.0721
     32 C           0.2420    3.0256   18.0469 C.3     1  UNL1        0.0174
     33 C          -0.7790    3.8771   18.7416 C.3     1  UNL1        0.0031
     34 C          -1.3254    3.4564   20.0737 C.3     1  UNL1        0.0204
     35 C          -0.8508    2.1842   20.7111 C.3     1  UNL1        0.0724
     36 C          -2.3464    4.3079   20.7684 C.3     1  UNL1        0.0277
     37 C          -2.6653    4.0671   22.2142 C.ar    1  UNL1       -0.0220
     38 C          -3.9869    3.4727   22.6018 C.ar    1  UNL1       -0.0020
     39 C          -4.3059    3.2319   24.0475 C.ar    1  UNL1        0.0293
     40 C          -3.3032    3.5854   25.1057 C.ar    1  UNL1        0.1401
     41 F          -3.6221    3.3445   26.5515 F       1  UNL1       -0.2042
     42 C          -1.9817    4.1797   24.7181 C.ar    1  UNL1        0.0293
     43 C          -1.6627    4.4206   23.2724 C.ar    1  UNL1       -0.0020
@<TRIPOS>BOND
     1    21    22    1
     2    22    23    2
     3    22    15    1
     4    15    16   ar
     5    16    17   ar
     6    17     9    1
     7     9    10   am
     8    10    11    2
     9    10    12   am
    10     1    12    1
    11     1     2    1
    12     2     3    1
    13     3     4    1
    14     4     5   am
    15     5     6    2
    16     5    24    1
    17    24    25    1
    18    25    26    1
    19    26    27    1
    20    27    28    1
    21     4     7    1
    22     7     8    1
    23     8    29    1
    24    29    30    1
    25    30    31    1
    26    31    32    1
    27    32    33    1
    28    33    34    1
    29    34    36    1
    30    36    37    1
    31    37    38   ar
    32    38    39   ar
    33    39    40   ar
    34    40    41    1
    35    40    42   ar
    36    42    43   ar
    37    34    35    1
    38    17    18   ar
    39    18    19   ar
    40    19    20    1
    41    19    15   ar
    42     8     1    1
    43    35    30    1
    44    28    24    1
    45    43    37   ar
    46     9    13    1
    47    12    14    1
@<TRIPOS>MOLECULE
*****
 43 47 0 0 0
SMALL
GASTEIGER

@<TRIPOS>ATOM
      1 C           3.3580    0.2156   21.8354 C.3     1  UNL1        0.0777
      2 C           4.8265    0.0171   22.0673 C.3     1  UNL1        0.0412
      3 C           5.5919   -0.9649   21.2308 C.3     1  UNL1        0.0951
      4 N           4.8886   -1.7485   20.1624 N.am    1  UNL1       -0.2794
      5 C           5.6541   -2.7306   19.3258 C.2     1  UNL1        0.2251
      6 O           4.9508   -3.5141   18.2574 O.2     1  UNL1       -0.2749
      7 C           3.4201   -1.5500   19.9304 C.3     1  UNL1        0.0964
      8 C           2.6547   -0.5679   20.7670 C.3     1  UNL1        0.0539
      9 N           1.4014    1.8095   24.8983 N.am    1  UNL1       -0.2485
     10 C           2.1667    0.8275   24.0618 C.2     1  UNL1        0.3058
     11 O           2.5064   -0.5248   24.6151 O.2     1  UNL1       -0.2524
     12 N           2.5925    1.1977   22.6719 N.am    1  UNL1       -0.2901
     13 H           1.1784    2.6970   24.5351 H       1  UNL1        0.1583
     14 H           2.3696    2.0852   22.3087 H       1  UNL1        0.1509
     15 C           1.0163    0.9990   28.6746 C.ar    1  UNL1        0.0803
     16 S           1.8514    1.4311   27.5058 S.2     1  UNL1       -0.0488
     17 C           0.9756    1.4393   26.2881 C.ar    1  UNL1        0.1664
     18 N          -0.4008    1.0123   26.7043 N.ar    1  UNL1       -0.2282
     19 C          -0.3756    0.7402   28.1792 C.ar    1  UNL1        0.0701
     20 C          -1.5383    0.2886   29.0124 C.3     1  UNL1        0.0528
     21 C           1.4531    2.0284   31.0197 C.3     1  UNL1        0.0779
     22 C           1.4901    0.8517   30.0902 C.2     1  UNL1        0.1807
     23 O           2.0008   -0.4722   30.5762 O.2     1  UNL1       -0.2908
     24 C           7.1226   -2.9291   19.5577 C.3     1  UNL1        0.0767
     25 C           7.7391   -3.8557   20.5633 C.3     1  UNL1        0.0091
     26 C           9.2301   -3.7352   20.4519 C.3     1  UNL1        0.0005
     27 C           9.5351   -2.7339   19.3774 C.3     1  UNL1        0.0005
     28 C           8.2327   -2.2357   18.8248 C.3     1  UNL1        0.0091
     29 C           1.1861   -0.3694   20.5351 C.3     1  UNL1        0.0754
     30 N           0.6777    0.9493   20.0324 N.3     1  UNL1       -0.2726
     31 C           0.8344    1.3111   18.5850 C.3     1  UNL1        0.0721
     32 C           0.3261    2.6297   18.0823 C.3     1  UNL1        0.0174
     33 C          -0.3390    3.5866   19.0269 C.3     1  UNL1        0.0031
     34 C          -0.4957    3.2248   20.4741 C.3     1  UNL1        0.0204
     35 C           0.0126    1.9061   20.9769 C.3     1  UNL1        0.0724
     36 C          -1.1608    4.1816   21.4187 C.3     1  UNL1        0.0277
     37 C          -2.6186    4.0294   21.7374 C.ar    1  UNL1       -0.0220
     38 C          -3.5575    3.4743   20.7076 C.ar    1  UNL1       -0.0020
     39 C          -5.0153    3.3221   21.0263 C.ar    1  UNL1        0.0293
     40 C          -5.5343    3.7250   22.3748 C.ar    1  UNL1        0.1401
     41 F          -6.9921    3.5728   22.6935 F       1  UNL1       -0.2042
     42 C          -4.5954    4.2801   23.4045 C.ar    1  UNL1        0.0293
     43 C          -3.1376    4.4323   23.0858 C.ar    1  UNL1       -0.0020
@<TRIPOS>BOND
     1    21    22    1
     2    22    23    2
     3    22    15    1
     4    15    16   ar
     5    16    17   ar
     6    17     9    1
     7     9    10   am
     8    10    11    2
     9    10    12   am
    10     1    12    1
    11     1     2    1
    12     2     3    1
    13     3     4    1
    14     4     5   am
    15     5     6    2
    16     5    24    1
    17    24    25    1
    18    25    26    1
    19    26    27    1
    20    27    28    1
    21     4     7    1
    22     7     8    1
    23     8    29    1
    24    29    30    1
    25    30    31    1
    26    31    32    1
    27    32    33    1
    28    33    34    1
    29    34    36    1
    30    36    37    1
    31    37    38   ar
    32    38    39   ar
    33    39    40   ar
    34    40    41    1
    35    40    42   ar
    36    42    43   ar
    37    34    35    1
    38    17    18   ar
    39    18    19   ar
    40    19    20    1
    41    19    15   ar
    42     8     1    1
    43    35    30    1
    44    28    24    1
    45    43    37   ar
    46     9    13    1
    47    12    14    1
@<TRIPOS>MOLECULE
*****
 43 47 0 0 0
SMALL
GASTEIGER

@<TRIPOS>ATOM
      1 C           4.3505    0.7657   29.0998 C.3     1  UNL1        0.0777
      2 C           5.5902   -0.0516   28.8875 C.3     1  UNL1        0.0412
      3 C           5.9735   -1.1055   29.8837 C.3     1  UNL1        0.0951
      4 N           5.1170   -1.3419   31.0923 N.am    1  UNL1       -0.2794
      5 C           5.5004   -2.3958   32.0885 C.2     1  UNL1        0.2251
      6 O           4.6439   -2.6323   33.2971 O.2     1  UNL1       -0.2749
      7 C           3.8774   -0.5246   31.3046 C.3     1  UNL1        0.0964
      8 C           3.4941    0.5292   30.3084 C.3     1  UNL1        0.0539
      9 N           3.1625    2.4788   25.7228 N.am    1  UNL1       -0.2485
     10 C           3.5458    1.4250   26.7191 C.2     1  UNL1        0.3058
     11 O           3.5077   -0.0234   26.3309 O.2     1  UNL1       -0.2524
     12 N           3.9672    1.8196   28.1035 N.am    1  UNL1       -0.2901
     13 H           3.1875    3.4294   25.9776 H       1  UNL1        0.1583
     14 H           3.9922    2.7702   28.3583 H       1  UNL1        0.1509
     15 C           1.3824    1.6518   22.3742 C.ar    1  UNL1        0.0803
     16 S           1.3443    2.1351   23.7938 S.2     1  UNL1       -0.0488
     17 C           2.7411    2.0843   24.3384 C.ar    1  UNL1        0.1664
     18 N           3.6423    1.5696   23.2554 N.ar    1  UNL1       -0.2282
     19 C           2.8027    1.3023   22.0415 C.ar    1  UNL1        0.0701
     20 C           3.2966    0.7777   20.7259 C.3     1  UNL1        0.0528
     21 C          -0.6461    2.7398   21.1697 C.3     1  UNL1        0.0779
     22 C           0.2066    1.5381   21.4498 C.2     1  UNL1        0.1807
     23 O          -0.1163    0.2227   20.8055 O.2     1  UNL1       -0.2908
     24 C           6.7400   -3.2132   31.8762 C.3     1  UNL1        0.0767
     25 C           8.1292   -2.8331   32.2954 C.3     1  UNL1        0.0091
     26 C           9.0560   -3.9391   31.8857 C.3     1  UNL1        0.0005
     27 C           8.2395   -5.0028   31.2133 C.3     1  UNL1        0.0005
     28 C           6.8082   -4.5541   31.2074 C.3     1  UNL1        0.0091
     29 C           2.2544    1.3466   30.5207 C.3     1  UNL1        0.0754
     30 N           1.1399    1.2930   29.5181 N.3     1  UNL1       -0.2726
     31 C           0.4418   -0.0055   29.2413 C.3     1  UNL1        0.0721
     32 C          -0.6726   -0.0591   28.2387 C.3     1  UNL1        0.0174
     33 C          -1.0890    1.1859   27.5129 C.3     1  UNL1        0.0031
     34 C          -0.3909    2.4844   27.7897 C.3     1  UNL1        0.0204
     35 C           0.7236    2.5379   28.7923 C.3     1  UNL1        0.0724
     36 C          -0.8072    3.7294   27.0639 C.3     1  UNL1        0.0277
     37 C          -2.0645    3.7356   26.2458 C.ar    1  UNL1       -0.0220
     38 C          -3.3867    3.9961   26.9046 C.ar    1  UNL1       -0.0020
     39 C          -4.6439    4.0023   26.0864 C.ar    1  UNL1        0.0293
     40 C          -4.5789    3.7481   24.6095 C.ar    1  UNL1        0.1401
     41 F          -5.8362    3.7543   23.7914 F       1  UNL1       -0.2042
     42 C          -3.2567    3.4876   23.9508 C.ar    1  UNL1        0.0293
     43 C          -1.9995    3.4814   24.7690 C.ar    1  UNL1       -0.0020
@<TRIPOS>BOND
     1    21    22    1
     2    22    23    2
     3    22    15    1
     4    15    16   ar
     5    16    17   ar
     6    17     9    1
     7     9    10   am
     8    10    11    2
     9    10    12   am
    10     1    12    1
    11     1     2    1
    12     2     3    1
    13     3     4    1
    14     4     5   am
    15     5     6    2
    16     5    24    1
    17    24    25    1
    18    25    26    1
    19    26    27    1
    20    27    28    1
    21     4     7    1
    22     7     8    1
    23     8    29    1
    24    29    30    1
    25    30    31    1
    26    31    32    1
    27    32    33    1
    28    33    34    1
    29    34    36    1
    30    36    37    1
    31    37    38   ar
    32    38    39   ar
    33    39    40   ar
    34    40    41    1
    35    40    42   ar
    36    42    43   ar
    37    34    35    1
    38    17    18   ar
    39    18    19   ar
    40    19    20    1
    41    19    15   ar
    42     8     1    1
    43    35    30    1
    44    28    24    1
    45    43    37   ar
    46     9    13    1
    47    12    14    1
@<TRIPOS>MOLECULE
*****
 43 47 0 0 0
SMALL
GASTEIGER

@<TRIPOS>ATOM
      1 C           5.3841   -0.2569   24.7392 C.3     1  UNL1        0.0777
      2 C           5.9507   -1.3435   23.8742 C.3     1  UNL1        0.0412
      3 C           5.2768   -1.7023   22.5831 C.3     1  UNL1        0.0951
      4 N           4.0363   -0.9745   22.1570 N.am    1  UNL1       -0.2794
      5 C           3.3624   -1.3334   20.8657 C.2     1  UNL1        0.2251
      6 O           2.1220   -0.6056   20.4396 O.2     1  UNL1       -0.2749
      7 C           3.4698    0.1121   23.0220 C.3     1  UNL1        0.0964
      8 C           4.1436    0.4709   24.3131 C.3     1  UNL1        0.0539
      9 N           6.4843   -0.3625   28.5509 N.am    1  UNL1       -0.2485
     10 C           5.8105   -0.7213   27.2597 C.2     1  UNL1        0.3058
     11 O           4.8891   -1.9034   27.1977 O.2     1  UNL1       -0.2524
     12 N           6.0580    0.1019   26.0305 N.am    1  UNL1       -0.2901
     13 H           7.0890    0.4133   28.5915 H       1  UNL1        0.1583
     14 H           6.6627    0.8778   26.0711 H       1  UNL1        0.1509
     15 C           5.4272   -1.9049   31.9522 C.ar    1  UNL1        0.0803
     16 S           5.3977   -0.7834   30.9565 S.2     1  UNL1       -0.0488
     17 C           6.2368   -1.1857   29.7801 C.ar    1  UNL1        0.1664
     18 N           6.7850   -2.5559   30.0488 N.ar    1  UNL1       -0.2282
     19 C           6.2847   -3.0003   31.3912 C.ar    1  UNL1        0.0701
     20 C           6.5884   -4.3103   32.0559 C.3     1  UNL1        0.0528
     21 C           4.9600   -0.8287   34.2703 C.3     1  UNL1        0.0779
     22 C           4.7230   -1.9269   33.2765 C.2     1  UNL1        0.1807
     23 O           3.7819   -3.0472   33.6068 O.2     1  UNL1       -0.2908
     24 C           3.9290   -2.4200   20.0008 C.3     1  UNL1        0.0767
     25 C           3.6006   -3.8807   20.0918 C.3     1  UNL1        0.0091
     26 C           4.3921   -4.6002   19.0402 C.3     1  UNL1        0.0005
     27 C           5.2097   -3.5841   18.2991 C.3     1  UNL1        0.0005
     28 C           4.9235   -2.2366   18.8928 C.3     1  UNL1        0.0091
     29 C           3.5771    1.5575   25.1782 C.3     1  UNL1        0.0754
     30 N           2.3448    1.3008   25.9940 N.3     1  UNL1       -0.2726
     31 C           0.9881    1.5209   25.3931 C.3     1  UNL1        0.0721
     32 C          -0.2441    1.2642   26.2090 C.3     1  UNL1        0.0174
     33 C          -0.1197    0.7874   27.6258 C.3     1  UNL1        0.0031
     34 C           1.2369    0.5674   28.2267 C.3     1  UNL1        0.0204
     35 C           2.4692    0.8241   27.4108 C.3     1  UNL1        0.0724
     36 C           1.3614    0.0906   29.6435 C.3     1  UNL1        0.0277
     37 C           1.4020    1.0828   30.7678 C.ar    1  UNL1       -0.0220
     38 C           2.3981    0.9185   31.8773 C.ar    1  UNL1       -0.0020
     39 C           2.4387    1.9106   33.0016 C.ar    1  UNL1        0.0293
     40 C           1.4834    3.0670   33.0164 C.ar    1  UNL1        0.1401
     41 F           1.5240    4.0591   34.1407 F       1  UNL1       -0.2042
     42 C           0.4874    3.2312   31.9069 C.ar    1  UNL1        0.0293
     43 C           0.4467    2.2391   30.7826 C.ar    1  UNL1       -0.0020
@<TRIPOS>BOND
     1    21    22    1
     2    22    23    2
     3    22    15    1
     4    15    16   ar
     5    16    17   ar
     6    17     9    1
     7     9    10   am
     8    10    11    2
     9    10    12   am
    10     1    12    1
    11     1     2    1
    12     2     3    1
    13     3     4    1
    14     4     5   am
    15     5     6    2
    16     5    24    1
    17    24    25    1
    18    25    26    1
    19    26    27    1
    20    27    28    1
    21     4     7    1
    22     7     8    1
    23     8    29    1
    24    29    30    1
    25    30    31    1
    26    31    32    1
    27    32    33    1
    28    33    34    1
    29    34    36    1
    30    36    37    1
    31    37    38   ar
    32    38    39   ar
    33    39    40   ar
    34    40    41    1
    35    40    42   ar
    36    42    43   ar
    37    34    35    1
    38    17    18   ar
    39    18    19   ar
    40    19    20    1
    41    19    15   ar
    42     8     1    1
    43    35    30    1
    44    28    24    1
    45    43    37   ar
    46     9    13    1
    47    12    14    1
@<TRIPOS>MOLECULE
*****
 43 47 0 0 0
SMALL
GASTEIGER

@<TRIPOS>ATOM
      1 C           1.7762    2.0447   20.0236 C.3     1  UNL1        0.0777
      2 C           1.7877    0.8050   19.1794 C.3     1  UNL1        0.0412
      3 C           2.6918   -0.3373   19.5367 C.3     1  UNL1        0.0951
      4 N           3.5844   -0.2398   20.7383 N.am    1  UNL1       -0.2794
      5 C           4.4886   -1.3822   21.0955 C.2     1  UNL1        0.2251
      6 O           5.3812   -1.2847   22.2971 O.2     1  UNL1       -0.2749
      7 C           3.5729    1.0000   21.5825 C.3     1  UNL1        0.0964
      8 C           2.6688    2.1422   21.2252 C.3     1  UNL1        0.0539
      9 N          -1.5062    4.2285   19.5681 N.am    1  UNL1       -0.2485
     10 C          -0.6020    3.0862   19.9253 C.2     1  UNL1        0.3058
     11 O          -1.1719    1.8430   20.5416 O.2     1  UNL1       -0.2524
     12 N           0.8720    3.1871   19.6663 N.am    1  UNL1       -0.2901
     13 H          -1.1322    5.0444   19.1636 H       1  UNL1        0.1583
     14 H           1.2460    4.0030   19.2619 H       1  UNL1        0.1509
     15 C          -5.1404    4.2037   20.9308 C.ar    1  UNL1        0.0803
     16 S          -3.6718    4.4425   21.1203 S.2     1  UNL1       -0.0488
     17 C          -2.9802    4.1276   19.8271 C.ar    1  UNL1        0.1664
     18 N          -4.0215    3.6942   18.8382 N.ar    1  UNL1       -0.2282
     19 C          -5.3566    3.7412   19.5204 C.ar    1  UNL1        0.0701
     20 C          -6.6762    3.3878   18.9008 C.3     1  UNL1        0.0528
     21 C          -6.0092    3.8510   23.3538 C.3     1  UNL1        0.0779
     22 C          -6.2059    4.3939   21.9694 C.2     1  UNL1        0.1807
     23 O          -7.4679    5.1270   21.6236 O.2     1  UNL1       -0.2908
     24 C           4.5001   -2.6219   20.2513 C.3     1  UNL1        0.0767
     25 C           3.7138   -3.8727   20.5109 C.3     1  UNL1        0.0091
     26 C           4.0276   -4.8524   19.4193 C.3     1  UNL1        0.0005
     27 C           5.0079   -4.2072   18.4850 C.3     1  UNL1        0.0005
     28 C           5.2999   -2.8287   18.9993 C.3     1  UNL1        0.0091
     29 C           2.6572    3.3821   22.0694 C.3     1  UNL1        0.0754
     30 N           1.4266    3.7506   22.8439 N.3     1  UNL1       -0.2726
     31 C           0.8060    5.1046   22.6660 C.3     1  UNL1        0.0721
     32 C          -0.4246    5.4732   23.4405 C.3     1  UNL1        0.0174
     33 C          -1.0345    4.4877   24.3929 C.3     1  UNL1        0.0031
     34 C          -0.4139    3.1338   24.5708 C.3     1  UNL1        0.0204
     35 C           0.8167    2.7653   23.7963 C.3     1  UNL1        0.0724
     36 C          -1.0238    2.1484   25.5232 C.3     1  UNL1        0.0277
     37 C          -0.5394    2.0773   26.9410 C.ar    1  UNL1       -0.0220
     38 C          -0.7660    0.8343   27.7496 C.ar    1  UNL1       -0.0020
     39 C          -0.2816    0.7632   29.1674 C.ar    1  UNL1        0.0293
     40 C           0.4294    1.9351   29.7767 C.ar    1  UNL1        0.1401
     41 F           0.9138    1.8640   31.1946 F       1  UNL1       -0.2042
     42 C           0.6560    3.1780   28.9682 C.ar    1  UNL1        0.0293
     43 C           0.1716    3.2491   27.5503 C.ar    1  UNL1       -0.0020
@<TRIPOS>BOND
     1    21    22    1
     2    22    23    2
     3    22    15    1
     4    15    16   ar
     5    16    17   ar
     6    17     9    1
     7     9    10   am
     8    10    11    2
     9    10    12   am
    10     1    12    1
    11     1     2    1
    12     2     3    1
    13     3     4    1
    14     4     5   am
    15     5     6    2
    16     5    24    1
    17    24    25    1
    18    25    26    1
    19    26    27    1
    20    27    28    1
    21     4     7    1
    22     7     8    1
    23     8    29    1
    24    29    30    1
    25    30    31    1
    26    31    32    1
    27    32    33    1
    28    33    34    1
    29    34    36    1
    30    36    37    1
    31    37    38   ar
    32    38    39   ar
    33    39    40   ar
    34    40    41    1
    35    40    42   ar
    36    42    43   ar
    37    34    35    1
    38    17    18   ar
    39    18    19   ar
    40    19    20    1
    41    19    15   ar
    42     8     1    1
    43    35    30    1
    44    28    24    1
    45    43    37   ar
    46     9    13    1
    47    12    14    1
@<TRIPOS>MOLECULE
*****
 43 47 0 0 0
SMALL
GASTEIGER

@<TRIPOS>ATOM
      1 C           3.5637   -0.3995   26.1559 C.3     1  UNL1        0.0777
      2 C           3.9839   -1.6360   26.8936 C.3     1  UNL1        0.0412
      3 C           4.6945   -1.5192   28.2094 C.3     1  UNL1        0.0951
      4 N           4.9849   -0.1658   28.7875 N.am    1  UNL1       -0.2794
      5 C           5.6955   -0.0490   30.1033 C.2     1  UNL1        0.2251
      6 O           5.9859    1.3043   30.6814 O.2     1  UNL1       -0.2749
      7 C           4.5647    1.0707   28.0497 C.3     1  UNL1        0.0964
      8 C           3.8541    0.9539   26.7339 C.3     1  UNL1        0.0539
      9 N           2.8782   -1.1324   22.3162 N.am    1  UNL1       -0.2485
     10 C           3.5888   -1.0156   23.6320 C.2     1  UNL1        0.3058
     11 O           5.0352   -1.3982   23.7399 O.2     1  UNL1       -0.2524
     12 N           2.8530   -0.5162   24.8400 N.am    1  UNL1       -0.2901
     13 H           1.9289   -0.8813   22.2454 H       1  UNL1        0.1583
     14 H           1.9037   -0.2651   24.7693 H       1  UNL1        0.1509
     15 C           4.9402   -1.6967   19.0765 C.ar    1  UNL1        0.0803
     16 S           4.3603   -0.7869   20.1187 S.2     1  UNL1       -0.0488
     17 C           3.6140   -1.6318   21.1082 C.ar    1  UNL1        0.1664
     18 N           3.7327   -3.0637   20.6776 N.ar    1  UNL1       -0.2282
     19 C           4.5523   -3.1039   19.4220 C.ar    1  UNL1        0.0701
     20 C           4.9196   -4.3350   18.6478 C.3     1  UNL1        0.0528
     21 C           5.3738   -0.0591   17.1067 C.3     1  UNL1        0.0779
     22 C           5.7635   -1.2735   17.8962 C.2     1  UNL1        0.1807
     23 O           6.9763   -2.0647   17.5054 O.2     1  UNL1       -0.2908
     24 C           6.1158   -1.2856   30.8411 C.3     1  UNL1        0.0767
     25 C           5.2966   -2.0291   31.8541 C.3     1  UNL1        0.0091
     26 C           6.1035   -3.1987   32.3345 C.3     1  UNL1        0.0005
     27 C           7.4214   -3.1781   31.6183 C.3     1  UNL1        0.0005
     28 C           7.4290   -1.9957   30.6954 C.3     1  UNL1        0.0091
     29 C           3.4338    2.1905   25.9961 C.3     1  UNL1        0.0754
     30 N           2.0038    2.3648   25.5781 N.3     1  UNL1       -0.2726
     31 C           0.8986    2.1001   26.5571 C.3     1  UNL1        0.0721
     32 C          -0.5314    2.2745   26.1391 C.3     1  UNL1        0.0174
     33 C          -0.8562    2.7134   24.7420 C.3     1  UNL1        0.0031
     34 C           0.2490    2.9781   23.7630 C.3     1  UNL1        0.0204
     35 C           1.6790    2.8038   24.1810 C.3     1  UNL1        0.0724
     36 C          -0.0758    3.4171   22.3659 C.3     1  UNL1        0.0277
     37 C           0.4096    2.6141   21.1955 C.ar    1  UNL1       -0.0220
     38 C           0.1461    1.1385   21.1374 C.ar    1  UNL1       -0.0020
     39 C           0.6315    0.3356   19.9670 C.ar    1  UNL1        0.0293
     40 C           1.3803    1.0082   18.8548 C.ar    1  UNL1        0.1401
     41 F           1.8656    0.2053   17.6845 F       1  UNL1       -0.2042
     42 C           1.6437    2.4838   18.9130 C.ar    1  UNL1        0.0293
     43 C           1.1583    3.2867   20.0833 C.ar    1  UNL1       -0.0020
@<TRIPOS>BOND
     1    21    22    1
     2    22    23    2
     3    22    15    1
     4    15    16   ar
     5    16    17   ar
     6    17     9    1
     7     9    10   am
     8    10    11    2
     9    10    12   am
    10     1    12    1
    11     1     2    1
    12     2     3    1
    13     3     4    1
    14     4     5   am
    15     5     6    2
    16     5    24    1
    17    24    25    1
    18    25    26    1
    19    26    27    1
    20    27    28    1
    21     4     7    1
    22     7     8    1
    23     8    29    1
    24    29    30    1
    25    30    31    1
    26    31    32    1
    27    32    33    1
    28    33    34    1
    29    34    36    1
    30    36    37    1
    31    37    38   ar
    32    38    39   ar
    33    39    40   ar
    34    40    41    1
    35    40    42   ar
    36    42    43   ar
    37    34    35    1
    38    17    18   ar
    39    18    19   ar
    40    19    20    1
    41    19    15   ar
    42     8     1    1
    43    35    30    1
    44    28    24    1
    45    43    37   ar
    46     9    13    1
    47    12    14    1
@<TRIPOS>MOLECULE
*****
 43 47 0 0 0
SMALL
GASTEIGER

@<TRIPOS>ATOM
      1 C           3.7529    0.7237   24.9549 C.3     1  UNL1        0.0777
      2 C           4.6470    0.2267   23.8578 C.3     1  UNL1        0.0412
      3 C           4.0586   -0.1957   22.5444 C.3     1  UNL1        0.0951
      4 N           2.5761   -0.1212   22.3280 N.am    1  UNL1       -0.2794
      5 C           1.9877   -0.5437   21.0144 C.2     1  UNL1        0.2251
      6 O           0.5053   -0.4692   20.7980 O.2     1  UNL1       -0.2749
      7 C           1.6821    0.3758   23.4251 C.3     1  UNL1        0.0964
      8 C           2.2705    0.7982   24.7386 C.3     1  UNL1        0.0539
      9 N           5.0531    0.5782   28.7017 N.am    1  UNL1       -0.2485
     10 C           4.4647    0.1558   27.3882 C.2     1  UNL1        0.3058
     11 O           3.9998   -1.2572   27.1944 O.2     1  UNL1       -0.2524
     12 N           4.3413    1.1462   26.2685 N.am    1  UNL1       -0.2901
     13 H           5.3583    1.5055   28.8289 H       1  UNL1        0.1583
     14 H           4.6465    2.0735   26.3957 H       1  UNL1        0.1509
     15 C           4.8958   -1.5257   31.9597 C.ar    1  UNL1        0.0803
     16 S           4.4876   -0.3299   31.1514 S.2     1  UNL1       -0.0488
     17 C           5.1765   -0.4123   29.8215 C.ar    1  UNL1        0.1664
     18 N           6.0105   -1.6590   29.8079 N.ar    1  UNL1       -0.2282
     19 C           5.8370   -2.3471   31.1294 C.ar    1  UNL1        0.0701
     20 C           6.4901   -3.6312   31.5472 C.3     1  UNL1        0.0528
     21 C           4.7217   -0.8832   34.4710 C.3     1  UNL1        0.0779
     22 C           4.4425   -1.8442   33.3536 C.2     1  UNL1        0.1807
     23 O           3.7099   -3.1235   33.6302 O.2     1  UNL1       -0.2908
     24 C           2.8818   -1.0407   19.9173 C.3     1  UNL1        0.0767
     25 C           3.4256   -0.2220   18.7842 C.3     1  UNL1        0.0091
     26 C           4.2689   -1.1189   17.9273 C.3     1  UNL1        0.0005
     27 C           4.2463   -2.4920   18.5308 C.3     1  UNL1        0.0005
     28 C           3.3889   -2.4436   19.7607 C.3     1  UNL1        0.0091
     29 C           1.3765    1.2952   25.8357 C.3     1  UNL1        0.0754
     30 N           0.4894    2.4818   25.6008 N.3     1  UNL1       -0.2726
     31 C           1.0293    3.6956   24.9041 C.3     1  UNL1        0.0721
     32 C           0.1422    4.8821   24.6691 C.3     1  UNL1        0.0174
     33 C          -1.2847    4.8549   25.1308 C.3     1  UNL1        0.0031
     34 C          -1.8246    3.6412   25.8275 C.3     1  UNL1        0.0204
     35 C          -0.9375    2.4546   26.0625 C.3     1  UNL1        0.0724
     36 C          -3.2515    3.6139   26.2892 C.3     1  UNL1        0.0277
     37 C          -4.3609    3.8693   25.3124 C.ar    1  UNL1       -0.0220
     38 C          -5.4929    4.7804   25.6846 C.ar    1  UNL1       -0.0020
     39 C          -6.6023    5.0358   24.7077 C.ar    1  UNL1        0.0293
     40 C          -6.5795    4.3801   23.3588 C.ar    1  UNL1        0.1401
     41 F          -7.6889    4.6355   22.3820 F       1  UNL1       -0.2042
     42 C          -5.4475    3.4691   22.9867 C.ar    1  UNL1        0.0293
     43 C          -4.3382    3.2137   23.9635 C.ar    1  UNL1       -0.0020
@<TRIPOS>BOND
     1    21    22    1
     2    22    23    2
     3    22    15    1
     4    15    16   ar
     5    16    17   ar
     6    17     9    1
     7     9    10   am
     8    10    11    2
     9    10    12   am
    10     1    12    1
    11     1     2    1
    12     2     3    1
    13     3     4    1
    14     4     5   am
    15     5     6    2
    16     5    24    1
    17    24    25    1
    18    25    26    1
    19    26    27    1
    20    27    28    1
    21     4     7    1
    22     7     8    1
    23     8    29    1
    24    29    30    1
    25    30    31    1
    26    31    32    1
    27    32    33    1
    28    33    34    1
    29    34    36    1
    30    36    37    1
    31    37    38   ar
    32    38    39   ar
    33    39    40   ar
    34    40    41    1
    35    40    42   ar
    36    42    43   ar
    37    34    35    1
    38    17    18   ar
    39    18    19   ar
    40    19    20    1
    41    19    15   ar
    42     8     1    1
    43    35    30    1
    44    28    24    1
    45    43    37   ar
    46     9    13    1
    47    12    14    1
