@<TRIPOS>MOLECULE
*****
 37 42 0 0 0
SMALL
GASTEIGER

@<TRIPOS>ATOM
      1 C           8.2595   -2.4271   18.5905 C.3     1  UNL1        0.1164
      2 N           7.4050   -2.5456   19.8175 N.am    1  UNL1       -0.2625
      3 C           8.0431   -2.7585   21.1582 C.2     1  UNL1        0.3073
      4 O           9.5357   -2.8529   21.2719 O.2     1  UNL1       -0.2523
      5 N           7.1885   -2.8770   22.3853 N.am    1  UNL1       -0.2621
      6 C           5.6909   -2.8031   22.4272 C.3     1  UNL1        0.0970
      7 C           5.2584   -2.9706   23.8537 C.3     1  UNL1        0.0460
      8 C           6.4886   -3.1480   24.6933 C.3     1  UNL1        0.1114
      9 C           7.6815   -3.0901   23.7859 C.3     1  UNL1        0.1176
     10 N           6.5203   -3.3481   26.1797 N.ar    1  UNL1       -0.2779
     11 C           6.9504   -4.6671   26.7498 C.ar    1  UNL1        0.1808
     12 N           6.9821   -4.8672   28.2361 N.ar    1  UNL1       -0.2247
     13 C           6.5837   -3.7482   29.1522 C.ar    1  UNL1        0.0941
     14 C           6.5153   -3.6513   30.6475 C.ar    1  UNL1        0.0263
     15 C           6.0428   -2.2724   31.0014 C.ar    1  UNL1        0.0312
     16 S           5.8193   -1.5170   29.7248 S.2     1  UNL1       -0.0807
     17 C           6.1536   -2.4292   28.5819 C.ar    1  UNL1        0.1033
     18 C           6.1219   -2.2291   27.0957 C.ar    1  UNL1        0.2694
     19 O           5.6918   -0.9101   26.5255 O.2     1  UNL1       -0.2663
     20 C           5.8311   -1.7418   32.3883 C.ar    1  UNL1        0.0061
     21 C           4.5026   -1.9152   33.0630 C.ar    1  UNL1        0.0014
     22 C           4.2910   -1.3846   34.4500 C.ar    1  UNL1        0.0114
     23 C           5.4077   -0.6806   35.1623 C.ar    1  UNL1        0.0577
     24 CL          5.1959   -0.1501   36.5493 Cl      1  UNL1       -0.0822
     25 C           6.7361   -0.5072   34.4877 C.ar    1  UNL1        0.0114
     26 C           6.9478   -1.0378   33.1007 C.ar    1  UNL1        0.0014
     27 C           5.9123   -2.4513   19.7039 C.3     1  UNL1        0.0942
     28 C           4.9716   -3.5962   19.4711 C.3     1  UNL1        0.0386
     29 C           3.5761   -3.0480   19.4264 C.3     1  UNL1        0.0738
     30 N           3.6543   -1.5642   19.6317 N.3     1  UNL1       -0.2724
     31 C           5.0981   -1.1954   19.8032 C.3     1  UNL1        0.0922
     32 C           2.4926   -0.6157   19.6604 C.3     1  UNL1        0.0626
     33 C           1.6594   -0.4877   20.9011 C.3     1  UNL1        0.0481
     34 C           0.4977    0.4609   20.9298 C.3     1  UNL1        0.1435
     35 O           0.1692    1.2814   19.7178 O.3     1  UNL1       -0.3537
     36 C           1.0025    1.1534   18.4771 C.3     1  UNL1        0.1435
     37 C           2.1642    0.2049   18.4484 C.3     1  UNL1        0.0481
@<TRIPOS>BOND
     1     1     2    1
     2     2     3   am
     3     3     4    2
     4     3     5   am
     5     5     6    1
     6     6     7    1
     7     7     8    1
     8     8    10    1
     9    10    11   ar
    10    11    12   ar
    11    12    13   ar
    12    13    14   ar
    13    14    15   ar
    14    15    20    1
    15    20    21   ar
    16    21    22   ar
    17    22    23   ar
    18    23    24    1
    19    23    25   ar
    20    25    26   ar
    21    15    16   ar
    22    16    17   ar
    23    17    18   ar
    24    18    19    2
    25     8     9    1
    26    27     2    1
    27    27    28    1
    28    28    29    1
    29    29    30    1
    30    30    32    1
    31    32    33    1
    32    33    34    1
    33    34    35    1
    34    35    36    1
    35    36    37    1
    36    30    31    1
    37     9     5    1
    38    31    27    1
    39    18    10   ar
    40    37    32    1
    41    17    13   ar
    42    26    20   ar
@<TRIPOS>MOLECULE
*****
 37 42 0 0 0
SMALL
GASTEIGER

@<TRIPOS>ATOM
      1 C          -0.4225    2.6713   19.5215 C.3     1  UNL1        0.1164
      2 N           0.2325    2.2225   20.7941 N.am    1  UNL1       -0.2625
      3 C          -0.3689    2.5914   22.1177 C.2     1  UNL1        0.3073
      4 O          -1.6253    3.4092   22.1689 O.2     1  UNL1       -0.2523
      5 N           0.2861    2.1427   23.3904 N.am    1  UNL1       -0.2621
      6 C           1.5389    1.3246   23.4962 C.3     1  UNL1        0.0970
      7 C           1.8304    1.1095   24.9518 C.3     1  UNL1        0.0460
      8 C           0.7578    1.7946   25.7456 C.3     1  UNL1        0.1114
      9 C          -0.1967    2.4332   24.7806 C.3     1  UNL1        0.1176
     10 N           0.6573    1.8342   27.2417 N.ar    1  UNL1       -0.2779
     11 C           0.4358    0.5667   28.0124 C.ar    1  UNL1        0.1808
     12 N           0.3353    0.6063   29.5085 N.ar    1  UNL1       -0.2247
     13 C           0.4563    1.9136   30.2339 C.ar    1  UNL1        0.0941
     14 C           0.3991    2.2615   31.6919 C.ar    1  UNL1        0.0263
     15 C           0.5853    3.7442   31.8222 C.ar    1  UNL1        0.0312
     16 S           0.7575    4.3126   30.4449 S.2     1  UNL1       -0.0807
     17 C           0.6778    3.1813   29.4632 C.ar    1  UNL1        0.1033
     18 C           0.7783    3.1416   27.9671 C.ar    1  UNL1        0.2694
     19 O           0.9998    4.4092   27.1964 O.2     1  UNL1       -0.2663
     20 C           0.5971    4.5219   33.1048 C.ar    1  UNL1        0.0061
     21 C          -0.3118    5.7030   33.2742 C.ar    1  UNL1        0.0014
     22 C          -0.2999    6.4807   34.5568 C.ar    1  UNL1        0.0114
     23 C           0.6209    6.0773   35.6701 C.ar    1  UNL1        0.0577
     24 CL          0.6328    6.8550   36.9527 Cl      1  UNL1       -0.0822
     25 C           1.5298    4.8961   35.5007 C.ar    1  UNL1        0.0114
     26 C           1.5179    4.1184   34.2181 C.ar    1  UNL1        0.0014
     27 C           1.4889    1.4047   20.7430 C.3     1  UNL1        0.0942
     28 C           2.8841    1.9394   20.6106 C.3     1  UNL1        0.0386
     29 C           3.8283    0.7739   20.6012 C.3     1  UNL1        0.0738
     30 N           3.0166   -0.4811   20.7276 N.3     1  UNL1       -0.2724
     31 C           1.5708   -0.0913   20.8153 C.3     1  UNL1        0.0922
     32 C           3.5559   -1.8804   20.7607 C.3     1  UNL1        0.0626
     33 C           3.5052   -2.7331   19.5276 C.3     1  UNL1        0.0481
     34 C           4.0446   -4.1324   19.5608 C.3     1  UNL1        0.1435
     35 O           4.6347   -4.6790   20.8268 O.3     1  UNL1       -0.3537
     36 C           4.6855   -3.8263   22.0598 C.3     1  UNL1        0.1435
     37 C           4.1462   -2.4270   22.0268 C.3     1  UNL1        0.0481
@<TRIPOS>BOND
     1     1     2    1
     2     2     3   am
     3     3     4    2
     4     3     5   am
     5     5     6    1
     6     6     7    1
     7     7     8    1
     8     8    10    1
     9    10    11   ar
    10    11    12   ar
    11    12    13   ar
    12    13    14   ar
    13    14    15   ar
    14    15    20    1
    15    20    21   ar
    16    21    22   ar
    17    22    23   ar
    18    23    24    1
    19    23    25   ar
    20    25    26   ar
    21    15    16   ar
    22    16    17   ar
    23    17    18   ar
    24    18    19    2
    25     8     9    1
    26    27     2    1
    27    27    28    1
    28    28    29    1
    29    29    30    1
    30    30    32    1
    31    32    33    1
    32    33    34    1
    33    34    35    1
    34    35    36    1
    35    36    37    1
    36    30    31    1
    37     9     5    1
    38    31    27    1
    39    18    10   ar
    40    37    32    1
    41    17    13   ar
    42    26    20   ar
@<TRIPOS>MOLECULE
*****
 37 42 0 0 0
SMALL
GASTEIGER

@<TRIPOS>ATOM
      1 C           9.4871   -7.2860   30.5801 C.3     1  UNL1        0.1164
      2 N           8.8423   -6.1649   29.8203 N.am    1  UNL1       -0.2625
      3 C           8.4313   -6.3660   28.3918 C.2     1  UNL1        0.3073
      4 O           8.6651   -7.6881   27.7231 O.2     1  UNL1       -0.2523
      5 N           7.7865   -5.2449   27.6320 N.am    1  UNL1       -0.2621
      6 C           7.4902   -3.8745   28.1649 C.3     1  UNL1        0.0970
      7 C           6.8453   -3.0800   27.0681 C.3     1  UNL1        0.0460
      8 C           6.7430   -3.9595   25.8573 C.3     1  UNL1        0.1114
      9 C           7.3247   -5.2975   26.2057 C.3     1  UNL1        0.1176
     10 N           6.1612   -3.5694   24.5309 N.ar    1  UNL1       -0.2779
     11 C           6.5363   -4.3308   23.2942 C.ar    1  UNL1        0.1808
     12 N           5.9545   -3.9407   21.9678 N.ar    1  UNL1       -0.2247
     13 C           4.9975   -2.7891   21.8781 C.ar    1  UNL1        0.0941
     14 C           4.2685   -2.1779   20.7184 C.ar    1  UNL1        0.0263
     15 C           3.4429   -1.0386   21.2384 C.ar    1  UNL1        0.0312
     16 S           3.6616   -0.9458   22.7195 S.2     1  UNL1       -0.0807
     17 C           4.6224   -2.0276   23.1149 C.ar    1  UNL1        0.1033
     18 C           5.2043   -2.4178   24.4412 C.ar    1  UNL1        0.2694
     19 O           4.8292   -1.6563   25.6779 O.2     1  UNL1       -0.2663
     20 C           2.5545   -0.1485   20.4209 C.ar    1  UNL1        0.0061
     21 C           1.1504    0.1273   20.8708 C.ar    1  UNL1        0.0014
     22 C           0.2620    1.0174   20.0532 C.ar    1  UNL1        0.0114
     23 C           0.7777    1.6318   18.7857 C.ar    1  UNL1        0.0577
     24 CL         -0.1108    2.5220   17.9682 Cl      1  UNL1       -0.0822
     25 C           2.1818    1.3561   18.3358 C.ar    1  UNL1        0.0114
     26 C           3.0701    0.4659   19.1534 C.ar    1  UNL1        0.0014
     27 C           8.6084   -4.8427   30.4890 C.3     1  UNL1        0.0942
     28 C           9.5288   -3.6590   30.4480 C.3     1  UNL1        0.0386
     29 C           8.9024   -2.5568   31.2497 C.3     1  UNL1        0.0738
     30 N           7.5949   -3.0593   31.7862 N.3     1  UNL1       -0.2724
     31 C           7.4132   -4.4721   31.3160 C.3     1  UNL1        0.0922
     32 C           6.6371   -2.2851   32.6425 C.3     1  UNL1        0.0626
     33 C           5.2465   -2.8006   32.8671 C.3     1  UNL1        0.0481
     34 C           4.2888   -2.0262   33.7234 C.3     1  UNL1        0.1435
     35 O           4.7217   -0.7364   34.3551 O.3     1  UNL1       -0.3537
     36 C           6.1123   -0.2209   34.1305 C.3     1  UNL1        0.1435
     37 C           7.0700   -0.9952   33.2742 C.3     1  UNL1        0.0481
@<TRIPOS>BOND
     1     1     2    1
     2     2     3   am
     3     3     4    2
     4     3     5   am
     5     5     6    1
     6     6     7    1
     7     7     8    1
     8     8    10    1
     9    10    11   ar
    10    11    12   ar
    11    12    13   ar
    12    13    14   ar
    13    14    15   ar
    14    15    20    1
    15    20    21   ar
    16    21    22   ar
    17    22    23   ar
    18    23    24    1
    19    23    25   ar
    20    25    26   ar
    21    15    16   ar
    22    16    17   ar
    23    17    18   ar
    24    18    19    2
    25     8     9    1
    26    27     2    1
    27    27    28    1
    28    28    29    1
    29    29    30    1
    30    30    32    1
    31    32    33    1
    32    33    34    1
    33    34    35    1
    34    35    36    1
    35    36    37    1
    36    30    31    1
    37     9     5    1
    38    31    27    1
    39    18    10   ar
    40    37    32    1
    41    17    13   ar
    42    26    20   ar
@<TRIPOS>MOLECULE
*****
 37 42 0 0 0
SMALL
GASTEIGER

@<TRIPOS>ATOM
      1 C           6.8716    2.8296   18.1541 C.3     1  UNL1        0.1164
      2 N           5.4374    2.4019   18.2539 N.am    1  UNL1       -0.2625
      3 C           4.3595    3.4289   18.4365 C.2     1  UNL1        0.3073
      4 O           4.7158    4.8836   18.5194 O.2     1  UNL1       -0.2523
      5 N           2.9252    3.0012   18.5362 N.am    1  UNL1       -0.2621
      6 C           2.4192    1.5907   18.4708 C.3     1  UNL1        0.0970
      7 C           0.9264    1.6267   18.6130 C.3     1  UNL1        0.0460
      8 C           0.5098    3.0595   18.7663 C.3     1  UNL1        0.1114
      9 C           1.7451    3.9091   18.7188 C.3     1  UNL1        0.1176
     10 N          -0.8955    3.5557   18.9371 N.ar    1  UNL1       -0.2779
     11 C          -1.7075    3.9372   17.7350 C.ar    1  UNL1        0.1808
     12 N          -3.1128    4.4333   17.9058 N.ar    1  UNL1       -0.2247
     13 C          -3.7060    4.5479   19.2788 C.ar    1  UNL1        0.0941
     14 C          -5.0542    5.0011   19.7549 C.ar    1  UNL1        0.0263
     15 C          -5.0755    4.8997   21.2513 C.ar    1  UNL1        0.0312
     16 S          -3.7403    4.3838   21.7000 S.2     1  UNL1       -0.0807
     17 C          -2.8939    4.1663   20.4809 C.ar    1  UNL1        0.1033
     18 C          -1.4887    3.6702   20.3100 C.ar    1  UNL1        0.2694
     19 O          -0.6767    3.2887   21.5121 O.2     1  UNL1       -0.2663
     20 C          -6.2293    5.2523   22.1427 C.ar    1  UNL1        0.0061
     21 C          -6.9259    4.1802   22.9271 C.ar    1  UNL1        0.0014
     22 C          -8.0797    4.5329   23.8184 C.ar    1  UNL1        0.0114
     23 C          -8.5369    5.9575   23.9253 C.ar    1  UNL1        0.0577
     24 CL         -9.6907    6.3101   24.8166 Cl      1  UNL1       -0.0822
     25 C          -7.8402    7.0296   23.1408 C.ar    1  UNL1        0.0114
     26 C          -6.6864    6.6769   22.2495 C.ar    1  UNL1        0.0014
     27 C           5.0810    0.9473   18.1710 C.3     1  UNL1        0.0942
     28 C           4.7699    0.1858   16.9166 C.3     1  UNL1        0.0386
     29 C           4.4698   -1.2334   17.2983 C.3     1  UNL1        0.0738
     30 N           4.5955   -1.3491   18.7885 N.3     1  UNL1       -0.2724
     31 C           4.9733   -0.0014   19.3279 C.3     1  UNL1        0.0922
     32 C           4.3810   -2.5940   19.5974 C.3     1  UNL1        0.0626
     33 C           3.7890   -3.8133   18.9548 C.3     1  UNL1        0.0481
     34 C           3.5746   -5.0581   19.7638 C.3     1  UNL1        0.1435
     35 O           3.9522   -5.0838   21.2153 O.3     1  UNL1       -0.3537
     36 C           4.5443   -3.8645   21.8578 C.3     1  UNL1        0.1435
     37 C           4.7587   -2.6196   21.0489 C.3     1  UNL1        0.0481
@<TRIPOS>BOND
     1     1     2    1
     2     2     3   am
     3     3     4    2
     4     3     5   am
     5     5     6    1
     6     6     7    1
     7     7     8    1
     8     8    10    1
     9    10    11   ar
    10    11    12   ar
    11    12    13   ar
    12    13    14   ar
    13    14    15   ar
    14    15    20    1
    15    20    21   ar
    16    21    22   ar
    17    22    23   ar
    18    23    24    1
    19    23    25   ar
    20    25    26   ar
    21    15    16   ar
    22    16    17   ar
    23    17    18   ar
    24    18    19    2
    25     8     9    1
    26    27     2    1
    27    27    28    1
    28    28    29    1
    29    29    30    1
    30    30    32    1
    31    32    33    1
    32    33    34    1
    33    34    35    1
    34    35    36    1
    35    36    37    1
    36    30    31    1
    37     9     5    1
    38    31    27    1
    39    18    10   ar
    40    37    32    1
    41    17    13   ar
    42    26    20   ar
@<TRIPOS>MOLECULE
*****
 37 42 0 0 0
SMALL
GASTEIGER

@<TRIPOS>ATOM
      1 C          -0.9577    6.0046   18.3694 C.3     1  UNL1        0.1164
      2 N          -0.7806    4.7255   19.1326 N.am    1  UNL1       -0.2625
      3 C           0.4715    3.9174   18.9617 C.2     1  UNL1        0.3073
      4 O           1.5465    4.3884   18.0277 O.2     1  UNL1       -0.2523
      5 N           0.6486    2.6383   19.7250 N.am    1  UNL1       -0.2621
      6 C          -0.3342    2.0439   20.6897 C.3     1  UNL1        0.0970
      7 C           0.2494    0.7673   21.2184 C.3     1  UNL1        0.0460
      8 C           1.5930    0.5727   20.5805 C.3     1  UNL1        0.1114
      9 C           1.8398    1.7290   19.6575 C.3     1  UNL1        0.1176
     10 N           2.5260   -0.5766   20.8230 N.ar    1  UNL1       -0.2779
     11 C           2.7903   -1.5713   19.7319 C.ar    1  UNL1        0.1808
     12 N           3.7233   -2.7205   19.9744 N.ar    1  UNL1       -0.2247
     13 C           4.3920   -2.8750   21.3082 C.ar    1  UNL1        0.0941
     14 C           5.3531   -3.8983   21.8365 C.ar    1  UNL1        0.0263
     15 C           5.6828   -3.5359   23.2543 C.ar    1  UNL1        0.0312
     16 S           4.9254   -2.2888   23.6022 S.2     1  UNL1       -0.0807
     17 C           4.1276   -1.8803   22.3994 C.ar    1  UNL1        0.1033
     18 C           3.1947   -0.7311   22.1568 C.ar    1  UNL1        0.2694
     19 O           2.9303    0.2636   23.2480 O.2     1  UNL1       -0.2663
     20 C           6.6075   -4.2886   24.1644 C.ar    1  UNL1        0.0061
     21 C           6.5384   -4.0749   25.6475 C.ar    1  UNL1        0.0014
     22 C           7.4631   -4.8277   26.5576 C.ar    1  UNL1        0.0114
     23 C           8.4570   -5.7941   25.9847 C.ar    1  UNL1        0.0577
     24 CL          9.3818   -6.5468   26.8948 Cl      1  UNL1       -0.0822
     25 C           8.5262   -6.0077   24.5016 C.ar    1  UNL1        0.0114
     26 C           7.6014   -5.2550   23.5915 C.ar    1  UNL1        0.0014
     27 C          -1.8556    4.2545   20.0666 C.3     1  UNL1        0.0942
     28 C          -3.0836    3.4843   19.6808 C.3     1  UNL1        0.0386
     29 C          -3.8783    3.2247   20.9262 C.3     1  UNL1        0.0738
     30 N          -3.1415    3.8344   22.0817 N.3     1  UNL1       -0.2724
     31 C          -1.8913    4.4708   21.5505 C.3     1  UNL1        0.0922
     32 C          -3.5780    3.8116   23.5166 C.3     1  UNL1        0.0626
     33 C          -5.0263    3.9921   23.8629 C.3     1  UNL1        0.0481
     34 C          -5.4628    3.9694   25.2978 C.3     1  UNL1        0.1435
     35 O          -4.4511    3.7661   26.3865 O.3     1  UNL1       -0.3537
     36 C          -3.0028    3.5856   26.0402 C.3     1  UNL1        0.1435
     37 C          -2.5662    3.6084   24.6053 C.3     1  UNL1        0.0481
@<TRIPOS>BOND
     1     1     2    1
     2     2     3   am
     3     3     4    2
     4     3     5   am
     5     5     6    1
     6     6     7    1
     7     7     8    1
     8     8    10    1
     9    10    11   ar
    10    11    12   ar
    11    12    13   ar
    12    13    14   ar
    13    14    15   ar
    14    15    20    1
    15    20    21   ar
    16    21    22   ar
    17    22    23   ar
    18    23    24    1
    19    23    25   ar
    20    25    26   ar
    21    15    16   ar
    22    16    17   ar
    23    17    18   ar
    24    18    19    2
    25     8     9    1
    26    27     2    1
    27    27    28    1
    28    28    29    1
    29    29    30    1
    30    30    32    1
    31    32    33    1
    32    33    34    1
    33    34    35    1
    34    35    36    1
    35    36    37    1
    36    30    31    1
    37     9     5    1
    38    31    27    1
    39    18    10   ar
    40    37    32    1
    41    17    13   ar
    42    26    20   ar
@<TRIPOS>MOLECULE
*****
 37 42 0 0 0
SMALL
GASTEIGER

@<TRIPOS>ATOM
      1 C           5.0645   -0.1380   36.2924 C.3     1  UNL1        0.1164
      2 N           4.8453    0.1187   34.8310 N.am    1  UNL1       -0.2625
      3 C           3.7545    1.0483   34.3881 C.2     1  UNL1        0.3073
      4 O           2.8830    1.7211   35.4067 O.2     1  UNL1       -0.2523
      5 N           3.5353    1.3050   32.9266 N.am    1  UNL1       -0.2621
      6 C           4.3230    0.7073   31.7986 C.3     1  UNL1        0.0970
      7 C           3.7644    1.2374   30.5113 C.3     1  UNL1        0.0460
      8 C           2.6314    2.1626   30.8438 C.3     1  UNL1        0.1114
      9 C           2.4898    2.2044   32.3365 C.3     1  UNL1        0.1176
     10 N           1.7882    2.9140   29.8567 N.ar    1  UNL1       -0.2779
     11 C           2.0100    4.3823   29.6452 C.ar    1  UNL1        0.1808
     12 N           1.1667    5.1338   28.6581 N.ar    1  UNL1       -0.2247
     13 C           0.1016    4.4168   27.8826 C.ar    1  UNL1        0.0941
     14 C          -0.8777    4.8895   26.8494 C.ar    1  UNL1        0.0263
     15 C          -1.7049    3.7133   26.4224 C.ar    1  UNL1        0.0312
     16 S          -1.2367    2.5137   27.1917 S.2     1  UNL1       -0.0807
     17 C          -0.1203    2.9485   28.0941 C.ar    1  UNL1        0.1033
     18 C           0.7230    2.1971   29.0812 C.ar    1  UNL1        0.2694
     19 O           0.5011    0.7287   29.2927 O.2     1  UNL1       -0.2663
     20 C          -2.8067    3.7332   25.4048 C.ar    1  UNL1        0.0061
     21 C          -4.2326    3.8812   25.8461 C.ar    1  UNL1        0.0014
     22 C          -5.3344    3.9011   24.8284 C.ar    1  UNL1        0.0114
     23 C          -5.0104    3.7729   23.3694 C.ar    1  UNL1        0.0577
     24 CL         -6.1122    3.7928   22.3518 Cl      1  UNL1       -0.0822
     25 C          -3.5844    3.6249   22.9281 C.ar    1  UNL1        0.0114
     26 C          -2.4826    3.6050   23.9458 C.ar    1  UNL1        0.0014
     27 C           5.7168   -0.5542   33.8123 C.3     1  UNL1        0.0942
     28 C           7.0542   -0.0686   33.3375 C.3     1  UNL1        0.0386
     29 C           7.5679   -1.0450   32.3213 C.3     1  UNL1        0.0738
     30 N           6.5479   -2.1341   32.1681 N.3     1  UNL1       -0.2724
     31 C           5.4039   -1.8308   33.0896 C.3     1  UNL1        0.0922
     32 C           6.6535   -3.3187   31.2539 C.3     1  UNL1        0.0626
     33 C           6.4783   -3.1424   29.7746 C.3     1  UNL1        0.0481
     34 C           6.5839   -4.3270   28.8605 C.3     1  UNL1        0.1435
     35 O           6.8646   -5.6878   29.4256 O.3     1  UNL1       -0.3537
     36 C           7.0397   -5.8641   30.9048 C.3     1  UNL1        0.1435
     37 C           6.9342   -4.6796   31.8190 C.3     1  UNL1        0.0481
@<TRIPOS>BOND
     1     1     2    1
     2     2     3   am
     3     3     4    2
     4     3     5   am
     5     5     6    1
     6     6     7    1
     7     7     8    1
     8     8    10    1
     9    10    11   ar
    10    11    12   ar
    11    12    13   ar
    12    13    14   ar
    13    14    15   ar
    14    15    20    1
    15    20    21   ar
    16    21    22   ar
    17    22    23   ar
    18    23    24    1
    19    23    25   ar
    20    25    26   ar
    21    15    16   ar
    22    16    17   ar
    23    17    18   ar
    24    18    19    2
    25     8     9    1
    26    27     2    1
    27    27    28    1
    28    28    29    1
    29    29    30    1
    30    30    32    1
    31    32    33    1
    32    33    34    1
    33    34    35    1
    34    35    36    1
    35    36    37    1
    36    30    31    1
    37     9     5    1
    38    31    27    1
    39    18    10   ar
    40    37    32    1
    41    17    13   ar
    42    26    20   ar
@<TRIPOS>MOLECULE
*****
 37 42 0 0 0
SMALL
GASTEIGER

@<TRIPOS>ATOM
      1 C           0.3778    2.4349   18.2318 C.3     1  UNL1        0.1164
      2 N           0.9160    1.9414   19.5420 N.am    1  UNL1       -0.2625
      3 C           0.2114    2.2872   20.8202 C.2     1  UNL1        0.3073
      4 O          -1.0313    3.1264   20.7883 O.2     1  UNL1       -0.2523
      5 N           0.7496    1.7936   22.1305 N.am    1  UNL1       -0.2621
      6 C           1.9756    0.9500   22.3185 C.3     1  UNL1        0.0970
      7 C           2.1400    0.6920   23.7870 C.3     1  UNL1        0.0460
      8 C           1.0157    1.3762   24.5065 C.3     1  UNL1        0.1114
      9 C           0.1563    2.0570   23.4828 C.3     1  UNL1        0.1176
     10 N           0.7902    1.3790   25.9896 N.ar    1  UNL1       -0.2779
     11 C          -0.6059    1.3359   26.5361 C.ar    1  UNL1        0.1808
     12 N          -0.8313    1.3387   28.0191 N.ar    1  UNL1       -0.2247
     13 C           0.3396    1.3847   28.9555 C.ar    1  UNL1        0.0941
     14 C           0.4273    1.3982   30.4529 C.ar    1  UNL1        0.0263
     15 C           1.8777    1.4497   30.8317 C.ar    1  UNL1        0.0312
     16 S           2.6864    1.4681   29.5685 S.2     1  UNL1       -0.0807
     17 C           1.7358    1.4279   28.4089 C.ar    1  UNL1        0.1033
     18 C           1.9611    1.4251   26.9260 C.ar    1  UNL1        0.2694
     19 O           3.3573    1.4682   26.3794 O.2     1  UNL1       -0.2663
     20 C           2.4236    1.4779   32.2286 C.ar    1  UNL1        0.0061
     21 C           1.8651    2.4420   33.2328 C.ar    1  UNL1        0.0014
     22 C           2.4111    2.4701   34.6297 C.ar    1  UNL1        0.0114
     23 C           3.5156    1.5342   35.0223 C.ar    1  UNL1        0.0577
     24 CL          4.0615    1.5624   36.4191 Cl      1  UNL1       -0.0822
     25 C           4.0741    0.5701   34.0180 C.ar    1  UNL1        0.0114
     26 C           3.5281    0.5420   32.6212 C.ar    1  UNL1        0.0014
     27 C           2.1588    1.1021   19.5740 C.3     1  UNL1        0.0942
     28 C           3.5686    1.6143   19.5800 C.3     1  UNL1        0.0386
     29 C           4.4912    0.4320   19.6153 C.3     1  UNL1        0.0738
     30 N           3.6515   -0.8108   19.6311 N.3     1  UNL1       -0.2724
     31 C           2.2100   -0.3967   19.6055 C.3     1  UNL1        0.0922
     32 C           4.1633   -2.2203   19.6662 C.3     1  UNL1        0.0626
     33 C           5.5866   -2.4919   20.0541 C.3     1  UNL1        0.0481
     34 C           6.0984   -3.9015   20.0892 C.3     1  UNL1        0.1435
     35 O           5.1870   -5.0394   19.7364 O.3     1  UNL1       -0.3537
     36 C           3.7637   -4.7678   19.3485 C.3     1  UNL1        0.1435
     37 C           3.2518   -3.3583   19.3134 C.3     1  UNL1        0.0481
@<TRIPOS>BOND
     1     1     2    1
     2     2     3   am
     3     3     4    2
     4     3     5   am
     5     5     6    1
     6     6     7    1
     7     7     8    1
     8     8    10    1
     9    10    11   ar
    10    11    12   ar
    11    12    13   ar
    12    13    14   ar
    13    14    15   ar
    14    15    20    1
    15    20    21   ar
    16    21    22   ar
    17    22    23   ar
    18    23    24    1
    19    23    25   ar
    20    25    26   ar
    21    15    16   ar
    22    16    17   ar
    23    17    18   ar
    24    18    19    2
    25     8     9    1
    26    27     2    1
    27    27    28    1
    28    28    29    1
    29    29    30    1
    30    30    32    1
    31    32    33    1
    32    33    34    1
    33    34    35    1
    34    35    36    1
    35    36    37    1
    36    30    31    1
    37     9     5    1
    38    31    27    1
    39    18    10   ar
    40    37    32    1
    41    17    13   ar
    42    26    20   ar
@<TRIPOS>MOLECULE
*****
 37 42 0 0 0
SMALL
GASTEIGER

@<TRIPOS>ATOM
      1 C           2.2412    3.6783   19.2154 C.3     1  UNL1        0.1164
      2 N           2.1264    2.7964   20.4231 N.am    1  UNL1       -0.2625
      3 C           2.0185    3.4059   21.7894 C.2     1  UNL1        0.3073
      4 O           2.0255    4.8974   21.9480 O.2     1  UNL1       -0.2523
      5 N           1.9037    2.5238   22.9973 N.am    1  UNL1       -0.2621
      6 C           1.8833    1.0240   22.9950 C.3     1  UNL1        0.0970
      7 C           1.7562    0.5600   24.4157 C.3     1  UNL1        0.0460
      8 C           1.6979    1.7731   25.2961 C.3     1  UNL1        0.1114
      9 C           1.7891    2.9869   24.4195 C.3     1  UNL1        0.1176
     10 N           1.5708    1.7725   26.7907 N.ar    1  UNL1       -0.2779
     11 C           0.3131    2.2732   27.4367 C.ar    1  UNL1        0.1808
     12 N           0.1860    2.2726   28.9314 N.ar    1  UNL1       -0.2247
     13 C           1.3167    1.7713   29.7799 C.ar    1  UNL1        0.0941
     14 C           1.4791    1.6504   31.2662 C.ar    1  UNL1        0.0263
     15 C           2.8372    1.0749   31.5388 C.ar    1  UNL1        0.0312
     16 S           3.5142    0.8402   30.2210 S.2     1  UNL1       -0.0807
     17 C           2.5745    1.2705   29.1339 C.ar    1  UNL1        0.1033
     18 C           2.7015    1.2712   27.6393 C.ar    1  UNL1        0.2694
     19 O           3.9593    0.7704   26.9933 O.2     1  UNL1       -0.2663
     20 C           3.4167    0.7851   32.8916 C.ar    1  UNL1        0.0061
     21 C           4.0492   -0.5468   33.1669 C.ar    1  UNL1        0.0014
     22 C           4.6287   -0.8366   34.5199 C.ar    1  UNL1        0.0114
     23 C           4.5757    0.2056   35.5974 C.ar    1  UNL1        0.0577
     24 CL          5.1551   -0.0843   36.9503 Cl      1  UNL1       -0.0822
     25 C           3.9432    1.5375   35.3221 C.ar    1  UNL1        0.0114
     26 C           3.3637    1.8273   33.9692 C.ar    1  UNL1        0.0014
     27 C           2.1194    1.3048   20.2647 C.3     1  UNL1        0.0942
     28 C           0.9137    0.4515   20.0035 C.3     1  UNL1        0.0386
     29 C           1.3659   -0.9760   19.9169 C.3     1  UNL1        0.0738
     30 N           2.8512   -1.0051   20.1246 N.3     1  UNL1       -0.2724
     31 C           3.3169    0.4045   20.3395 C.3     1  UNL1        0.0922
     32 C           3.7186   -2.2289   20.1185 C.3     1  UNL1        0.0626
     33 C           4.7875   -2.3957   21.1575 C.3     1  UNL1        0.0481
     34 C           5.6548   -3.6196   21.1513 C.3     1  UNL1        0.1435
     35 O           5.4533   -4.6765   20.1062 O.3     1  UNL1       -0.3537
     36 C           4.3843   -4.5096   19.0672 C.3     1  UNL1        0.1435
     37 C           3.5170   -3.2858   19.0733 C.3     1  UNL1        0.0481
@<TRIPOS>BOND
     1     1     2    1
     2     2     3   am
     3     3     4    2
     4     3     5   am
     5     5     6    1
     6     6     7    1
     7     7     8    1
     8     8    10    1
     9    10    11   ar
    10    11    12   ar
    11    12    13   ar
    12    13    14   ar
    13    14    15   ar
    14    15    20    1
    15    20    21   ar
    16    21    22   ar
    17    22    23   ar
    18    23    24    1
    19    23    25   ar
    20    25    26   ar
    21    15    16   ar
    22    16    17   ar
    23    17    18   ar
    24    18    19    2
    25     8     9    1
    26    27     2    1
    27    27    28    1
    28    28    29    1
    29    29    30    1
    30    30    32    1
    31    32    33    1
    32    33    34    1
    33    34    35    1
    34    35    36    1
    35    36    37    1
    36    30    31    1
    37     9     5    1
    38    31    27    1
    39    18    10   ar
    40    37    32    1
    41    17    13   ar
    42    26    20   ar
@<TRIPOS>MOLECULE
*****
 37 42 0 0 0
SMALL
GASTEIGER

@<TRIPOS>ATOM
      1 C           6.4864    2.6053   16.8438 C.3     1  UNL1        0.1164
      2 N           5.2364    2.1585   17.5423 N.am    1  UNL1       -0.2625
      3 C           4.1558    3.1510   17.8539 C.2     1  UNL1        0.3073
      4 O           4.3250    4.5902   17.4670 O.2     1  UNL1       -0.2523
      5 N           2.9058    2.7041   18.5523 N.am    1  UNL1       -0.2621
      6 C           2.5967    1.3056   18.9980 C.3     1  UNL1        0.0970
      7 C           1.2453    1.3145   19.6488 C.3     1  UNL1        0.0460
      8 C           0.7191    2.7185   19.6054 C.3     1  UNL1        0.1114
      9 C           1.7453    3.5774   18.9277 C.3     1  UNL1        0.1176
     10 N          -0.6015    3.1822   20.1449 N.ar    1  UNL1       -0.2779
     11 C          -1.7591    3.3939   19.2149 C.ar    1  UNL1        0.1808
     12 N          -3.0797    3.8576   19.7545 N.ar    1  UNL1       -0.2247
     13 C          -3.2425    4.1096   21.2241 C.ar    1  UNL1        0.0941
     14 C          -4.4148    4.5681   22.0400 C.ar    1  UNL1        0.0263
     15 C          -3.9817    4.6397   23.4743 C.ar    1  UNL1        0.0312
     16 S          -2.5417    4.2256   23.5449 S.2     1  UNL1       -0.0807
     17 C          -2.0849    3.8980   22.1542 C.ar    1  UNL1        0.1033
     18 C          -0.7643    3.4343   21.6146 C.ar    1  UNL1        0.2694
     19 O           0.3933    3.2227   22.5447 O.2     1  UNL1       -0.2663
     20 C          -4.8381    5.0530   24.6343 C.ar    1  UNL1        0.0061
     21 C          -6.1896    5.6566   24.3913 C.ar    1  UNL1        0.0014
     22 C          -7.0460    6.0699   25.5515 C.ar    1  UNL1        0.0114
     23 C          -6.5509    5.8795   26.9545 C.ar    1  UNL1        0.0577
     24 CL         -7.4074    6.2927   28.1146 Cl      1  UNL1       -0.0822
     25 C          -5.1994    5.2758   27.1976 C.ar    1  UNL1        0.0114
     26 C          -4.3430    4.8626   26.0374 C.ar    1  UNL1        0.0014
     27 C           5.0671    0.7192   17.9291 C.3     1  UNL1        0.0942
     28 C           4.3959   -0.3415   17.1078 C.3     1  UNL1        0.0386
     29 C           4.4531   -1.6284   17.8762 C.3     1  UNL1        0.0738
     30 N           5.1598   -1.3631   19.1725 N.3     1  UNL1       -0.2724
     31 C           5.5392    0.0877   19.2052 C.3     1  UNL1        0.0922
     32 C           5.4381   -2.3717   20.2474 C.3     1  UNL1        0.0626
     33 C           6.8259   -2.9114   20.4282 C.3     1  UNL1        0.0481
     34 C           7.1042   -3.9199   21.5032 C.3     1  UNL1        0.1435
     35 O           5.9948   -4.3887   22.3972 O.3     1  UNL1       -0.3537
     36 C           4.6070   -3.8490   22.2164 C.3     1  UNL1        0.1435
     37 C           4.3286   -2.8405   21.1415 C.3     1  UNL1        0.0481
@<TRIPOS>BOND
     1     1     2    1
     2     2     3   am
     3     3     4    2
     4     3     5   am
     5     5     6    1
     6     6     7    1
     7     7     8    1
     8     8    10    1
     9    10    11   ar
    10    11    12   ar
    11    12    13   ar
    12    13    14   ar
    13    14    15   ar
    14    15    20    1
    15    20    21   ar
    16    21    22   ar
    17    22    23   ar
    18    23    24    1
    19    23    25   ar
    20    25    26   ar
    21    15    16   ar
    22    16    17   ar
    23    17    18   ar
    24    18    19    2
    25     8     9    1
    26    27     2    1
    27    27    28    1
    28    28    29    1
    29    29    30    1
    30    30    32    1
    31    32    33    1
    32    33    34    1
    33    34    35    1
    34    35    36    1
    35    36    37    1
    36    30    31    1
    37     9     5    1
    38    31    27    1
    39    18    10   ar
    40    37    32    1
    41    17    13   ar
    42    26    20   ar
