@<TRIPOS>MOLECULE
*****
 22 25 0 0 0
SMALL
GASTEIGER

@<TRIPOS>ATOM
      1 C          -2.5077  -18.8594   20.3411 C.ar    1  UNL1        0.1387
      2 C          -2.4989  -18.5507   21.8089 C.ar    1  UNL1        0.0369
      3 C          -3.7823  -18.5616   22.5853 C.ar    1  UNL1        0.0031
      4 C          -5.0745  -18.8811   21.8939 C.ar    1  UNL1        0.0002
      5 C          -6.3579  -18.8919   22.6703 C.ar    1  UNL1        0.0001
      6 C          -7.6501  -19.2114   21.9788 C.ar    1  UNL1        0.0015
      7 C          -7.6589  -19.5200   20.5109 C.ar    1  UNL1        0.0000
      8 C          -6.3755  -19.5092   19.7345 C.ar    1  UNL1        0.0001
      9 C          -5.0833  -19.1897   20.4260 C.ar    1  UNL1        0.0030
     10 C          -3.7999  -19.1789   19.6496 C.ar    1  UNL1        0.0369
     11 C          -8.9334  -19.2222   22.7553 C.ar    1  UNL1        0.0192
     12 C          -9.1925  -20.3045   23.7609 C.ar    1  UNL1        0.0988
     13 N         -10.4759  -20.3153   24.5373 N.ar    1  UNL1       -0.2423
     14 C         -11.5002  -19.2439   24.3081 C.ar    1  UNL1        0.0988
     15 C         -11.2412  -18.1615   23.3023 C.ar    1  UNL1        0.0192
     16 C         -12.2655  -17.0900   23.0731 C.ar    1  UNL1        0.0015
     17 C         -12.0065  -16.0076   22.0673 C.ar    1  UNL1        0.0000
     18 C         -10.7231  -15.9967   21.2909 C.ar    1  UNL1        0.0000
     19 C          -9.6987  -17.0683   21.5203 C.ar    1  UNL1        0.0001
     20 C          -9.9578  -18.1506   22.5259 C.ar    1  UNL1        0.0030
     21 C          -0.1947  -17.7912   19.8325 C.3     1  UNL1        0.2525
     22 O          -1.2243  -18.8486   19.5647 O.3     1  UNL1       -0.4714
@<TRIPOS>BOND
     1    21    22    1
     2    22     1    1
     3     1     2   ar
     4     2     3   ar
     5     3     4   ar
     6     4     5   ar
     7     5     6   ar
     8     6    11    1
     9    11    12   ar
    10    12    13   ar
    11    13    14   ar
    12    14    15   ar
    13    15    16   ar
    14    16    17   ar
    15    17    18   ar
    16    18    19   ar
    17    19    20   ar
    18     6     7   ar
    19     7     8   ar
    20     8     9   ar
    21     9    10   ar
    22    10     1   ar
    23     9     4   ar
    24    20    11   ar
    25    20    15   ar
@<TRIPOS>MOLECULE
*****
 22 25 0 0 0
SMALL
GASTEIGER

@<TRIPOS>ATOM
      1 C         -12.4792  -17.9052   23.2587 C.ar    1  UNL1        0.1387
      2 C         -12.0040  -17.0257   22.1404 C.ar    1  UNL1        0.0369
      3 C         -10.6391  -17.2308   21.5531 C.ar    1  UNL1        0.0031
      4 C          -9.7494  -18.3155   22.0841 C.ar    1  UNL1        0.0002
      5 C          -8.3845  -18.5206   21.4968 C.ar    1  UNL1        0.0001
      6 C          -7.4948  -19.6052   22.0278 C.ar    1  UNL1        0.0015
      7 C          -7.9700  -20.4848   23.1462 C.ar    1  UNL1        0.0000
      8 C          -9.3349  -20.2796   23.7335 C.ar    1  UNL1        0.0001
      9 C         -10.2246  -19.1949   23.2024 C.ar    1  UNL1        0.0030
     10 C         -11.5895  -18.9898   23.7897 C.ar    1  UNL1        0.0369
     11 C          -6.1298  -19.8104   21.4405 C.ar    1  UNL1        0.0192
     12 C          -5.9187  -20.8480   20.3782 C.ar    1  UNL1        0.0988
     13 N          -4.5538  -21.0531   19.7909 N.ar    1  UNL1       -0.2423
     14 C          -3.4000  -20.2206   20.2659 C.ar    1  UNL1        0.0988
     15 C          -3.6111  -19.1829   21.3284 C.ar    1  UNL1        0.0192
     16 C          -2.4574  -18.3504   21.8034 C.ar    1  UNL1        0.0015
     17 C          -2.6685  -17.3127   22.8659 C.ar    1  UNL1        0.0000
     18 C          -4.0334  -17.1076   23.4532 C.ar    1  UNL1        0.0000
     19 C          -5.1872  -17.9401   22.9780 C.ar    1  UNL1        0.0001
     20 C          -4.9761  -18.9778   21.9157 C.ar    1  UNL1        0.0030
     21 C         -14.2217  -18.3880   25.1243 C.3     1  UNL1        0.2525
     22 O         -13.8441  -17.7000   23.8460 O.3     1  UNL1       -0.4714
@<TRIPOS>BOND
     1    21    22    1
     2    22     1    1
     3     1     2   ar
     4     2     3   ar
     5     3     4   ar
     6     4     5   ar
     7     5     6   ar
     8     6    11    1
     9    11    12   ar
    10    12    13   ar
    11    13    14   ar
    12    14    15   ar
    13    15    16   ar
    14    16    17   ar
    15    17    18   ar
    16    18    19   ar
    17    19    20   ar
    18     6     7   ar
    19     7     8   ar
    20     8     9   ar
    21     9    10   ar
    22    10     1   ar
    23     9     4   ar
    24    20    11   ar
    25    20    15   ar
@<TRIPOS>MOLECULE
*****
 22 25 0 0 0
SMALL
GASTEIGER

@<TRIPOS>ATOM
      1 C          -3.4598  -19.5684   21.4981 C.ar    1  UNL1        0.1387
      2 C          -3.8344  -18.6281   22.6050 C.ar    1  UNL1        0.0369
      3 C          -5.2516  -18.1555   22.7403 C.ar    1  UNL1        0.0031
      4 C          -6.2941  -18.6232   21.7686 C.ar    1  UNL1        0.0002
      5 C          -7.7113  -18.1507   21.9039 C.ar    1  UNL1        0.0001
      6 C          -8.7538  -18.6184   20.9322 C.ar    1  UNL1        0.0015
      7 C          -8.3792  -19.5588   19.8251 C.ar    1  UNL1        0.0000
      8 C          -6.9621  -20.0313   19.6899 C.ar    1  UNL1        0.0001
      9 C          -5.9195  -19.5635   20.6616 C.ar    1  UNL1        0.0030
     10 C          -4.5023  -20.0361   20.5264 C.ar    1  UNL1        0.0369
     11 C         -10.1710  -18.1458   21.0674 C.ar    1  UNL1        0.0192
     12 C         -10.8385  -17.4398   19.9247 C.ar    1  UNL1        0.0988
     13 N         -12.2557  -16.9672   20.0600 N.ar    1  UNL1       -0.2423
     14 C         -13.0054  -17.2007   21.3380 C.ar    1  UNL1        0.0988
     15 C         -12.3379  -17.9068   22.4808 C.ar    1  UNL1        0.0192
     16 C         -13.0876  -18.1402   23.7589 C.ar    1  UNL1        0.0015
     17 C         -12.4201  -18.8463   24.9017 C.ar    1  UNL1        0.0000
     18 C         -11.0029  -19.3189   24.7664 C.ar    1  UNL1        0.0000
     19 C         -10.2532  -19.0854   23.4883 C.ar    1  UNL1        0.0001
     20 C         -10.9207  -18.3793   22.3456 C.ar    1  UNL1        0.0030
     21 C          -1.0459  -19.2155   20.6045 C.3     1  UNL1        0.2525
     22 O          -2.0426  -20.0410   21.3628 O.3     1  UNL1       -0.4714
@<TRIPOS>BOND
     1    21    22    1
     2    22     1    1
     3     1     2   ar
     4     2     3   ar
     5     3     4   ar
     6     4     5   ar
     7     5     6   ar
     8     6    11    1
     9    11    12   ar
    10    12    13   ar
    11    13    14   ar
    12    14    15   ar
    13    15    16   ar
    14    16    17   ar
    15    17    18   ar
    16    18    19   ar
    17    19    20   ar
    18     6     7   ar
    19     7     8   ar
    20     8     9   ar
    21     9    10   ar
    22    10     1   ar
    23     9     4   ar
    24    20    11   ar
    25    20    15   ar
@<TRIPOS>MOLECULE
*****
 22 25 0 0 0
SMALL
GASTEIGER

@<TRIPOS>ATOM
      1 C         -12.6944  -18.1340   23.7783 C.ar    1  UNL1        0.1387
      2 C         -12.0106  -19.2388   24.5278 C.ar    1  UNL1        0.0369
      3 C         -10.5192  -19.3827   24.4559 C.ar    1  UNL1        0.0031
      4 C          -9.7117  -18.4218   23.6346 C.ar    1  UNL1        0.0002
      5 C          -8.2204  -18.5657   23.5628 C.ar    1  UNL1        0.0001
      6 C          -7.4129  -17.6049   22.7415 C.ar    1  UNL1        0.0015
      7 C          -8.0967  -16.5000   21.9919 C.ar    1  UNL1        0.0000
      8 C          -9.5881  -16.3561   22.0637 C.ar    1  UNL1        0.0001
      9 C         -10.3956  -17.3171   22.8851 C.ar    1  UNL1        0.0030
     10 C         -11.8869  -17.1732   22.9569 C.ar    1  UNL1        0.0369
     11 C          -5.9215  -17.7488   22.6696 C.ar    1  UNL1        0.0192
     12 C          -5.0410  -16.8462   23.4819 C.ar    1  UNL1        0.0988
     13 N          -3.5496  -16.9901   23.4101 N.ar    1  UNL1       -0.2423
     14 C          -2.9388  -18.0366   22.5260 C.ar    1  UNL1        0.0988
     15 C          -3.8194  -18.9392   21.7136 C.ar    1  UNL1        0.0192
     16 C          -3.2086  -19.9857   20.8294 C.ar    1  UNL1        0.0015
     17 C          -4.0892  -20.8884   20.0171 C.ar    1  UNL1        0.0000
     18 C          -5.5805  -20.7445   20.0889 C.ar    1  UNL1        0.0000
     19 C          -6.1913  -19.6979   20.9731 C.ar    1  UNL1        0.0001
     20 C          -5.3107  -18.7953   21.7854 C.ar    1  UNL1        0.0030
     21 C         -14.9279  -18.4685   25.0627 C.3     1  UNL1        0.2525
     22 O         -14.1858  -17.9901   23.8501 O.3     1  UNL1       -0.4714
@<TRIPOS>BOND
     1    21    22    1
     2    22     1    1
     3     1     2   ar
     4     2     3   ar
     5     3     4   ar
     6     4     5   ar
     7     5     6   ar
     8     6    11    1
     9    11    12   ar
    10    12    13   ar
    11    13    14   ar
    12    14    15   ar
    13    15    16   ar
    14    16    17   ar
    15    17    18   ar
    16    18    19   ar
    17    19    20   ar
    18     6     7   ar
    19     7     8   ar
    20     8     9   ar
    21     9    10   ar
    22    10     1   ar
    23     9     4   ar
    24    20    11   ar
    25    20    15   ar
@<TRIPOS>MOLECULE
*****
 22 25 0 0 0
SMALL
GASTEIGER

@<TRIPOS>ATOM
      1 C         -18.7980   -9.4552   18.4217 C.ar    1  UNL1        0.1387
      2 C         -18.5759   -8.9651   19.8218 C.ar    1  UNL1        0.0369
      3 C         -17.5035   -7.9543   20.1014 C.ar    1  UNL1        0.0031
      4 C         -16.6533   -7.4334   18.9808 C.ar    1  UNL1        0.0002
      5 C         -15.5810   -6.4225   19.2603 C.ar    1  UNL1        0.0001
      6 C         -14.7308   -5.9016   18.1397 C.ar    1  UNL1        0.0015
      7 C         -14.9529   -6.3916   16.7395 C.ar    1  UNL1        0.0000
      8 C         -16.0253   -7.4025   16.4599 C.ar    1  UNL1        0.0001
      9 C         -16.8755   -7.9234   17.5806 C.ar    1  UNL1        0.0030
     10 C         -17.9478   -8.9343   17.3011 C.ar    1  UNL1        0.0369
     11 C         -13.6584   -4.8907   18.4193 C.ar    1  UNL1        0.0192
     12 C         -14.0030   -3.4327   18.4932 C.ar    1  UNL1        0.0988
     13 N         -12.9306   -2.4219   18.7727 N.ar    1  UNL1       -0.2423
     14 C         -11.5137   -2.8689   18.9784 C.ar    1  UNL1        0.0988
     15 C         -11.1690   -4.3270   18.9045 C.ar    1  UNL1        0.0192
     16 C          -9.7521   -4.7741   19.1101 C.ar    1  UNL1        0.0015
     17 C          -9.4075   -6.2321   19.0362 C.ar    1  UNL1        0.0000
     18 C         -10.4798   -7.2430   18.7566 C.ar    1  UNL1        0.0000
     19 C         -11.8968   -6.7959   18.5510 C.ar    1  UNL1        0.0001
     20 C         -12.2414   -5.3379   18.6249 C.ar    1  UNL1        0.0030
     21 C         -20.3049  -10.7277   16.7305 C.3     1  UNL1        0.2525
     22 O         -19.8704  -10.4660   18.1421 O.3     1  UNL1       -0.4714
@<TRIPOS>BOND
     1    21    22    1
     2    22     1    1
     3     1     2   ar
     4     2     3   ar
     5     3     4   ar
     6     4     5   ar
     7     5     6   ar
     8     6    11    1
     9    11    12   ar
    10    12    13   ar
    11    13    14   ar
    12    14    15   ar
    13    15    16   ar
    14    16    17   ar
    15    17    18   ar
    16    18    19   ar
    17    19    20   ar
    18     6     7   ar
    19     7     8   ar
    20     8     9   ar
    21     9    10   ar
    22    10     1   ar
    23     9     4   ar
    24    20    11   ar
    25    20    15   ar
@<TRIPOS>MOLECULE
*****
 22 25 0 0 0
SMALL
GASTEIGER

@<TRIPOS>ATOM
      1 C          -1.3741  -18.7454   20.4659 C.ar    1  UNL1        0.1387
      2 C          -1.4771  -18.4608   21.9350 C.ar    1  UNL1        0.0369
      3 C          -2.8222  -18.4132   22.5972 C.ar    1  UNL1        0.0031
      4 C          -4.0642  -18.6503   21.7904 C.ar    1  UNL1        0.0002
      5 C          -5.4093  -18.6028   22.4526 C.ar    1  UNL1        0.0001
      6 C          -6.6513  -18.8399   21.6458 C.ar    1  UNL1        0.0015
      7 C          -6.5484  -19.1245   20.1766 C.ar    1  UNL1        0.0000
      8 C          -5.2033  -19.1721   19.5143 C.ar    1  UNL1        0.0001
      9 C          -3.9612  -18.9349   20.3213 C.ar    1  UNL1        0.0030
     10 C          -2.6162  -18.9825   19.6590 C.ar    1  UNL1        0.0369
     11 C          -7.9964  -18.7923   22.3080 C.ar    1  UNL1        0.0192
     12 C          -8.9767  -19.9075   22.0957 C.ar    1  UNL1        0.0988
     13 N         -10.3218  -19.8600   22.7580 N.ar    1  UNL1       -0.2423
     14 C         -10.6865  -18.6972   23.6326 C.ar    1  UNL1        0.0988
     15 C          -9.7061  -17.5819   23.8449 C.ar    1  UNL1        0.0192
     16 C         -10.0707  -16.4192   24.7195 C.ar    1  UNL1        0.0015
     17 C          -9.0904  -15.3039   24.9319 C.ar    1  UNL1        0.0000
     18 C          -7.7453  -15.3514   24.2696 C.ar    1  UNL1        0.0000
     19 C          -7.3807  -16.5143   23.3950 C.ar    1  UNL1        0.0001
     20 C          -8.3610  -17.6295   23.1827 C.ar    1  UNL1        0.0030
     21 C           0.9171  -17.6374   19.9435 C.3     1  UNL1        0.2525
     22 O          -0.0291  -18.7929   19.8036 O.3     1  UNL1       -0.4714
@<TRIPOS>BOND
     1    21    22    1
     2    22     1    1
     3     1     2   ar
     4     2     3   ar
     5     3     4   ar
     6     4     5   ar
     7     5     6   ar
     8     6    11    1
     9    11    12   ar
    10    12    13   ar
    11    13    14   ar
    12    14    15   ar
    13    15    16   ar
    14    16    17   ar
    15    17    18   ar
    16    18    19   ar
    17    19    20   ar
    18     6     7   ar
    19     7     8   ar
    20     8     9   ar
    21     9    10   ar
    22    10     1   ar
    23     9     4   ar
    24    20    11   ar
    25    20    15   ar
@<TRIPOS>MOLECULE
*****
 22 25 0 0 0
SMALL
GASTEIGER

@<TRIPOS>ATOM
      1 C         -18.5245   -9.1183   18.1937 C.ar    1  UNL1        0.1387
      2 C         -18.1856   -8.7994   19.6196 C.ar    1  UNL1        0.0369
      3 C         -16.9081   -8.0836   19.9449 C.ar    1  UNL1        0.0031
      4 C         -15.9697   -7.6867   18.8441 C.ar    1  UNL1        0.0002
      5 C         -14.6922   -6.9709   19.1694 C.ar    1  UNL1        0.0001
      6 C         -13.7537   -6.5739   18.0686 C.ar    1  UNL1        0.0015
      7 C         -14.0927   -6.8928   16.6426 C.ar    1  UNL1        0.0000
      8 C         -15.3701   -7.6086   16.3174 C.ar    1  UNL1        0.0001
      9 C         -16.3086   -8.0055   17.4182 C.ar    1  UNL1        0.0030
     10 C         -17.5861   -8.7214   17.0930 C.ar    1  UNL1        0.0369
     11 C         -12.4763   -5.8581   18.3939 C.ar    1  UNL1        0.0192
     12 C         -11.2234   -6.6407   18.6544 C.ar    1  UNL1        0.0988
     13 N          -9.9460   -5.9249   18.9796 N.ar    1  UNL1       -0.2423
     14 C          -9.9214   -4.4265   19.0443 C.ar    1  UNL1        0.0988
     15 C         -11.1743   -3.6439   18.7838 C.ar    1  UNL1        0.0192
     16 C         -11.1497   -2.1455   18.8484 C.ar    1  UNL1        0.0015
     17 C         -12.4026   -1.3629   18.5879 C.ar    1  UNL1        0.0000
     18 C         -13.6800   -2.0787   18.2627 C.ar    1  UNL1        0.0000
     19 C         -13.7046   -3.5771   18.1980 C.ar    1  UNL1        0.0001
     20 C         -12.4517   -4.3597   18.4585 C.ar    1  UNL1        0.0030
     21 C         -20.1199  -10.1925   16.4471 C.3     1  UNL1        0.2525
     22 O         -19.8020   -9.8341   17.8685 O.3     1  UNL1       -0.4714
@<TRIPOS>BOND
     1    21    22    1
     2    22     1    1
     3     1     2   ar
     4     2     3   ar
     5     3     4   ar
     6     4     5   ar
     7     5     6   ar
     8     6    11    1
     9    11    12   ar
    10    12    13   ar
    11    13    14   ar
    12    14    15   ar
    13    15    16   ar
    14    16    17   ar
    15    17    18   ar
    16    18    19   ar
    17    19    20   ar
    18     6     7   ar
    19     7     8   ar
    20     8     9   ar
    21     9    10   ar
    22    10     1   ar
    23     9     4   ar
    24    20    11   ar
    25    20    15   ar
@<TRIPOS>MOLECULE
*****
 22 25 0 0 0
SMALL
GASTEIGER

@<TRIPOS>ATOM
      1 C         -11.4822  -17.8157   22.6017 C.ar    1  UNL1        0.1387
      2 C         -10.9006  -16.4758   22.9427 C.ar    1  UNL1        0.0369
      3 C          -9.4126  -16.3007   23.0161 C.ar    1  UNL1        0.0031
      4 C          -8.5063  -17.4655   22.7485 C.ar    1  UNL1        0.0002
      5 C          -7.0184  -17.2905   22.8218 C.ar    1  UNL1        0.0001
      6 C          -6.1120  -18.4553   22.5542 C.ar    1  UNL1        0.0015
      7 C          -6.6936  -19.7953   22.2131 C.ar    1  UNL1        0.0000
      8 C          -8.1816  -19.9703   22.1397 C.ar    1  UNL1        0.0001
      9 C          -9.0879  -18.8054   22.4074 C.ar    1  UNL1        0.0030
     10 C         -10.5758  -18.9805   22.3340 C.ar    1  UNL1        0.0369
     11 C          -4.6241  -18.2802   22.6276 C.ar    1  UNL1        0.0192
     12 C          -3.9691  -17.9712   23.9412 C.ar    1  UNL1        0.0988
     13 N          -2.4812  -17.7962   24.0145 N.ar    1  UNL1       -0.2423
     14 C          -1.6482  -17.9301   22.7744 C.ar    1  UNL1        0.0988
     15 C          -2.3031  -18.2391   21.4607 C.ar    1  UNL1        0.0192
     16 C          -1.4701  -18.3730   20.2205 C.ar    1  UNL1        0.0015
     17 C          -2.1251  -18.6820   18.9068 C.ar    1  UNL1        0.0000
     18 C          -3.6130  -18.8570   18.8334 C.ar    1  UNL1        0.0000
     19 C          -4.4460  -18.7231   20.0737 C.ar    1  UNL1        0.0001
     20 C          -3.7911  -18.4141   21.3873 C.ar    1  UNL1        0.0030
     21 C         -13.7923  -17.9550   23.7824 C.3     1  UNL1        0.2525
     22 O         -12.9701  -17.9907   22.5283 O.3     1  UNL1       -0.4714
@<TRIPOS>BOND
     1    21    22    1
     2    22     1    1
     3     1     2   ar
     4     2     3   ar
     5     3     4   ar
     6     4     5   ar
     7     5     6   ar
     8     6    11    1
     9    11    12   ar
    10    12    13   ar
    11    13    14   ar
    12    14    15   ar
    13    15    16   ar
    14    16    17   ar
    15    17    18   ar
    16    18    19   ar
    17    19    20   ar
    18     6     7   ar
    19     7     8   ar
    20     8     9   ar
    21     9    10   ar
    22    10     1   ar
    23     9     4   ar
    24    20    11   ar
    25    20    15   ar
@<TRIPOS>MOLECULE
*****
 22 25 0 0 0
SMALL
GASTEIGER

@<TRIPOS>ATOM
      1 C         -10.1786   -4.7191   17.2670 C.ar    1  UNL1        0.1387
      2 C          -9.8558   -5.6986   18.3562 C.ar    1  UNL1        0.0369
      3 C         -10.8722   -6.7209   18.7710 C.ar    1  UNL1        0.0031
      4 C         -12.2113   -6.7637   18.0965 C.ar    1  UNL1        0.0002
      5 C         -13.2276   -7.7859   18.5113 C.ar    1  UNL1        0.0001
      6 C         -14.5667   -7.8287   17.8368 C.ar    1  UNL1        0.0015
      7 C         -14.8895   -6.8492   16.7476 C.ar    1  UNL1        0.0000
      8 C         -13.8732   -5.8269   16.3328 C.ar    1  UNL1        0.0001
      9 C         -12.5340   -5.7842   17.0073 C.ar    1  UNL1        0.0030
     10 C         -11.5177   -4.7619   16.5925 C.ar    1  UNL1        0.0369
     11 C         -15.5831   -8.8509   18.2516 C.ar    1  UNL1        0.0192
     12 C         -15.3174  -10.3091   18.0212 C.ar    1  UNL1        0.0988
     13 N         -16.3337  -11.3314   18.4360 N.ar    1  UNL1       -0.2423
     14 C         -17.6158  -10.8954   19.0811 C.ar    1  UNL1        0.0988
     15 C         -17.8816   -9.4372   19.3115 C.ar    1  UNL1        0.0192
     16 C         -19.1636   -9.0013   19.9566 C.ar    1  UNL1        0.0015
     17 C         -19.4294   -7.5431   20.1870 C.ar    1  UNL1        0.0000
     18 C         -18.4131   -6.5208   19.7723 C.ar    1  UNL1        0.0000
     19 C         -17.1309   -6.9568   19.1271 C.ar    1  UNL1        0.0001
     20 C         -16.8652   -8.4150   18.8968 C.ar    1  UNL1        0.0030
     21 C          -9.5692   -2.5447   15.9823 C.3     1  UNL1        0.2525
     22 O          -9.1622   -3.6969   16.8522 O.3     1  UNL1       -0.4714
@<TRIPOS>BOND
     1    21    22    1
     2    22     1    1
     3     1     2   ar
     4     2     3   ar
     5     3     4   ar
     6     4     5   ar
     7     5     6   ar
     8     6    11    1
     9    11    12   ar
    10    12    13   ar
    11    13    14   ar
    12    14    15   ar
    13    15    16   ar
    14    16    17   ar
    15    17    18   ar
    16    18    19   ar
    17    19    20   ar
    18     6     7   ar
    19     7     8   ar
    20     8     9   ar
    21     9    10   ar
    22    10     1   ar
    23     9     4   ar
    24    20    11   ar
    25    20    15   ar
