@<TRIPOS>MOLECULE
*****
 39 42 0 0 0
SMALL
GASTEIGER

@<TRIPOS>ATOM
      1 C           0.6340    1.9964   27.0422 C.ar    1  UNL1        0.0053
      2 C          -0.6311    2.3271   26.3073 C.ar    1  UNL1        0.0033
      3 C          -0.7242    2.0880   24.8294 C.ar    1  UNL1        0.0382
      4 C           0.4477    1.5184   24.0865 C.ar    1  UNL1        0.1529
      5 C           1.7128    1.1877   24.8214 C.ar    1  UNL1        0.0881
      6 C           1.8060    1.4268   26.2993 C.ar    1  UNL1        0.0181
      7 N           2.8848    0.6181   24.0784 N.am    1  UNL1       -0.2528
      8 C           2.7917    0.3791   22.6006 C.2     1  UNL1        0.2697
      9 O           3.9636   -0.1906   21.8576 O.2     1  UNL1       -0.2704
     10 C           1.5265    0.7097   21.8656 C.3     1  UNL1        0.2199
     11 C           0.5507    0.8607   20.7364 C.3     1  UNL1        0.0579
     12 O           0.3545    1.2793   22.6085 O.3     1  UNL1       -0.4686
     13 C           0.4014    1.1303   29.4806 C.ar    1  UNL1        0.0645
     14 N           0.4946    1.3693   30.9585 N.ar    1  UNL1       -0.2183
     15 C           0.9136    2.7135   31.4760 C.ar    1  UNL1        0.2145
     16 N           1.0068    2.9525   32.9539 N.pl3   1  UNL1       -0.3274
     17 N           1.2394    3.8186   30.5155 N.ar    1  UNL1       -0.1995
     18 C           1.1462    3.5796   29.0376 C.ar    1  UNL1        0.1293
     19 N           1.4720    4.6847   28.0771 N.pl3   1  UNL1       -0.3425
     20 C           0.7272    2.2355   28.5202 C.ar    1  UNL1        0.0449
     21 H           0.7929    2.2271   33.5842 H       1  UNL1        0.1452
     22 H           1.2817    3.8347   33.2935 H       1  UNL1        0.1452
     23 H           1.7470    5.5670   28.4167 H       1  UNL1        0.1437
     24 H           1.4108    4.5279   27.1071 H       1  UNL1        0.1437
     25 C          -1.4744   -0.5483   28.8375 C.3     1  UNL1        0.0067
     26 C          -0.0176   -0.2138   28.9632 C.3     1  UNL1        0.0460
     27 C           2.3596    0.1925   20.7305 C.ar    1  UNL1        0.0264
     28 C           3.1426    1.1473   19.8790 C.ar    1  UNL1        0.0293
     29 C           3.9757    0.6301   18.7439 C.ar    1  UNL1        0.1422
     30 F           4.7588    1.5851   17.8924 F       1  UNL1       -0.2041
     31 C           4.0258   -0.8419   18.4603 C.ar    1  UNL1        0.0592
     32 C           3.2427   -1.7968   19.3118 C.ar    1  UNL1        0.1422
     33 F           3.2927   -3.2689   19.0281 F       1  UNL1       -0.2041
     34 C           2.4096   -1.2797   20.4469 C.ar    1  UNL1        0.0293
     35 C           4.1499    0.2875   24.8133 C.3     1  UNL1        0.1010
     36 C           4.3940   -1.1122   25.2943 C.3     1  UNL1        0.0536
     37 C           4.3581   -1.4178   26.7624 C.3     1  UNL1        0.1389
     38 O           3.0776   -1.8619   27.4049 O.3     1  UNL1       -0.3819
     39 H           2.4323   -1.1383   27.3739 H       1  UNL1        0.2104
@<TRIPOS>BOND
     1    25    26    1
     2    26    13    1
     3    13    14   ar
     4    14    15   ar
     5    15    16    1
     6    15    17   ar
     7    17    18   ar
     8    18    19    1
     9    18    20   ar
    10    20     1    1
    11     1     2   ar
    12     2     3   ar
    13     3     4   ar
    14     4     5   ar
    15     5     6   ar
    16     5     7    1
    17     7    35    1
    18    35    36    1
    19    36    37    1
    20    37    38    1
    21     7     8   am
    22     8     9    2
    23     8    10    1
    24    10    11    1
    25    10    27    1
    26    27    28   ar
    27    28    29   ar
    28    29    30    1
    29    29    31   ar
    30    31    32   ar
    31    32    33    1
    32    32    34   ar
    33    10    12    1
    34    20    13   ar
    35     6     1   ar
    36    34    27   ar
    37    12     4    1
    38    16    21    1
    39    16    22    1
    40    19    23    1
    41    19    24    1
    42    38    39    1
@<TRIPOS>MOLECULE
*****
 39 42 0 0 0
SMALL
GASTEIGER

@<TRIPOS>ATOM
      1 C           0.6467    1.9971   27.0633 C.ar    1  UNL1        0.0053
      2 C          -0.6275    2.3105   26.3366 C.ar    1  UNL1        0.0033
      3 C          -0.7269    2.0704   24.8594 C.ar    1  UNL1        0.0382
      4 C           0.4479    1.5167   24.1087 C.ar    1  UNL1        0.1529
      5 C           1.7221    1.2033   24.8354 C.ar    1  UNL1        0.0881
      6 C           1.8215    1.4434   26.3127 C.ar    1  UNL1        0.0181
      7 N           2.8968    0.6496   24.0848 N.am    1  UNL1       -0.2528
      8 C           2.7974    0.4095   22.6075 C.2     1  UNL1        0.2697
      9 O           3.9722   -0.1442   21.8569 O.2     1  UNL1       -0.2704
     10 C           1.5232    0.7230   21.8808 C.3     1  UNL1        0.2199
     11 C           0.5381    0.8608   20.7580 C.3     1  UNL1        0.0579
     12 O           0.3484    1.2766   22.6314 O.3     1  UNL1       -0.4686
     13 C           0.4114    1.1369   29.5036 C.ar    1  UNL1        0.0645
     14 N           0.5108    1.3770   30.9808 N.ar    1  UNL1       -0.2183
     15 C           0.9452    2.7174   31.4953 C.ar    1  UNL1        0.2145
     16 N           1.0446    2.9575   32.9726 N.pl3   1  UNL1       -0.3274
     17 N           1.2800    3.8178   30.5324 N.ar    1  UNL1       -0.1995
     18 C           1.1806    3.5776   29.0550 C.ar    1  UNL1        0.1293
     19 N           1.5154    4.6779   28.0921 N.pl3   1  UNL1       -0.3425
     20 C           0.7462    2.2372   28.5407 C.ar    1  UNL1        0.0449
     21 H           0.8249    2.2354   33.6046 H       1  UNL1        0.1452
     22 H           1.3297    3.8373   33.3102 H       1  UNL1        0.1452
     23 H           1.8005    5.5577   28.4298 H       1  UNL1        0.1437
     24 H           1.4501    4.5203   27.1225 H       1  UNL1        0.1437
     25 C          -1.4835   -0.5242   28.8710 C.3     1  UNL1        0.0067
     26 C          -0.0230   -0.2036   28.9891 C.3     1  UNL1        0.0460
     27 C           2.3558    0.2172   20.7403 C.ar    1  UNL1        0.0264
     28 C           2.4256   -1.2542   20.4573 C.ar    1  UNL1        0.0293
     29 C           3.2583   -1.7600   19.3167 C.ar    1  UNL1        0.1422
     30 F           3.3280   -3.2315   19.0339 F       1  UNL1       -0.2041
     31 C           4.0212   -0.7944   18.4592 C.ar    1  UNL1        0.0592
     32 C           3.9514    0.6770   18.7421 C.ar    1  UNL1        0.1422
     33 F           4.7143    1.6427   17.8845 F       1  UNL1       -0.2041
     34 C           3.1187    1.1829   19.8826 C.ar    1  UNL1        0.0293
     35 C           4.1710    0.3361   24.8115 C.3     1  UNL1        0.1010
     36 C           4.4286   -1.0559   25.3075 C.3     1  UNL1        0.0536
     37 C           4.3706   -1.3512   26.7770 C.3     1  UNL1        0.1389
     38 O           3.1172   -1.9127   27.3802 O.3     1  UNL1       -0.3819
     39 H           2.4062   -1.2558   27.3184 H       1  UNL1        0.2104
@<TRIPOS>BOND
     1    25    26    1
     2    26    13    1
     3    13    14   ar
     4    14    15   ar
     5    15    16    1
     6    15    17   ar
     7    17    18   ar
     8    18    19    1
     9    18    20   ar
    10    20     1    1
    11     1     2   ar
    12     2     3   ar
    13     3     4   ar
    14     4     5   ar
    15     5     6   ar
    16     5     7    1
    17     7    35    1
    18    35    36    1
    19    36    37    1
    20    37    38    1
    21     7     8   am
    22     8     9    2
    23     8    10    1
    24    10    11    1
    25    10    27    1
    26    27    28   ar
    27    28    29   ar
    28    29    30    1
    29    29    31   ar
    30    31    32   ar
    31    32    33    1
    32    32    34   ar
    33    10    12    1
    34    20    13   ar
    35     6     1   ar
    36    34    27   ar
    37    12     4    1
    38    16    21    1
    39    16    22    1
    40    19    23    1
    41    19    24    1
    42    38    39    1
@<TRIPOS>MOLECULE
*****
 39 42 0 0 0
SMALL
GASTEIGER

@<TRIPOS>ATOM
      1 C           0.6939    1.7418   26.8699 C.ar    1  UNL1        0.0053
      2 C          -0.5600    2.0873   26.1227 C.ar    1  UNL1        0.0033
      3 C          -0.6333    1.8710   24.6402 C.ar    1  UNL1        0.0382
      4 C           0.5472    1.3092   23.9049 C.ar    1  UNL1        0.1529
      5 C           1.8011    0.9637   24.6521 C.ar    1  UNL1        0.0881
      6 C           1.8745    1.1800   26.1346 C.ar    1  UNL1        0.0181
      7 N           2.9817    0.4019   23.9168 N.am    1  UNL1       -0.2528
      8 C           2.9083    0.1856   22.4343 C.2     1  UNL1        0.2697
      9 O           4.0888   -0.3762   21.6990 O.2     1  UNL1       -0.2704
     10 C           1.6543    0.5311   21.6870 C.3     1  UNL1        0.2199
     11 C           0.6946    0.7021   20.5470 C.3     1  UNL1        0.0579
     12 O           0.4738    1.0929   22.4224 O.3     1  UNL1       -0.4686
     13 C           0.9632    3.3408   28.8998 C.ar    1  UNL1        0.0645
     14 N           1.0366    3.5572   30.3823 N.ar    1  UNL1       -0.2183
     15 C           0.9142    2.3907   31.3175 C.ar    1  UNL1        0.2145
     16 N           0.9876    2.6070   32.7999 N.pl3   1  UNL1       -0.3274
     17 N           0.7184    1.0079   30.7701 N.ar    1  UNL1       -0.1995
     18 C           0.6449    0.7916   29.2875 C.ar    1  UNL1        0.1293
     19 N           0.4491   -0.5911   28.7401 N.pl3   1  UNL1       -0.3425
     20 C           0.7674    1.9581   28.3524 C.ar    1  UNL1        0.0449
     21 H           1.1161    3.5146   33.1592 H       1  UNL1        0.1452
     22 H           0.9073    1.8415   33.4137 H       1  UNL1        0.1452
     23 H           0.3688   -1.3567   29.3539 H       1  UNL1        0.1437
     24 H           0.4009   -0.7331   27.7671 H       1  UNL1        0.1437
     25 C          -0.0733    5.4404   27.7739 C.3     1  UNL1        0.0067
     26 C           1.0856    4.5073   27.9647 C.3     1  UNL1        0.0460
     27 C           2.5016    0.0287   20.5558 C.ar    1  UNL1        0.0264
     28 C           3.3011    0.9937   19.7316 C.ar    1  UNL1        0.0293
     29 C           4.1484    0.4913   18.6003 C.ar    1  UNL1        0.1422
     30 F           4.9480    1.4565   17.7761 F       1  UNL1       -0.2041
     31 C           4.1961   -0.9761   18.2933 C.ar    1  UNL1        0.0592
     32 C           3.3966   -1.9411   19.1175 C.ar    1  UNL1        0.1422
     33 F           3.4443   -3.4086   18.8105 F       1  UNL1       -0.2041
     34 C           2.5493   -1.4388   20.2488 C.ar    1  UNL1        0.0293
     35 C           4.2356    0.0564   24.6639 C.3     1  UNL1        0.1010
     36 C           4.4256   -1.3273   25.2109 C.3     1  UNL1        0.0536
     37 C           4.4124   -1.5561   26.6934 C.3     1  UNL1        0.1389
     38 O           3.1163   -1.8241   27.3994 O.3     1  UNL1       -0.3819
     39 H           2.5532   -1.0358   27.3517 H       1  UNL1        0.2104
@<TRIPOS>BOND
     1    25    26    1
     2    26    13    1
     3    13    14   ar
     4    14    15   ar
     5    15    16    1
     6    15    17   ar
     7    17    18   ar
     8    18    19    1
     9    18    20   ar
    10    20     1    1
    11     1     2   ar
    12     2     3   ar
    13     3     4   ar
    14     4     5   ar
    15     5     6   ar
    16     5     7    1
    17     7    35    1
    18    35    36    1
    19    36    37    1
    20    37    38    1
    21     7     8   am
    22     8     9    2
    23     8    10    1
    24    10    11    1
    25    10    27    1
    26    27    28   ar
    27    28    29   ar
    28    29    30    1
    29    29    31   ar
    30    31    32   ar
    31    32    33    1
    32    32    34   ar
    33    10    12    1
    34    20    13   ar
    35     6     1   ar
    36    34    27   ar
    37    12     4    1
    38    16    21    1
    39    16    22    1
    40    19    23    1
    41    19    24    1
    42    38    39    1
@<TRIPOS>MOLECULE
*****
 39 42 0 0 0
SMALL
GASTEIGER

@<TRIPOS>ATOM
      1 C           0.6910    1.7167   26.7613 C.ar    1  UNL1        0.0053
      2 C          -0.5525    2.0700   26.0005 C.ar    1  UNL1        0.0033
      3 C          -0.6135    1.8478   24.5184 C.ar    1  UNL1        0.0382
      4 C           0.5690    1.2723   23.7970 C.ar    1  UNL1        0.1529
      5 C           1.8125    0.9190   24.5577 C.ar    1  UNL1        0.0881
      6 C           1.8736    1.1412   26.0398 C.ar    1  UNL1        0.0181
      7 N           2.9950    0.3435   23.8363 N.am    1  UNL1       -0.2528
      8 C           2.9340    0.1213   22.3541 C.2     1  UNL1        0.2697
      9 O           4.1165   -0.4542   21.6327 O.2     1  UNL1       -0.2704
     10 C           1.6904    0.4746   21.5933 C.3     1  UNL1        0.2199
     11 C           0.7433    0.6491   20.4433 C.3     1  UNL1        0.0579
     12 O           0.5079    1.0501   22.3147 O.3     1  UNL1       -0.4686
     13 C           1.1334    3.2848   28.7850 C.ar    1  UNL1        0.0645
     14 N           1.1945    3.5071   30.2672 N.ar    1  UNL1       -0.2183
     15 C           0.8743    2.3834   31.2079 C.ar    1  UNL1        0.2145
     16 N           0.9354    2.6056   32.6901 N.pl3   1  UNL1       -0.3274
     17 N           0.4930    1.0375   30.6664 N.ar    1  UNL1       -0.1995
     18 C           0.4319    0.8153   29.1842 C.ar    1  UNL1        0.1293
     19 N           0.0506   -0.5306   28.6427 N.pl3   1  UNL1       -0.3425
     20 C           0.7521    1.9389   28.2435 C.ar    1  UNL1        0.0449
     21 H           1.1856    3.4890   33.0455 H       1  UNL1        0.1452
     22 H           0.7252    1.8681   33.3075 H       1  UNL1        0.1452
     23 H          -0.1595   -1.2681   29.2601 H       1  UNL1        0.1437
     24 H           0.0106   -0.6764   27.6698 H       1  UNL1        0.1437
     25 C           0.3950    5.4072   27.4810 C.3     1  UNL1        0.0067
     26 C           1.4536    4.4085   27.8443 C.3     1  UNL1        0.0460
     27 C           2.5440   -0.0403   20.4725 C.ar    1  UNL1        0.0264
     28 C           2.5871   -1.5102   20.1769 C.ar    1  UNL1        0.0293
     29 C           3.4407   -2.0251   19.0560 C.ar    1  UNL1        0.1422
     30 F           3.4837   -3.4952   18.7604 F       1  UNL1       -0.2041
     31 C           4.2512   -1.0702   18.2308 C.ar    1  UNL1        0.0592
     32 C           4.2081    0.3997   18.5265 C.ar    1  UNL1        0.1422
     33 F           5.0187    1.3548   17.7012 F       1  UNL1       -0.2041
     34 C           3.3546    0.9147   19.6473 C.ar    1  UNL1        0.0293
     35 C           4.2386   -0.0098   24.5970 C.3     1  UNL1        0.1010
     36 C           4.3973   -1.3833   25.1785 C.3     1  UNL1        0.0536
     37 C           4.4168   -1.5700   26.6668 C.3     1  UNL1        0.1389
     38 O           3.1423   -1.8583   27.4033 O.3     1  UNL1       -0.3819
     39 H           2.5536   -1.0896   27.3439 H       1  UNL1        0.2104
@<TRIPOS>BOND
     1    25    26    1
     2    26    13    1
     3    13    14   ar
     4    14    15   ar
     5    15    16    1
     6    15    17   ar
     7    17    18   ar
     8    18    19    1
     9    18    20   ar
    10    20     1    1
    11     1     2   ar
    12     2     3   ar
    13     3     4   ar
    14     4     5   ar
    15     5     6   ar
    16     5     7    1
    17     7    35    1
    18    35    36    1
    19    36    37    1
    20    37    38    1
    21     7     8   am
    22     8     9    2
    23     8    10    1
    24    10    11    1
    25    10    27    1
    26    27    28   ar
    27    28    29   ar
    28    29    30    1
    29    29    31   ar
    30    31    32   ar
    31    32    33    1
    32    32    34   ar
    33    10    12    1
    34    20    13   ar
    35     6     1   ar
    36    34    27   ar
    37    12     4    1
    38    16    21    1
    39    16    22    1
    40    19    23    1
    41    19    24    1
    42    38    39    1
@<TRIPOS>MOLECULE
*****
 39 42 0 0 0
SMALL
GASTEIGER

@<TRIPOS>ATOM
      1 C           2.6676    0.9177   26.7435 C.ar    1  UNL1        0.0053
      2 C           3.3781   -0.2126   27.4273 C.ar    1  UNL1        0.0033
      3 C           4.0075   -1.3043   26.6138 C.ar    1  UNL1        0.0382
      4 C           3.9264   -1.2658   25.1164 C.ar    1  UNL1        0.1529
      5 C           3.2159   -0.1355   24.4327 C.ar    1  UNL1        0.0881
      6 C           2.5865    0.9563   25.2462 C.ar    1  UNL1        0.0181
      7 N           3.1348   -0.0969   22.9354 N.am    1  UNL1       -0.2528
      8 C           3.7642   -1.1887   22.1218 C.2     1  UNL1        0.2697
      9 O           3.6831   -1.1501   20.6245 O.2     1  UNL1       -0.2704
     10 C           4.4748   -2.3190   22.8056 C.3     1  UNL1        0.2199
     11 C           5.2507   -3.5891   22.9918 C.3     1  UNL1        0.0579
     12 O           4.5559   -2.3576   24.3029 O.3     1  UNL1       -0.4686
     13 C           0.6027    1.8986   27.9781 C.ar    1  UNL1        0.0645
     14 N          -0.0268    2.9904   28.7916 N.ar    1  UNL1       -0.2183
     15 C           0.7792    4.1931   29.1841 C.ar    1  UNL1        0.2145
     16 N           0.1497    5.2848   29.9976 N.pl3   1  UNL1       -0.3274
     17 N           2.2146    4.3040   28.7631 N.ar    1  UNL1       -0.1995
     18 C           2.8440    3.2122   27.9495 C.ar    1  UNL1        0.1293
     19 N           4.2795    3.3231   27.5285 N.pl3   1  UNL1       -0.3425
     20 C           2.0381    2.0095   27.5571 C.ar    1  UNL1        0.0449
     21 H          -0.7924    5.2120   30.2740 H       1  UNL1        0.1452
     22 H           0.6787    6.0742   30.2552 H       1  UNL1        0.1452
     23 H           4.8084    4.1124   27.7861 H       1  UNL1        0.1437
     24 H           4.6926    2.6065   26.9945 H       1  UNL1        0.1437
     25 C          -0.8140   -0.1753   28.6430 C.3     1  UNL1        0.0067
     26 C          -0.2033    0.6959   27.5857 C.3     1  UNL1        0.0460
     27 C           4.6632   -2.7216   21.3730 C.ar    1  UNL1        0.0264
     28 C           3.6212   -3.5520   20.6840 C.ar    1  UNL1        0.0293
     29 C           3.8096   -3.9546   19.2514 C.ar    1  UNL1        0.1422
     30 F           2.7675   -4.7851   18.5625 F       1  UNL1       -0.2041
     31 C           5.0399   -3.5267   18.5077 C.ar    1  UNL1        0.0592
     32 C           6.0818   -2.6963   19.1966 C.ar    1  UNL1        0.1422
     33 F           7.3122   -2.2683   18.4529 F       1  UNL1       -0.2041
     34 C           5.8935   -2.2937   20.6292 C.ar    1  UNL1        0.0293
     35 C           2.4243    1.0334   22.2516 C.3     1  UNL1        0.1010
     36 C           0.9532    0.9366   21.9750 C.3     1  UNL1        0.0536
     37 C           0.4713    0.5003   20.6231 C.3     1  UNL1        0.1389
     38 O           0.7574   -0.8898   20.1376 O.3     1  UNL1       -0.3819
     39 H           1.7131   -0.9982   20.0121 H       1  UNL1        0.2104
@<TRIPOS>BOND
     1    25    26    1
     2    26    13    1
     3    13    14   ar
     4    14    15   ar
     5    15    16    1
     6    15    17   ar
     7    17    18   ar
     8    18    19    1
     9    18    20   ar
    10    20     1    1
    11     1     2   ar
    12     2     3   ar
    13     3     4   ar
    14     4     5   ar
    15     5     6   ar
    16     5     7    1
    17     7    35    1
    18    35    36    1
    19    36    37    1
    20    37    38    1
    21     7     8   am
    22     8     9    2
    23     8    10    1
    24    10    11    1
    25    10    27    1
    26    27    28   ar
    27    28    29   ar
    28    29    30    1
    29    29    31   ar
    30    31    32   ar
    31    32    33    1
    32    32    34   ar
    33    10    12    1
    34    20    13   ar
    35     6     1   ar
    36    34    27   ar
    37    12     4    1
    38    16    21    1
    39    16    22    1
    40    19    23    1
    41    19    24    1
    42    38    39    1
@<TRIPOS>MOLECULE
*****
 39 42 0 0 0
SMALL
GASTEIGER

@<TRIPOS>ATOM
      1 C           2.6566    0.9343   26.7435 C.ar    1  UNL1        0.0053
      2 C           3.3574   -0.1999   27.4308 C.ar    1  UNL1        0.0033
      3 C           3.9859   -1.2944   26.6204 C.ar    1  UNL1        0.0382
      4 C           3.9136   -1.2548   25.1227 C.ar    1  UNL1        0.1529
      5 C           3.2128   -0.1206   24.4353 C.ar    1  UNL1        0.0881
      6 C           2.5843    0.9739   25.2457 C.ar    1  UNL1        0.0181
      7 N           3.1406   -0.0810   22.9376 N.am    1  UNL1       -0.2528
      8 C           3.7691   -1.1756   22.1272 C.2     1  UNL1        0.2697
      9 O           3.6969   -1.1360   20.6295 O.2     1  UNL1       -0.2704
     10 C           4.4700   -2.3098   22.8145 C.3     1  UNL1        0.2199
     11 C           5.2384   -3.5840   23.0046 C.3     1  UNL1        0.0579
     12 O           4.5422   -2.3495   24.3122 O.3     1  UNL1       -0.4686
     13 C           0.5936    1.9186   27.9786 C.ar    1  UNL1        0.0645
     14 N          -0.0350    3.0132   28.7890 N.ar    1  UNL1       -0.2183
     15 C           0.7708    4.2182   29.1747 C.ar    1  UNL1        0.2145
     16 N           0.1422    5.3128   29.9850 N.pl3   1  UNL1       -0.3274
     17 N           2.2052    4.3286   28.7499 N.ar    1  UNL1       -0.1995
     18 C           2.8338    3.2339   27.9395 C.ar    1  UNL1        0.1293
     19 N           4.2681    3.3443   27.5148 N.pl3   1  UNL1       -0.3425
     20 C           2.0280    2.0290   27.5539 C.ar    1  UNL1        0.0449
     21 H          -0.7992    5.2403   30.2638 H       1  UNL1        0.1452
     22 H           0.6711    6.1036   30.2382 H       1  UNL1        0.1452
     23 H           4.7970    4.1352   27.7679 H       1  UNL1        0.1437
     24 H           4.6807    2.6259   26.9829 H       1  UNL1        0.1437
     25 C          -0.7064   -0.2281   28.6507 C.3     1  UNL1        0.0067
     26 C          -0.2122    0.7136   27.5929 C.3     1  UNL1        0.0460
     27 C           4.6646   -2.7127   21.3828 C.ar    1  UNL1        0.0264
     28 C           5.8978   -2.2845   20.6442 C.ar    1  UNL1        0.0293
     29 C           6.0924   -2.6874   19.2124 C.ar    1  UNL1        0.1422
     30 F           7.3258   -2.2590   18.4738 F       1  UNL1       -0.2041
     31 C           5.0538   -3.5184   18.5194 C.ar    1  UNL1        0.0592
     32 C           3.8205   -3.9467   19.2580 C.ar    1  UNL1        0.1422
     33 F           2.7818   -4.7779   18.5649 F       1  UNL1       -0.2041
     34 C           3.6259   -3.5439   20.6897 C.ar    1  UNL1        0.0293
     35 C           2.4398    1.0532   22.2503 C.3     1  UNL1        0.1010
     36 C           0.9784    0.9475   21.9292 C.3     1  UNL1        0.0536
     37 C           0.5404    0.5087   20.5632 C.3     1  UNL1        0.1389
     38 O           0.7467   -0.9125   20.1300 O.3     1  UNL1       -0.3819
     39 H           1.6970   -1.0952   20.0623 H       1  UNL1        0.2104
@<TRIPOS>BOND
     1    25    26    1
     2    26    13    1
     3    13    14   ar
     4    14    15   ar
     5    15    16    1
     6    15    17   ar
     7    17    18   ar
     8    18    19    1
     9    18    20   ar
    10    20     1    1
    11     1     2   ar
    12     2     3   ar
    13     3     4   ar
    14     4     5   ar
    15     5     6   ar
    16     5     7    1
    17     7    35    1
    18    35    36    1
    19    36    37    1
    20    37    38    1
    21     7     8   am
    22     8     9    2
    23     8    10    1
    24    10    11    1
    25    10    27    1
    26    27    28   ar
    27    28    29   ar
    28    29    30    1
    29    29    31   ar
    30    31    32   ar
    31    32    33    1
    32    32    34   ar
    33    10    12    1
    34    20    13   ar
    35     6     1   ar
    36    34    27   ar
    37    12     4    1
    38    16    21    1
    39    16    22    1
    40    19    23    1
    41    19    24    1
    42    38    39    1
@<TRIPOS>MOLECULE
*****
 39 42 0 0 0
SMALL
GASTEIGER

@<TRIPOS>ATOM
      1 C           4.5039    1.1159   35.9206 C.ar    1  UNL1        0.0053
      2 C           4.7045   -0.3307   35.5784 C.ar    1  UNL1        0.0033
      3 C           4.2688   -0.8524   34.2413 C.ar    1  UNL1        0.0382
      4 C           3.6327    0.0725   33.2463 C.ar    1  UNL1        0.1529
      5 C           3.4321    1.5191   33.5885 C.ar    1  UNL1        0.0881
      6 C           3.8677    2.0408   34.9256 C.ar    1  UNL1        0.0181
      7 N           2.7959    2.4439   32.5936 N.am    1  UNL1       -0.2528
      8 C           2.3603    1.9222   31.2564 C.2     1  UNL1        0.2697
      9 O           1.7241    2.8470   30.2615 O.2     1  UNL1       -0.2704
     10 C           2.5609    0.4755   30.9142 C.3     1  UNL1        0.2199
     11 C           2.5377   -0.8042   30.1321 C.3     1  UNL1        0.0579
     12 O           3.1970   -0.4493   31.9091 O.3     1  UNL1       -0.4686
     13 C           3.9493    1.7466   38.3792 C.ar    1  UNL1        0.0645
     14 N           4.3849    2.2683   39.7164 N.ar    1  UNL1       -0.2183
     15 C           5.8107    2.6813   39.9321 C.ar    1  UNL1        0.2145
     16 N           6.2463    3.2030   41.2693 N.pl3   1  UNL1       -0.3274
     17 N           6.8010    2.5724   38.8107 N.ar    1  UNL1       -0.1995
     18 C           6.3653    2.0506   37.4735 C.ar    1  UNL1        0.1293
     19 N           7.3556    1.9418   36.3521 N.pl3   1  UNL1       -0.3425
     20 C           4.9395    1.6377   37.2578 C.ar    1  UNL1        0.0449
     21 H           5.5964    3.2745   42.0053 H       1  UNL1        0.1452
     22 H           7.1821    3.4741   41.4109 H       1  UNL1        0.1452
     23 H           8.2914    2.2128   36.4937 H       1  UNL1        0.1437
     24 H           7.0697    1.5993   35.4745 H       1  UNL1        0.1437
     25 C           1.7898    0.5827   39.2348 C.3     1  UNL1        0.0067
     26 C           2.5235    1.3336   38.1634 C.3     1  UNL1        0.0460
     27 C           1.9167    0.9559   29.6476 C.ar    1  UNL1        0.0264
     28 C           0.4241    0.9171   29.5039 C.ar    1  UNL1        0.0293
     29 C          -0.2201    1.3975   28.2372 C.ar    1  UNL1        0.1422
     30 F          -1.7128    1.3586   28.0936 F       1  UNL1       -0.2041
     31 C           0.6281    1.9168   27.1145 C.ar    1  UNL1        0.0592
     32 C           2.1207    1.9556   27.2583 C.ar    1  UNL1        0.1422
     33 F           2.9691    2.4749   26.1355 F       1  UNL1       -0.2041
     34 C           2.7650    1.4752   28.5248 C.ar    1  UNL1        0.0293
     35 C           2.5954    3.8905   32.9357 C.3     1  UNL1        0.1010
     36 C           1.3609    4.3234   33.6697 C.3     1  UNL1        0.0536
     37 C           0.0780    4.5328   32.9211 C.3     1  UNL1        0.1389
     38 O          -0.5627    3.3867   32.1958 O.3     1  UNL1       -0.3819
     39 H           0.0088    3.1074   31.4635 H       1  UNL1        0.2104
@<TRIPOS>BOND
     1    25    26    1
     2    26    13    1
     3    13    14   ar
     4    14    15   ar
     5    15    16    1
     6    15    17   ar
     7    17    18   ar
     8    18    19    1
     9    18    20   ar
    10    20     1    1
    11     1     2   ar
    12     2     3   ar
    13     3     4   ar
    14     4     5   ar
    15     5     6   ar
    16     5     7    1
    17     7    35    1
    18    35    36    1
    19    36    37    1
    20    37    38    1
    21     7     8   am
    22     8     9    2
    23     8    10    1
    24    10    11    1
    25    10    27    1
    26    27    28   ar
    27    28    29   ar
    28    29    30    1
    29    29    31   ar
    30    31    32   ar
    31    32    33    1
    32    32    34   ar
    33    10    12    1
    34    20    13   ar
    35     6     1   ar
    36    34    27   ar
    37    12     4    1
    38    16    21    1
    39    16    22    1
    40    19    23    1
    41    19    24    1
    42    38    39    1
@<TRIPOS>MOLECULE
*****
 39 42 0 0 0
SMALL
GASTEIGER

@<TRIPOS>ATOM
      1 C           4.4280    1.1314   35.7766 C.ar    1  UNL1        0.0053
      2 C           4.7365   -0.2857   35.3939 C.ar    1  UNL1        0.0033
      3 C           4.3191   -0.8078   34.0511 C.ar    1  UNL1        0.0382
      4 C           3.5932    0.0872   33.0910 C.ar    1  UNL1        0.1529
      5 C           3.2847    1.5044   33.4736 C.ar    1  UNL1        0.0881
      6 C           3.7021    2.0265   34.8164 C.ar    1  UNL1        0.0181
      7 N           2.5588    2.3994   32.5135 N.am    1  UNL1       -0.2528
      8 C           2.1414    1.8774   31.1707 C.2     1  UNL1        0.2697
      9 O           1.4155    2.7724   30.2105 O.2     1  UNL1       -0.2704
     10 C           2.4499    0.4601   30.7879 C.3     1  UNL1        0.2199
     11 C           2.5141   -0.7979   29.9736 C.3     1  UNL1        0.0579
     12 O           3.1758   -0.4349   31.7481 O.3     1  UNL1       -0.4686
     13 C           3.8912    1.5977   38.2755 C.ar    1  UNL1        0.0645
     14 N           4.3085    2.1198   39.6183 N.ar    1  UNL1       -0.2183
     15 C           5.6800    2.6978   39.8052 C.ar    1  UNL1        0.2145
     16 N           6.0973    3.2199   41.1480 N.pl3   1  UNL1       -0.3274
     17 N           6.6342    2.7537   38.6491 N.ar    1  UNL1       -0.1995
     18 C           6.2168    2.2315   37.3062 C.ar    1  UNL1        0.1293
     19 N           7.1710    2.2874   36.1502 N.pl3   1  UNL1       -0.3425
     20 C           4.8453    1.6535   37.1195 C.ar    1  UNL1        0.0449
     21 H           5.4711    3.1833   41.9067 H       1  UNL1        0.1452
     22 H           6.9975    3.5993   41.2706 H       1  UNL1        0.1452
     23 H           8.0712    2.6667   36.2728 H       1  UNL1        0.1437
     24 H           6.8971    1.9447   35.2689 H       1  UNL1        0.1437
     25 C           1.7116    0.6048   39.2824 C.3     1  UNL1        0.0067
     26 C           2.5196    1.0197   38.0887 C.3     1  UNL1        0.0460
     27 C           1.7463    0.9183   29.5450 C.ar    1  UNL1        0.0264
     28 C           2.5358    1.4808   28.4003 C.ar    1  UNL1        0.0293
     29 C           1.8321    1.9389   27.1573 C.ar    1  UNL1        0.1422
     30 F           2.6218    2.5014   26.0126 F       1  UNL1       -0.2041
     31 C           0.3391    1.8346   27.0590 C.ar    1  UNL1        0.0592
     32 C          -0.4504    1.2721   28.2037 C.ar    1  UNL1        0.1422
     33 F          -1.9436    1.1678   28.1054 F       1  UNL1       -0.2041
     34 C           0.2531    0.8140   29.4467 C.ar    1  UNL1        0.0293
     35 C           2.2502    3.8166   32.8961 C.3     1  UNL1        0.1010
     36 C           0.9245    4.1559   33.5104 C.3     1  UNL1        0.0536
     37 C          -0.1230    4.8546   32.6950 C.3     1  UNL1        0.1389
     38 O           0.0942    5.0782   31.2278 O.3     1  UNL1       -0.3819
     39 H           0.8349    5.6915   31.1004 H       1  UNL1        0.2104
@<TRIPOS>BOND
     1    25    26    1
     2    26    13    1
     3    13    14   ar
     4    14    15   ar
     5    15    16    1
     6    15    17   ar
     7    17    18   ar
     8    18    19    1
     9    18    20   ar
    10    20     1    1
    11     1     2   ar
    12     2     3   ar
    13     3     4   ar
    14     4     5   ar
    15     5     6   ar
    16     5     7    1
    17     7    35    1
    18    35    36    1
    19    36    37    1
    20    37    38    1
    21     7     8   am
    22     8     9    2
    23     8    10    1
    24    10    11    1
    25    10    27    1
    26    27    28   ar
    27    28    29   ar
    28    29    30    1
    29    29    31   ar
    30    31    32   ar
    31    32    33    1
    32    32    34   ar
    33    10    12    1
    34    20    13   ar
    35     6     1   ar
    36    34    27   ar
    37    12     4    1
    38    16    21    1
    39    16    22    1
    40    19    23    1
    41    19    24    1
    42    38    39    1
@<TRIPOS>MOLECULE
*****
 39 42 0 0 0
SMALL
GASTEIGER

@<TRIPOS>ATOM
      1 C           0.0149    2.3900   26.6811 C.ar    1  UNL1        0.0053
      2 C           0.9881    1.7517   25.7349 C.ar    1  UNL1        0.0033
      3 C           0.7689    1.8500   24.2543 C.ar    1  UNL1        0.0382
      4 C          -0.4235    2.5866   23.7199 C.ar    1  UNL1        0.1529
      5 C          -1.3967    3.2249   24.6661 C.ar    1  UNL1        0.0881
      6 C          -1.1775    3.1266   26.1467 C.ar    1  UNL1        0.0181
      7 N          -2.5891    3.9615   24.1317 N.am    1  UNL1       -0.2528
      8 C          -2.8084    4.0598   22.6511 C.2     1  UNL1        0.2697
      9 O          -4.0008    4.7963   22.1168 O.2     1  UNL1       -0.2704
     10 C          -1.8351    3.4214   21.7048 C.3     1  UNL1        0.2199
     11 C          -1.1993    2.9864   20.4178 C.3     1  UNL1        0.0579
     12 O          -0.6427    2.6848   22.2392 O.3     1  UNL1       -0.4686
     13 C           0.8615    3.4340   28.9045 C.ar    1  UNL1        0.0645
     14 N           1.0807    3.3358   30.3851 N.ar    1  UNL1       -0.2183
     15 C           0.6725    2.0953   31.1231 C.ar    1  UNL1        0.2145
     16 N           0.8917    1.9971   32.6037 N.pl3   1  UNL1       -0.3274
     17 N           0.0450    0.9531   30.3804 N.ar    1  UNL1       -0.1995
     18 C          -0.1741    1.0513   28.8997 C.ar    1  UNL1        0.1293
     19 N          -0.8016   -0.0909   28.1571 N.pl3   1  UNL1       -0.3425
     20 C           0.2341    2.2918   28.1618 C.ar    1  UNL1        0.0449
     21 H           1.3035    2.7468   33.0912 H       1  UNL1        0.1452
     22 H           0.6237    1.1830   33.0881 H       1  UNL1        0.1452
     23 H          -1.0695   -0.9051   28.6414 H       1  UNL1        0.1437
     24 H          -0.9455   -0.0264   27.1853 H       1  UNL1        0.1437
     25 C           2.6679    4.8079   27.6397 C.3     1  UNL1        0.0067
     26 C           1.2698    4.6745   28.1665 C.3     1  UNL1        0.0460
     27 C          -2.8067    4.0069   20.7235 C.ar    1  UNL1        0.0264
     28 C          -4.0050    3.2150   20.2910 C.ar    1  UNL1        0.0293
     29 C          -4.9767    3.8006   19.3096 C.ar    1  UNL1        0.1422
     30 F          -6.1750    3.0086   18.8772 F       1  UNL1       -0.2041
     31 C          -4.7500    5.1780   18.7607 C.ar    1  UNL1        0.0592
     32 C          -3.5518    5.9698   19.1932 C.ar    1  UNL1        0.1422
     33 F          -3.3251    7.3473   18.6442 F       1  UNL1       -0.2041
     34 C          -2.5801    5.3844   20.1745 C.ar    1  UNL1        0.0293
     35 C          -3.5623    4.5998   25.0780 C.3     1  UNL1        0.1010
     36 C          -4.8284    3.8850   25.4469 C.3     1  UNL1        0.0536
     37 C          -6.1183    4.2479   24.7727 C.3     1  UNL1        0.1389
     38 O          -6.4292    3.7079   23.4082 O.3     1  UNL1       -0.3819
     39 H          -5.8015    4.0733   22.7652 H       1  UNL1        0.2104
@<TRIPOS>BOND
     1    25    26    1
     2    26    13    1
     3    13    14   ar
     4    14    15   ar
     5    15    16    1
     6    15    17   ar
     7    17    18   ar
     8    18    19    1
     9    18    20   ar
    10    20     1    1
    11     1     2   ar
    12     2     3   ar
    13     3     4   ar
    14     4     5   ar
    15     5     6   ar
    16     5     7    1
    17     7    35    1
    18    35    36    1
    19    36    37    1
    20    37    38    1
    21     7     8   am
    22     8     9    2
    23     8    10    1
    24    10    11    1
    25    10    27    1
    26    27    28   ar
    27    28    29   ar
    28    29    30    1
    29    29    31   ar
    30    31    32   ar
    31    32    33    1
    32    32    34   ar
    33    10    12    1
    34    20    13   ar
    35     6     1   ar
    36    34    27   ar
    37    12     4    1
    38    16    21    1
    39    16    22    1
    40    19    23    1
    41    19    24    1
    42    38    39    1
