@<TRIPOS>MOLECULE
*****
 33 37 0 0 0
SMALL
GASTEIGER

@<TRIPOS>ATOM
      1 N          -7.7190  -19.6530   21.4334 N.3     1  UNL1       -0.2679
      2 C          -8.5062  -19.2575   22.6475 C.3     1  UNL1        0.0978
      3 C          -9.4289  -20.2454   23.2976 C.3     1  UNL1        0.0224
      4 C         -10.2161  -19.8499   24.5117 C.3     1  UNL1        0.0065
      5 C         -10.0806  -18.4665   25.0756 C.3     1  UNL1        0.0277
      6 C          -9.1580  -17.4786   24.4254 C.ar    1  UNL1       -0.0073
      7 C          -9.0225  -16.0953   24.9892 C.ar    1  UNL1       -0.0015
      8 C          -8.0998  -15.1074   24.3390 C.ar    1  UNL1        0.0203
      9 C          -7.3127  -15.5028   23.1250 C.ar    1  UNL1        0.0985
     10 N          -7.4481  -16.8862   22.5611 N.ar    1  UNL1       -0.2471
     11 C          -8.3708  -17.8741   23.2113 C.ar    1  UNL1        0.0695
     12 C          -6.3716  -20.2937   21.5891 C.3     1  UNL1        0.0886
     13 C          -0.5185  -16.9768   20.1788 C.ar    1  UNL1        0.0204
     14 C          -0.8696  -17.8662   19.0231 C.ar    1  UNL1        0.0984
     15 N          -2.1104  -18.7074   19.0741 N.ar    1  UNL1       -0.2484
     16 C          -3.0002  -18.6593   20.2807 C.ar    1  UNL1        0.0577
     17 C          -2.6491  -17.7699   21.4364 C.ar    1  UNL1        0.0073
     18 C          -1.4082  -16.9287   21.3854 C.ar    1  UNL1       -0.0002
     19 C          -3.5389  -17.7218   22.6431 C.3     1  UNL1        0.0968
     20 N          -4.7797  -18.5630   22.6940 N.3     1  UNL1       -0.2934
     21 C          -5.1308  -19.4524   21.5382 C.3     1  UNL1        0.0764
     22 C          -4.2410  -19.5005   20.3316 C.3     1  UNL1        0.0626
     23 H          -5.5639  -17.9235   22.8222 H       1  UNL1        0.1236
     24 C          -8.2791  -19.4078   20.0637 C.3     1  UNL1        0.0738
     25 C          -9.7297  -19.6719   19.7883 C.3     1  UNL1        0.0347
     26 C         -10.6726  -18.5258   19.5701 C.3     1  UNL1        0.0736
     27 N         -11.3017  -17.8380   20.7453 N.3     1  UNL1       -0.2703
     28 C         -10.9368  -16.4192   21.0676 C.3     1  UNL1        0.0894
     29 C         -11.5660  -15.7315   22.2428 C.3     1  UNL1        0.0862
     30 N         -12.5599  -16.4626   23.0958 N.3     1  UNL1       -0.2951
     31 C         -12.9248  -17.8814   22.7736 C.3     1  UNL1        0.0862
     32 C         -12.2956  -18.5691   21.5983 C.3     1  UNL1        0.0894
     33 H         -13.4249  -15.9226   23.0684 H       1  UNL1        0.1233
@<TRIPOS>BOND
     1    13    14   ar
     2    14    15   ar
     3    15    16   ar
     4    16    17   ar
     5    17    18   ar
     6    17    19    1
     7    19    20    1
     8    20    21    1
     9    21    12    1
    10    12     1    1
    11     1    24    1
    12    24    25    1
    13    25    26    1
    14    26    27    1
    15    27    28    1
    16    28    29    1
    17    29    30    1
    18    30    31    1
    19    31    32    1
    20     2     1    1
    21     2     3    1
    22     3     4    1
    23     4     5    1
    24     5     6    1
    25     6     7   ar
    26     7     8   ar
    27     8     9   ar
    28     9    10   ar
    29    10    11   ar
    30    21    22    1
    31    18    13   ar
    32    32    27    1
    33    11     2    1
    34    22    16    1
    35    11     6   ar
    36    20    23    1
    37    30    33    1
@<TRIPOS>MOLECULE
*****
 33 37 0 0 0
SMALL
GASTEIGER

@<TRIPOS>ATOM
      1 N          -7.6967  -19.3246   20.6971 N.3     1  UNL1       -0.2679
      2 C          -8.0985  -18.3241   21.7399 C.3     1  UNL1        0.0978
      3 C          -7.7776  -16.8714   21.5485 C.3     1  UNL1        0.0224
      4 C          -8.1794  -15.8708   22.5914 C.3     1  UNL1        0.0065
      5 C          -8.9022  -16.3230   23.8255 C.3     1  UNL1        0.0277
      6 C          -9.2231  -17.7757   24.0169 C.ar    1  UNL1       -0.0073
      7 C          -9.9458  -18.2279   25.2510 C.ar    1  UNL1       -0.0015
      8 C         -10.2668  -19.6806   25.4424 C.ar    1  UNL1        0.0203
      9 C          -9.8649  -20.6811   24.3996 C.ar    1  UNL1        0.0985
     10 N          -9.1422  -20.2290   23.1655 N.ar    1  UNL1       -0.2471
     11 C          -8.8213  -18.7763   22.9741 C.ar    1  UNL1        0.0695
     12 C          -6.4317  -20.1137   20.8627 C.3     1  UNL1        0.0886
     13 C          -0.2501  -17.1833   20.1917 C.ar    1  UNL1        0.0204
     14 C          -0.6451  -17.8014   18.8833 C.ar    1  UNL1        0.0984
     15 N          -1.9604  -18.5111   18.7559 N.ar    1  UNL1       -0.2484
     16 C          -2.8807  -18.6027   19.9368 C.ar    1  UNL1        0.0577
     17 C          -2.4857  -17.9846   21.2451 C.ar    1  UNL1        0.0073
     18 C          -1.1704  -17.2749   21.3726 C.ar    1  UNL1       -0.0002
     19 C          -3.4061  -18.0761   22.4261 C.3     1  UNL1        0.0968
     20 N          -4.7214  -18.7858   22.2987 N.3     1  UNL1       -0.2934
     21 C          -5.1164  -19.4040   20.9902 C.3     1  UNL1        0.0764
     22 C          -4.1960  -19.3124   19.8093 C.3     1  UNL1        0.0626
     23 H          -5.4459  -18.1077   22.5346 H       1  UNL1        0.1236
     24 C          -8.5598  -19.5362   19.4887 C.3     1  UNL1        0.0738
     25 C         -10.0521  -19.5852   19.6321 C.3     1  UNL1        0.0347
     26 C         -10.8532  -18.3184   19.5729 C.3     1  UNL1        0.0736
     27 N         -11.5212  -17.7949   20.8097 N.3     1  UNL1       -0.2703
     28 C         -11.5578  -16.3190   21.0749 C.3     1  UNL1        0.0894
     29 C         -12.2258  -15.7956   22.3117 C.3     1  UNL1        0.0862
     30 N         -12.8572  -16.7481   23.2834 N.3     1  UNL1       -0.2951
     31 C         -12.8206  -18.2240   23.0182 C.3     1  UNL1        0.0862
     32 C         -12.1526  -18.7474   21.7814 C.3     1  UNL1        0.0894
     33 H         -13.8403  -16.4862   23.3558 H       1  UNL1        0.1233
@<TRIPOS>BOND
     1    13    14   ar
     2    14    15   ar
     3    15    16   ar
     4    16    17   ar
     5    17    18   ar
     6    17    19    1
     7    19    20    1
     8    20    21    1
     9    21    12    1
    10    12     1    1
    11     1    24    1
    12    24    25    1
    13    25    26    1
    14    26    27    1
    15    27    28    1
    16    28    29    1
    17    29    30    1
    18    30    31    1
    19    31    32    1
    20     2     1    1
    21     2     3    1
    22     3     4    1
    23     4     5    1
    24     5     6    1
    25     6     7   ar
    26     7     8   ar
    27     8     9   ar
    28     9    10   ar
    29    10    11   ar
    30    21    22    1
    31    18    13   ar
    32    32    27    1
    33    11     2    1
    34    22    16    1
    35    11     6   ar
    36    20    23    1
    37    30    33    1
@<TRIPOS>MOLECULE
*****
 33 37 0 0 0
SMALL
GASTEIGER

@<TRIPOS>ATOM
      1 N          -7.6648  -18.8146   21.9930 N.3     1  UNL1       -0.2679
      2 C          -8.9248  -18.9276   21.1870 C.3     1  UNL1        0.0978
      3 C          -8.8665  -19.4090   19.7676 C.3     1  UNL1        0.0224
      4 C         -10.1266  -19.5220   18.9616 C.3     1  UNL1        0.0065
      5 C         -11.4448  -19.1536   19.5751 C.3     1  UNL1        0.0277
      6 C         -11.5031  -18.6721   20.9946 C.ar    1  UNL1       -0.0073
      7 C         -12.8214  -18.3037   21.6080 C.ar    1  UNL1       -0.0015
      8 C         -12.8796  -17.8222   23.0275 C.ar    1  UNL1        0.0203
      9 C         -11.6196  -17.7092   23.8334 C.ar    1  UNL1        0.0985
     10 N         -10.3014  -18.0776   23.2199 N.ar    1  UNL1       -0.2471
     11 C         -10.2431  -18.5591   21.8005 C.ar    1  UNL1        0.0695
     12 C          -6.6154  -19.8823   21.8981 C.3     1  UNL1        0.0886
     13 C          -0.5252  -17.8853   19.4137 C.ar    1  UNL1        0.0204
     14 C          -1.5623  -17.7503   18.3385 C.ar    1  UNL1        0.0984
     15 N          -2.9878  -18.1226   18.6203 N.ar    1  UNL1       -0.2484
     16 C          -3.3761  -18.6301   19.9774 C.ar    1  UNL1        0.0577
     17 C          -2.3391  -18.7651   21.0526 C.ar    1  UNL1        0.0073
     18 C          -0.9136  -18.3928   20.7708 C.ar    1  UNL1       -0.0002
     19 C          -2.7274  -19.2726   22.4097 C.3     1  UNL1        0.0968
     20 N          -4.1528  -19.6450   22.6915 N.3     1  UNL1       -0.2934
     21 C          -5.1900  -19.5099   21.6162 C.3     1  UNL1        0.0764
     22 C          -4.8016  -19.0024   20.2592 C.3     1  UNL1        0.0626
     23 H          -4.4602  -19.0642   23.4717 H       1  UNL1        0.1236
     24 C          -7.4541  -17.6339   22.8939 C.3     1  UNL1        0.0738
     25 C          -7.5628  -16.2424   22.3445 C.3     1  UNL1        0.0347
     26 C          -7.7810  -15.0845   23.2727 C.3     1  UNL1        0.0736
     27 N          -7.4510  -15.2188   24.7298 N.3     1  UNL1       -0.2703
     28 C          -8.5507  -15.3905   25.7352 C.3     1  UNL1        0.0894
     29 C          -8.2206  -15.5248   27.1923 C.3     1  UNL1        0.0862
     30 N          -6.7907  -15.4873   27.6439 N.3     1  UNL1       -0.2951
     31 C          -5.6909  -15.3156   26.6384 C.3     1  UNL1        0.0862
     32 C          -6.0210  -15.1813   25.1814 C.3     1  UNL1        0.0894
     33 H          -6.6119  -16.3668   28.1285 H       1  UNL1        0.1233
@<TRIPOS>BOND
     1    13    14   ar
     2    14    15   ar
     3    15    16   ar
     4    16    17   ar
     5    17    18   ar
     6    17    19    1
     7    19    20    1
     8    20    21    1
     9    21    12    1
    10    12     1    1
    11     1    24    1
    12    24    25    1
    13    25    26    1
    14    26    27    1
    15    27    28    1
    16    28    29    1
    17    29    30    1
    18    30    31    1
    19    31    32    1
    20     2     1    1
    21     2     3    1
    22     3     4    1
    23     4     5    1
    24     5     6    1
    25     6     7   ar
    26     7     8   ar
    27     8     9   ar
    28     9    10   ar
    29    10    11   ar
    30    21    22    1
    31    18    13   ar
    32    32    27    1
    33    11     2    1
    34    22    16    1
    35    11     6   ar
    36    20    23    1
    37    30    33    1
@<TRIPOS>MOLECULE
*****
 33 37 0 0 0
SMALL
GASTEIGER

@<TRIPOS>ATOM
      1 N          -6.0443  -19.5303   21.5291 N.3     1  UNL1       -0.2679
      2 C          -5.3663  -18.6004   22.4910 C.3     1  UNL1        0.0978
      3 C          -4.0071  -18.9377   23.0285 C.3     1  UNL1        0.0224
      4 C          -3.3290  -18.0076   23.9905 C.3     1  UNL1        0.0065
      5 C          -4.0101  -16.7403   24.4149 C.3     1  UNL1        0.0277
      6 C          -5.3693  -16.4030   23.8773 C.ar    1  UNL1       -0.0073
      7 C          -6.0503  -15.1358   24.3016 C.ar    1  UNL1       -0.0015
      8 C          -7.4095  -14.7985   23.7641 C.ar    1  UNL1        0.0203
      9 C          -8.0875  -15.7285   22.8022 C.ar    1  UNL1        0.0985
     10 N          -7.4065  -16.9957   22.3778 N.ar    1  UNL1       -0.2471
     11 C          -6.0473  -17.3330   22.9154 C.ar    1  UNL1        0.0695
     12 C          -7.2339  -20.3301   21.9713 C.3     1  UNL1        0.0886
     13 C         -13.4724  -17.8374   23.4260 C.ar    1  UNL1        0.0204
     14 C         -12.9279  -18.5351   24.6370 C.ar    1  UNL1        0.0984
     15 N         -11.5712  -19.1732   24.5882 N.ar    1  UNL1       -0.2484
     16 C         -10.7592  -19.1136   23.3285 C.ar    1  UNL1        0.0577
     17 C         -11.3038  -18.4158   22.1175 C.ar    1  UNL1        0.0073
     18 C         -12.6604  -17.7777   22.1663 C.ar    1  UNL1       -0.0002
     19 C         -10.4917  -18.3561   20.8577 C.3     1  UNL1        0.0968
     20 N          -9.1351  -18.9942   20.8090 N.3     1  UNL1       -0.2934
     21 C          -8.5905  -19.6920   22.0200 C.3     1  UNL1        0.0764
     22 C          -9.4025  -19.7517   23.2798 C.3     1  UNL1        0.0626
     23 H          -8.4714  -18.2573   20.5704 H       1  UNL1        0.1236
     24 C          -5.5329  -19.6606   20.1250 C.3     1  UNL1        0.0738
     25 C          -4.1102  -20.0676   19.8797 C.3     1  UNL1        0.0347
     26 C          -3.2251  -19.2178   19.0170 C.3     1  UNL1        0.0736
     27 N          -2.2533  -18.2652   19.6482 N.3     1  UNL1       -0.2703
     28 C          -2.7535  -17.1503   20.5181 C.3     1  UNL1        0.0894
     29 C          -1.7817  -16.1979   21.1493 C.3     1  UNL1        0.0862
     30 N          -0.3098  -16.3604   20.9107 N.3     1  UNL1       -0.2951
     31 C           0.1904  -17.4753   20.0408 C.3     1  UNL1        0.0862
     32 C          -0.7814  -18.4278   19.4096 C.3     1  UNL1        0.0894
     33 H           0.1251  -16.4827   21.8252 H       1  UNL1        0.1233
@<TRIPOS>BOND
     1    13    14   ar
     2    14    15   ar
     3    15    16   ar
     4    16    17   ar
     5    17    18   ar
     6    17    19    1
     7    19    20    1
     8    20    21    1
     9    21    12    1
    10    12     1    1
    11     1    24    1
    12    24    25    1
    13    25    26    1
    14    26    27    1
    15    27    28    1
    16    28    29    1
    17    29    30    1
    18    30    31    1
    19    31    32    1
    20     2     1    1
    21     2     3    1
    22     3     4    1
    23     4     5    1
    24     5     6    1
    25     6     7   ar
    26     7     8   ar
    27     8     9   ar
    28     9    10   ar
    29    10    11   ar
    30    21    22    1
    31    18    13   ar
    32    32    27    1
    33    11     2    1
    34    22    16    1
    35    11     6   ar
    36    20    23    1
    37    30    33    1
@<TRIPOS>MOLECULE
*****
 33 37 0 0 0
SMALL
GASTEIGER

@<TRIPOS>ATOM
      1 N          -8.1086  -18.5626   21.9758 N.3     1  UNL1       -0.2679
      2 C          -9.2966  -18.8315   22.8512 C.3     1  UNL1        0.0978
      3 C          -9.1370  -19.6402   24.1044 C.3     1  UNL1        0.0224
      4 C         -10.3250  -19.9092   24.9799 C.3     1  UNL1        0.0065
      5 C         -11.6726  -19.3695   24.6021 C.3     1  UNL1        0.0277
      6 C         -11.8322  -18.5608   23.3488 C.ar    1  UNL1       -0.0073
      7 C         -13.1797  -18.0210   22.9710 C.ar    1  UNL1       -0.0015
      8 C         -13.3393  -17.2124   21.7178 C.ar    1  UNL1        0.0203
      9 C         -12.1514  -16.9434   20.8424 C.ar    1  UNL1        0.0985
     10 N         -10.8038  -17.4831   21.2202 N.ar    1  UNL1       -0.2471
     11 C         -10.6442  -18.2918   22.4734 C.ar    1  UNL1        0.0695
     12 C          -7.1504  -19.6699   21.6508 C.3     1  UNL1        0.0886
     13 C          -0.7282  -18.0905   19.7772 C.ar    1  UNL1        0.0204
     14 C          -1.6310  -17.9702   18.5854 C.ar    1  UNL1        0.0984
     15 N          -3.0960  -18.2621   18.7218 N.ar    1  UNL1       -0.2484
     16 C          -3.6582  -18.6742   20.0499 C.ar    1  UNL1        0.0577
     17 C          -2.7554  -18.7944   21.2417 C.ar    1  UNL1        0.0073
     18 C          -1.2904  -18.5025   21.1054 C.ar    1  UNL1       -0.0002
     19 C          -3.3176  -19.2065   22.5700 C.3     1  UNL1        0.0968
     20 N          -4.7826  -19.4983   22.7064 N.3     1  UNL1       -0.2934
     21 C          -5.6854  -19.3781   21.5145 C.3     1  UNL1        0.0764
     22 C          -5.1232  -18.9660   20.1863 C.3     1  UNL1        0.0626
     23 H          -5.1449  -18.8612   23.4157 H       1  UNL1        0.1236
     24 C          -7.8789  -17.1863   21.4253 C.3     1  UNL1        0.0738
     25 C          -8.0400  -15.9873   22.3121 C.3     1  UNL1        0.0347
     26 C          -6.9337  -15.5893   23.2436 C.3     1  UNL1        0.0736
     27 N          -7.1226  -15.7092   24.7269 N.3     1  UNL1       -0.2703
     28 C          -6.0337  -15.2683   25.6596 C.3     1  UNL1        0.0894
     29 C          -6.2226  -15.3882   27.1428 C.3     1  UNL1        0.0862
     30 N          -7.5004  -15.9490   27.6932 N.3     1  UNL1       -0.2951
     31 C          -8.5892  -16.3898   26.7605 C.3     1  UNL1        0.0862
     32 C          -8.4003  -16.2699   25.2773 C.3     1  UNL1        0.0894
     33 H          -7.9018  -15.2305   28.2957 H       1  UNL1        0.1233
@<TRIPOS>BOND
     1    13    14   ar
     2    14    15   ar
     3    15    16   ar
     4    16    17   ar
     5    17    18   ar
     6    17    19    1
     7    19    20    1
     8    20    21    1
     9    21    12    1
    10    12     1    1
    11     1    24    1
    12    24    25    1
    13    25    26    1
    14    26    27    1
    15    27    28    1
    16    28    29    1
    17    29    30    1
    18    30    31    1
    19    31    32    1
    20     2     1    1
    21     2     3    1
    22     3     4    1
    23     4     5    1
    24     5     6    1
    25     6     7   ar
    26     7     8   ar
    27     8     9   ar
    28     9    10   ar
    29    10    11   ar
    30    21    22    1
    31    18    13   ar
    32    32    27    1
    33    11     2    1
    34    22    16    1
    35    11     6   ar
    36    20    23    1
    37    30    33    1
