@<TRIPOS>MOLECULE
*****
 22 25 0 0 0
SMALL
GASTEIGER

@<TRIPOS>ATOM
      1 C         -10.4574  -18.2938   21.6730 C.3     1  UNL1        0.0594
      2 C          -9.9960  -17.1061   22.4644 C.3     1  UNL1        0.0749
      3 N         -10.9813  -16.0558   22.8841 N.3     1  UNL1       -0.2971
      4 C         -12.4280  -16.1933   22.5122 C.3     1  UNL1        0.0689
      5 C         -12.8893  -17.3811   21.7208 C.3     1  UNL1        0.0216
      6 C         -11.9040  -18.4313   21.3012 C.3     1  UNL1        0.0273
      7 C         -10.9187  -19.4816   20.8816 C.3     1  UNL1        0.0122
      8 H         -10.6579  -15.1735   22.4875 H       1  UNL1        0.1233
      9 C         -10.8025  -17.6662   21.9728 C.ar    1  UNL1       -0.0214
     10 C         -10.0061  -16.6602   21.1956 C.ar    1  UNL1       -0.0034
     11 C          -8.9045  -15.8951   21.8672 C.ar    1  UNL1        0.0119
     12 C          -8.5993  -16.1358   23.3160 C.ar    1  UNL1        0.0682
     13 CL         -7.4976  -15.3706   23.9876 Cl      1  UNL1       -0.0814
     14 C          -9.3956  -17.1417   24.0931 C.ar    1  UNL1        0.0679
     15 CL         -9.0903  -17.3824   25.5419 Cl      1  UNL1       -0.0814
     16 C         -10.4972  -17.9069   23.4216 C.ar    1  UNL1        0.0080
     17 C          -5.4634  -19.2058   20.2205 C.3     1  UNL1        0.0527
     18 C          -6.7578  -19.2400   20.9778 C.ar    1  UNL1        0.0660
     19 C          -7.0273  -20.0236   22.2281 C.ar    1  UNL1        0.0512
     20 S          -8.4460  -19.7645   22.6408 S.2     1  UNL1       -0.0706
     21 C          -9.0533  -18.8208   21.6454 C.ar    1  UNL1        0.0887
     22 N          -8.0099  -18.4967   20.6176 N.ar    1  UNL1       -0.2470
@<TRIPOS>BOND
     1    17    18    1
     2    18    19   ar
     3    19    20   ar
     4    20    21   ar
     5    21     1    1
     6     1     2    1
     7     2     3    1
     8     3     4    1
     9     4     5    1
    10     5     6    1
    11     6     9    1
    12     9    10   ar
    13    10    11   ar
    14    11    12   ar
    15    12    13    1
    16    12    14   ar
    17    14    15    1
    18    14    16   ar
    19     6     7    1
    20    21    22   ar
    21    22    18   ar
    22     6     1    1
    23    16     9   ar
    24     7     1    1
    25     3     8    1
@<TRIPOS>MOLECULE
*****
 22 25 0 0 0
SMALL
GASTEIGER

@<TRIPOS>ATOM
      1 C         -10.5097  -17.1538   22.0315 C.3     1  UNL1        0.0594
      2 C         -10.7735  -18.2943   22.9693 C.3     1  UNL1        0.0749
      3 N         -12.1377  -18.4742   23.5664 N.3     1  UNL1       -0.2971
      4 C         -13.2382  -17.5136   23.2255 C.3     1  UNL1        0.0689
      5 C         -12.9744  -16.3731   22.2876 C.3     1  UNL1        0.0216
      6 C         -11.6102  -16.1932   21.6906 C.3     1  UNL1        0.0273
      7 C         -10.2459  -16.0133   21.0936 C.3     1  UNL1        0.0122
      8 H         -12.0224  -18.4424   24.5793 H       1  UNL1        0.1233
      9 C         -11.1272  -17.4063   22.4289 C.ar    1  UNL1       -0.0214
     10 C         -11.2207  -18.7600   21.7896 C.ar    1  UNL1       -0.0034
     11 C         -10.7377  -19.9731   22.5278 C.ar    1  UNL1        0.0119
     12 C         -10.1611  -19.8325   23.9054 C.ar    1  UNL1        0.0682
     13 CL         -9.6781  -21.0457   24.6437 Cl      1  UNL1       -0.0814
     14 C         -10.0676  -18.4789   24.5448 C.ar    1  UNL1        0.0679
     15 CL         -9.4910  -18.3383   25.9224 Cl      1  UNL1       -0.0814
     16 C         -10.5506  -17.2657   23.8065 C.ar    1  UNL1        0.0080
     17 C          -6.1798  -19.6252   20.2923 C.3     1  UNL1        0.0527
     18 C          -7.0964  -18.7405   21.0841 C.ar    1  UNL1        0.0660
     19 C          -6.6973  -17.8558   22.2278 C.ar    1  UNL1        0.0512
     20 S          -7.9274  -17.1537   22.7219 S.2     1  UNL1       -0.0706
     21 C          -9.0867  -17.6045   21.8836 C.ar    1  UNL1        0.0887
     22 N          -8.5732  -18.5853   20.8714 N.ar    1  UNL1       -0.2470
@<TRIPOS>BOND
     1    17    18    1
     2    18    19   ar
     3    19    20   ar
     4    20    21   ar
     5    21     1    1
     6     1     2    1
     7     2     3    1
     8     3     4    1
     9     4     5    1
    10     5     6    1
    11     6     9    1
    12     9    10   ar
    13    10    11   ar
    14    11    12   ar
    15    12    13    1
    16    12    14   ar
    17    14    15    1
    18    14    16   ar
    19     6     7    1
    20    21    22   ar
    21    22    18   ar
    22     6     1    1
    23    16     9   ar
    24     7     1    1
    25     3     8    1
@<TRIPOS>MOLECULE
*****
 22 25 0 0 0
SMALL
GASTEIGER

@<TRIPOS>ATOM
      1 C         -10.6542  -18.4034   23.5628 C.3     1  UNL1        0.0594
      2 C         -11.2887  -17.6414   22.4374 C.3     1  UNL1        0.0749
      3 N         -12.7707  -17.4104   22.4298 N.3     1  UNL1       -0.2971
      4 C         -13.6183  -17.9416   23.5476 C.3     1  UNL1        0.0689
      5 C         -12.9838  -18.7037   24.6730 C.3     1  UNL1        0.0216
      6 C         -11.5017  -18.9346   24.6806 C.3     1  UNL1        0.0273
      7 C         -10.0196  -19.1656   24.6883 C.3     1  UNL1        0.0122
      8 H         -13.1285  -17.8221   21.5679 H       1  UNL1        0.1233
      9 C         -11.3787  -18.1879   23.3855 C.ar    1  UNL1       -0.0214
     10 C         -11.2458  -16.6938   23.3909 C.ar    1  UNL1       -0.0034
     11 C         -11.1228  -15.9472   22.0958 C.ar    1  UNL1        0.0119
     12 C         -11.1328  -16.6946   20.7953 C.ar    1  UNL1        0.0682
     13 CL        -11.0098  -15.9478   19.5001 Cl      1  UNL1       -0.0814
     14 C         -11.2658  -18.1886   20.7899 C.ar    1  UNL1        0.0679
     15 CL        -11.2758  -18.9360   19.4894 Cl      1  UNL1       -0.0814
     16 C         -11.3888  -18.9354   22.0850 C.ar    1  UNL1        0.0080
     17 C          -6.4347  -19.1218   20.4707 C.3     1  UNL1        0.0527
     18 C          -7.3696  -18.5603   21.5006 C.ar    1  UNL1        0.0660
     19 C          -7.1089  -17.3664   22.3704 C.ar    1  UNL1        0.0512
     20 S          -8.3076  -17.1623   23.2489 S.2     1  UNL1       -0.0706
     21 C          -9.3091  -18.2301   22.9219 C.ar    1  UNL1        0.0887
     22 N          -8.7294  -19.0941   21.8414 N.ar    1  UNL1       -0.2470
@<TRIPOS>BOND
     1    17    18    1
     2    18    19   ar
     3    19    20   ar
     4    20    21   ar
     5    21     1    1
     6     1     2    1
     7     2     3    1
     8     3     4    1
     9     4     5    1
    10     5     6    1
    11     6     9    1
    12     9    10   ar
    13    10    11   ar
    14    11    12   ar
    15    12    13    1
    16    12    14   ar
    17    14    15    1
    18    14    16   ar
    19     6     7    1
    20    21    22   ar
    21    22    18   ar
    22     6     1    1
    23    16     9   ar
    24     7     1    1
    25     3     8    1
@<TRIPOS>MOLECULE
*****
 22 25 0 0 0
SMALL
GASTEIGER

@<TRIPOS>ATOM
      1 C          -9.9572  -18.5541   21.1823 C.3     1  UNL1        0.0594
      2 C          -9.1845  -18.4195   22.4609 C.3     1  UNL1        0.0749
      3 N          -7.7477  -18.8465   22.5173 N.3     1  UNL1       -0.2971
      4 C          -7.0836  -19.4081   21.2951 C.3     1  UNL1        0.0689
      5 C          -7.8563  -19.5426   20.0166 C.3     1  UNL1        0.0216
      6 C          -9.2931  -19.1157   19.9602 C.3     1  UNL1        0.0273
      7 C         -10.7300  -18.6887   19.9037 C.3     1  UNL1        0.0122
      8 H          -7.6809  -19.5602   23.2429 H       1  UNL1        0.1233
      9 C          -9.2304  -18.7138   21.4039 C.ar    1  UNL1       -0.0214
     10 C          -8.8133  -17.3222   21.7777 C.ar    1  UNL1       -0.0034
     11 C          -8.7506  -16.9203   23.2214 C.ar    1  UNL1        0.0119
     12 C          -9.1049  -17.9099   24.2915 C.ar    1  UNL1        0.0682
     13 CL         -9.0421  -17.5079   25.7353 Cl      1  UNL1       -0.0814
     14 C          -9.5219  -19.3014   23.9178 C.ar    1  UNL1        0.0679
     15 CL         -9.8762  -20.2911   24.9879 Cl      1  UNL1       -0.0814
     16 C          -9.5847  -19.7034   22.4740 C.ar    1  UNL1        0.0080
     17 C         -14.2739  -18.0702   24.1845 C.3     1  UNL1        0.0527
     18 C         -13.1544  -17.7610   23.2353 C.ar    1  UNL1        0.0660
     19 C         -12.9193  -16.4493   22.5467 C.ar    1  UNL1        0.0512
     20 S         -11.6930  -16.5867   21.6938 S.2     1  UNL1       -0.0706
     21 C         -11.1702  -17.9834   21.8553 C.ar    1  UNL1        0.0887
     22 N         -12.0734  -18.7091   22.8080 N.ar    1  UNL1       -0.2470
@<TRIPOS>BOND
     1    17    18    1
     2    18    19   ar
     3    19    20   ar
     4    20    21   ar
     5    21     1    1
     6     1     2    1
     7     2     3    1
     8     3     4    1
     9     4     5    1
    10     5     6    1
    11     6     9    1
    12     9    10   ar
    13    10    11   ar
    14    11    12   ar
    15    12    13    1
    16    12    14   ar
    17    14    15    1
    18    14    16   ar
    19     6     7    1
    20    21    22   ar
    21    22    18   ar
    22     6     1    1
    23    16     9   ar
    24     7     1    1
    25     3     8    1
@<TRIPOS>MOLECULE
*****
 22 25 0 0 0
SMALL
GASTEIGER

@<TRIPOS>ATOM
      1 C          -8.8992  -18.3566   21.7678 C.3     1  UNL1        0.0594
      2 C         -10.3847  -18.5199   21.8967 C.3     1  UNL1        0.0749
      3 N         -11.1505  -19.2708   20.8481 N.3     1  UNL1       -0.2971
      4 C         -10.4308  -19.8585   19.6705 C.3     1  UNL1        0.0689
      5 C          -8.9453  -19.6952   19.5416 C.3     1  UNL1        0.0216
      6 C          -8.1796  -18.9443   20.5902 C.3     1  UNL1        0.0273
      7 C          -7.4137  -18.1934   21.6389 C.3     1  UNL1        0.0122
      8 H         -11.8483  -18.6269   20.4754 H       1  UNL1        0.1233
      9 C          -9.4527  -18.6993   21.3445 C.ar    1  UNL1       -0.0214
     10 C          -9.9158  -19.6861   22.3750 C.ar    1  UNL1       -0.0034
     11 C         -11.1889  -19.4411   23.1292 C.ar    1  UNL1        0.0119
     12 C         -11.9991  -18.2093   22.8531 C.ar    1  UNL1        0.0682
     13 CL        -13.2723  -17.9643   23.6075 Cl      1  UNL1       -0.0814
     14 C         -11.5361  -17.2225   21.8227 C.ar    1  UNL1        0.0679
     15 CL        -12.3462  -15.9906   21.5466 Cl      1  UNL1       -0.0814
     16 C         -10.2629  -17.4675   21.0684 C.ar    1  UNL1        0.0080
     17 C          -8.9371  -17.1621   26.9110 C.3     1  UNL1        0.0527
     18 C          -8.8900  -17.0347   25.4172 C.ar    1  UNL1        0.0660
     19 C          -8.7732  -15.7542   24.6448 C.ar    1  UNL1        0.0512
     20 S          -8.7625  -16.0935   23.1837 S.2     1  UNL1       -0.0706
     21 C          -8.8726  -17.5838   23.0530 C.ar    1  UNL1        0.0887
     22 N          -8.9514  -18.1655   24.4334 N.ar    1  UNL1       -0.2470
@<TRIPOS>BOND
     1    17    18    1
     2    18    19   ar
     3    19    20   ar
     4    20    21   ar
     5    21     1    1
     6     1     2    1
     7     2     3    1
     8     3     4    1
     9     4     5    1
    10     5     6    1
    11     6     9    1
    12     9    10   ar
    13    10    11   ar
    14    11    12   ar
    15    12    13    1
    16    12    14   ar
    17    14    15    1
    18    14    16   ar
    19     6     7    1
    20    21    22   ar
    21    22    18   ar
    22     6     1    1
    23    16     9   ar
    24     7     1    1
    25     3     8    1
@<TRIPOS>MOLECULE
*****
 22 25 0 0 0
SMALL
GASTEIGER

@<TRIPOS>ATOM
      1 C          -9.9147  -16.5866   22.0296 C.3     1  UNL1        0.0594
      2 C         -10.2338  -17.9396   22.5931 C.3     1  UNL1        0.0749
      3 N         -11.1751  -18.8524   21.8645 N.3     1  UNL1       -0.2971
      4 C         -11.7972  -18.4122   20.5726 C.3     1  UNL1        0.0689
      5 C         -11.4780  -17.0592   20.0091 C.3     1  UNL1        0.0216
      6 C         -10.5368  -16.1464   20.7377 C.3     1  UNL1        0.0273
      7 C          -9.5954  -15.2335   21.4662 C.3     1  UNL1        0.0122
      8 H         -11.9415  -19.0575   22.5055 H       1  UNL1        0.1233
      9 C         -10.3619  -17.1817   21.8088 C.ar    1  UNL1       -0.0214
     10 C         -11.3117  -17.2286   22.9689 C.ar    1  UNL1       -0.0034
     11 C         -11.1369  -18.2639   24.0401 C.ar    1  UNL1        0.0119
     12 C         -10.0121  -19.2524   23.9513 C.ar    1  UNL1        0.0682
     13 CL         -9.8373  -20.2877   25.0226 Cl      1  UNL1       -0.0814
     14 C          -9.0623  -19.2056   22.7913 C.ar    1  UNL1        0.0679
     15 CL         -7.9376  -20.1941   22.7026 Cl      1  UNL1       -0.0814
     16 C          -9.2372  -18.1702   21.7201 C.ar    1  UNL1        0.0080
     17 C          -8.1957  -15.4202   26.8841 C.3     1  UNL1        0.0527
     18 C          -8.2219  -15.7776   25.4276 C.ar    1  UNL1        0.0660
     19 C          -7.0241  -16.0100   24.5551 C.ar    1  UNL1        0.0512
     20 S          -7.5124  -16.3414   23.1760 S.2     1  UNL1       -0.0706
     21 C          -9.0120  -16.3137   23.1961 C.ar    1  UNL1        0.0887
     22 N          -9.4505  -15.9653   24.5877 N.ar    1  UNL1       -0.2470
@<TRIPOS>BOND
     1    17    18    1
     2    18    19   ar
     3    19    20   ar
     4    20    21   ar
     5    21     1    1
     6     1     2    1
     7     2     3    1
     8     3     4    1
     9     4     5    1
    10     5     6    1
    11     6     9    1
    12     9    10   ar
    13    10    11   ar
    14    11    12   ar
    15    12    13    1
    16    12    14   ar
    17    14    15    1
    18    14    16   ar
    19     6     7    1
    20    21    22   ar
    21    22    18   ar
    22     6     1    1
    23    16     9   ar
    24     7     1    1
    25     3     8    1
@<TRIPOS>MOLECULE
*****
 22 25 0 0 0
SMALL
GASTEIGER

@<TRIPOS>ATOM
      1 C         -10.4816  -17.0747   22.6409 C.3     1  UNL1        0.0594
      2 C          -9.7831  -18.3425   22.2474 C.3     1  UNL1        0.0749
      3 N         -10.4707  -19.3309   21.3527 N.3     1  UNL1       -0.2971
      4 C         -11.8566  -19.0515   20.8516 C.3     1  UNL1        0.0689
      5 C         -12.5550  -17.7837   21.2451 C.3     1  UNL1        0.0216
      6 C         -11.8675  -16.7953   22.1397 C.3     1  UNL1        0.0273
      7 C         -11.1800  -15.8069   23.0344 C.3     1  UNL1        0.0122
      8 H         -10.5150  -20.2113   21.8658 H       1  UNL1        0.1233
      9 C         -10.6641  -17.6886   22.2019 C.ar    1  UNL1       -0.0214
     10 C          -9.5420  -17.5044   21.2236 C.ar    1  UNL1       -0.0034
     11 C          -8.3386  -18.3977   21.2857 C.ar    1  UNL1        0.0119
     12 C          -8.2573  -19.4752   22.3261 C.ar    1  UNL1        0.0682
     13 CL         -7.0539  -20.3686   22.3882 Cl      1  UNL1       -0.0814
     14 C          -9.3794  -19.6595   23.3043 C.ar    1  UNL1        0.0679
     15 CL         -9.2981  -20.7370   24.3447 Cl      1  UNL1       -0.0814
     16 C         -10.5828  -18.7661   23.2422 C.ar    1  UNL1        0.0080
     17 C          -5.6959  -15.2815   23.9684 C.3     1  UNL1        0.0527
     18 C          -7.0847  -15.8411   24.0570 C.ar    1  UNL1        0.0660
     19 C          -7.7999  -16.2299   25.3169 C.ar    1  UNL1        0.0512
     20 S          -9.1595  -16.7393   24.9398 S.2     1  UNL1       -0.0706
     21 C          -9.2845  -16.6654   23.4467 C.ar    1  UNL1        0.0887
     22 N          -8.0022  -16.1103   22.9012 N.ar    1  UNL1       -0.2470
@<TRIPOS>BOND
     1    17    18    1
     2    18    19   ar
     3    19    20   ar
     4    20    21   ar
     5    21     1    1
     6     1     2    1
     7     2     3    1
     8     3     4    1
     9     4     5    1
    10     5     6    1
    11     6     9    1
    12     9    10   ar
    13    10    11   ar
    14    11    12   ar
    15    12    13    1
    16    12    14   ar
    17    14    15    1
    18    14    16   ar
    19     6     7    1
    20    21    22   ar
    21    22    18   ar
    22     6     1    1
    23    16     9   ar
    24     7     1    1
    25     3     8    1
@<TRIPOS>MOLECULE
*****
 22 25 0 0 0
SMALL
GASTEIGER

@<TRIPOS>ATOM
      1 C         -10.8141   -5.4849   18.5112 C.3     1  UNL1        0.0594
      2 C         -11.8402   -6.3003   17.7818 C.3     1  UNL1        0.0749
      3 N         -11.5819   -7.7502   17.4971 N.3     1  UNL1       -0.2971
      4 C         -10.2975   -8.3846   17.9418 C.3     1  UNL1        0.0689
      5 C          -9.2714   -7.5692   18.6712 C.3     1  UNL1        0.0216
      6 C          -9.5297   -6.1193   18.9559 C.3     1  UNL1        0.0273
      7 C          -9.7880   -4.6694   19.2407 C.3     1  UNL1        0.0122
      8 H         -11.6320   -7.8649   16.4848 H       1  UNL1        0.1233
      9 C         -10.8637   -6.2239   18.2780 C.ar    1  UNL1       -0.0214
     10 C         -10.9759   -5.9819   16.8019 C.ar    1  UNL1       -0.0034
     11 C         -12.3099   -6.0864   16.1241 C.ar    1  UNL1        0.0119
     12 C         -13.5317   -6.4329   16.9222 C.ar    1  UNL1        0.0682
     13 CL        -14.8657   -6.5375   16.2443 Cl      1  UNL1       -0.0814
     14 C         -13.4195   -6.6750   18.3983 C.ar    1  UNL1        0.0679
     15 CL        -14.6413   -7.0215   19.1965 Cl      1  UNL1       -0.0814
     16 C         -12.0855   -6.5704   19.0762 C.ar    1  UNL1        0.0080
     17 C         -14.6136   -1.9600   19.5212 C.3     1  UNL1        0.0527
     18 C         -13.4512   -2.6612   18.8831 C.ar    1  UNL1        0.0660
     19 C         -12.6997   -2.1980   17.6705 C.ar    1  UNL1        0.0512
     20 S         -11.6203   -3.1994   17.3836 S.2     1  UNL1       -0.0706
     21 C         -11.7048   -4.2815   18.4189 C.ar    1  UNL1        0.0887
     22 N         -12.8364   -3.9490   19.3457 N.ar    1  UNL1       -0.2470
@<TRIPOS>BOND
     1    17    18    1
     2    18    19   ar
     3    19    20   ar
     4    20    21   ar
     5    21     1    1
     6     1     2    1
     7     2     3    1
     8     3     4    1
     9     4     5    1
    10     5     6    1
    11     6     9    1
    12     9    10   ar
    13    10    11   ar
    14    11    12   ar
    15    12    13    1
    16    12    14   ar
    17    14    15    1
    18    14    16   ar
    19     6     7    1
    20    21    22   ar
    21    22    18   ar
    22     6     1    1
    23    16     9   ar
    24     7     1    1
    25     3     8    1
@<TRIPOS>MOLECULE
*****
 22 25 0 0 0
SMALL
GASTEIGER

@<TRIPOS>ATOM
      1 C         -12.2816   -5.9964   18.2636 C.3     1  UNL1        0.0594
      2 C         -12.1349   -4.5286   18.5358 C.3     1  UNL1        0.0749
      3 N         -10.8222   -3.9819   19.0132 N.3     1  UNL1       -0.2971
      4 C          -9.6562   -4.9030   19.2183 C.3     1  UNL1        0.0689
      5 C          -9.8029   -6.3707   18.9461 C.3     1  UNL1        0.0216
      6 C         -11.1155   -6.9174   18.4688 C.3     1  UNL1        0.0273
      7 C         -12.4283   -7.4642   17.9914 C.3     1  UNL1        0.0122
      8 H         -11.0005   -3.5285   19.9093 H       1  UNL1        0.1233
      9 C         -11.7040   -5.5383   18.5075 C.ar    1  UNL1       -0.0214
     10 C         -11.5953   -4.6425   17.3092 C.ar    1  UNL1       -0.0034
     11 C         -12.1838   -3.2633   17.3479 C.ar    1  UNL1        0.0119
     12 C         -12.8810   -2.7798   18.5849 C.ar    1  UNL1        0.0682
     13 CL        -13.4695   -1.4006   18.6235 Cl      1  UNL1       -0.0814
     14 C         -12.9897   -3.6755   19.7832 C.ar    1  UNL1        0.0679
     15 CL        -13.6869   -3.1920   21.0201 Cl      1  UNL1       -0.0814
     16 C         -12.4012   -5.0548   19.7445 C.ar    1  UNL1        0.0080
     17 C         -17.5160   -5.3483   18.5128 C.3     1  UNL1        0.0527
     18 C         -16.1187   -5.4824   17.9841 C.ar    1  UNL1        0.0660
     19 C         -15.7112   -5.4132   16.5422 C.ar    1  UNL1        0.0512
     20 S         -14.2242   -5.5973   16.4714 S.2     1  UNL1       -0.0706
     21 C         -13.7126   -5.7803   17.8696 C.ar    1  UNL1        0.0887
     22 N         -14.8835   -5.7093   18.8045 N.ar    1  UNL1       -0.2470
@<TRIPOS>BOND
     1    17    18    1
     2    18    19   ar
     3    19    20   ar
     4    20    21   ar
     5    21     1    1
     6     1     2    1
     7     2     3    1
     8     3     4    1
     9     4     5    1
    10     5     6    1
    11     6     9    1
    12     9    10   ar
    13    10    11   ar
    14    11    12   ar
    15    12    13    1
    16    12    14   ar
    17    14    15    1
    18    14    16   ar
    19     6     7    1
    20    21    22   ar
    21    22    18   ar
    22     6     1    1
    23    16     9   ar
    24     7     1    1
    25     3     8    1
