@<TRIPOS>MOLECULE
*****
 33 37 0 0 0
SMALL
GASTEIGER

@<TRIPOS>ATOM
      1 C           0.0866    2.1427   22.5478 C.ar    1  UNL1        0.1074
      2 C           0.0905    2.3508   24.0333 C.ar    1  UNL1        0.0588
      3 S          -0.9066    3.4248   24.3534 S.2     1  UNL1       -0.0508
      4 C          -1.5265    3.8804   23.0657 C.ar    1  UNL1        0.1646
      5 N          -0.9127    3.0880   21.9498 N.ar    1  UNL1       -0.2224
      6 C           3.2151   -0.0256   21.4245 C.ar    1  UNL1        0.2416
      7 N           2.3682    0.9557   22.1795 N.ar    1  UNL1       -0.2089
      8 C           0.9335    1.1615   21.7929 C.ar    1  UNL1        0.1026
      9 C           0.3458    0.3860   20.6513 C.ar    1  UNL1        0.0224
     10 C           1.1928   -0.5953   19.8963 C.ar    1  UNL1        0.0239
     11 C           2.6274   -0.8010   20.2830 C.ar    1  UNL1        0.1189
     12 N           3.4743   -1.7823   19.5280 N.ar    1  UNL1       -0.2826
     13 C           4.4148   -1.4552   18.4061 C.ar    1  UNL1        0.1826
     14 N           5.0511   -2.7336   17.9471 N.ar    1  UNL1       -0.2280
     15 C           4.5039   -3.8508   18.7854 C.ar    1  UNL1        0.0786
     16 C           4.8675   -5.3013   18.6672 C.3     1  UNL1        0.0538
     17 C           3.5294   -3.2628   19.7624 C.ar    1  UNL1        0.0963
     18 C           5.7121    0.6730   21.2602 C.3     1  UNL1        0.2543
     19 O           4.6497   -0.2314   21.8112 O.3     1  UNL1       -0.4551
     20 N          -2.5762    4.9421   22.9196 N.pl3   1  UNL1       -0.2786
     21 H          -2.3767    5.8705   23.1793 H       1  UNL1        0.1555
     22 C          -3.9296    4.5891   22.3778 C.ar    1  UNL1        0.1276
     23 C          -4.2555    4.2931   20.9438 C.ar    1  UNL1        0.0244
     24 C          -5.7221    3.9912   20.8545 C.ar    1  UNL1        0.0773
     25 N          -6.3026    4.1007   22.2333 N.ar    1  UNL1       -0.1728
     26 N          -5.1948    4.4702   23.1747 N.ar    1  UNL1       -0.2354
     27 C          -6.3394    3.6556   19.5293 C.3     1  UNL1        0.0474
     28 C          -5.4901    3.6220   18.2934 C.3     1  UNL1        0.0067
     29 C          -4.0235    3.9238   18.3827 C.3     1  UNL1        0.0052
     30 C          -3.4062    4.2594   19.7079 C.3     1  UNL1        0.0305
     31 C          -5.3287    4.6834   24.6535 C.3     1  UNL1        0.1668
     32 C          -4.6380    3.7575   25.6103 C.3     1  UNL1        0.2195
     33 F          -4.6358    4.0619   27.0791 F       1  UNL1       -0.2321
@<TRIPOS>BOND
     1    18    19    1
     2    19     6    1
     3     6     7   ar
     4     7     8   ar
     5     8     1    1
     6     1     2   ar
     7     2     3   ar
     8     3     4   ar
     9     4    20    1
    10    20    22    1
    11    22    23   ar
    12    23    24   ar
    13    24    25   ar
    14    25    26   ar
    15    26    31    1
    16    31    32    1
    17    32    33    1
    18    24    27    1
    19    27    28    1
    20    28    29    1
    21    29    30    1
    22     4     5   ar
    23     8     9   ar
    24     9    10   ar
    25    10    11   ar
    26    11    12    1
    27    12    13   ar
    28    13    14   ar
    29    14    15   ar
    30    15    16    1
    31    15    17   ar
    32    11     6   ar
    33    17    12   ar
    34     5     1   ar
    35    26    22   ar
    36    30    23    1
    37    20    21    1
@<TRIPOS>MOLECULE
*****
 33 37 0 0 0
SMALL
GASTEIGER

@<TRIPOS>ATOM
      1 C           0.2012    2.3409   19.2019 C.ar    1  UNL1        0.1074
      2 C          -0.2303    2.9867   17.9187 C.ar    1  UNL1        0.0588
      3 S          -1.1532    4.1197   18.2576 S.2     1  UNL1       -0.0508
      4 C          -1.2919    4.1740   19.7501 C.ar    1  UNL1        0.1646
      5 N          -0.4548    3.0747   20.3338 N.ar    1  UNL1       -0.2224
      6 C           2.9885   -0.3493   18.3392 C.ar    1  UNL1        0.2416
      7 N           2.0633    0.8244   18.2104 N.ar    1  UNL1       -0.2089
      8 C           1.1264    1.1673   19.3306 C.ar    1  UNL1        0.1026
      9 C           1.1148    0.3365   20.5795 C.ar    1  UNL1        0.0224
     10 C           2.0401   -0.8372   20.7082 C.ar    1  UNL1        0.0239
     11 C           2.9769   -1.1800   19.5880 C.ar    1  UNL1        0.1189
     12 N           3.9022   -2.3536   19.7167 N.ar    1  UNL1       -0.2826
     13 C           3.5988   -3.7646   19.3077 C.ar    1  UNL1        0.1826
     14 N           4.8022   -4.6053   19.6152 N.ar    1  UNL1       -0.2280
     15 C           5.8496   -3.7140   20.2144 C.ar    1  UNL1        0.0786
     16 C           7.2136   -4.1396   20.6706 C.3     1  UNL1        0.0538
     17 C           5.2932   -2.3224   20.2771 C.ar    1  UNL1        0.0963
     18 C           5.2857   -0.0628   17.1598 C.3     1  UNL1        0.2543
     19 O           3.9254   -0.6921   17.2190 O.3     1  UNL1       -0.4551
     20 N          -2.1220    5.1555   20.5234 N.pl3   1  UNL1       -0.2786
     21 H          -1.8759    6.1087   20.5326 H       1  UNL1        0.1555
     22 C          -3.3269    4.6846   21.2825 C.ar    1  UNL1        0.1276
     23 C          -3.3735    4.3520   22.7444 C.ar    1  UNL1        0.0244
     24 C          -4.7722    3.9254   23.0784 C.ar    1  UNL1        0.0773
     25 N          -5.5901    3.9944   21.8230 N.ar    1  UNL1       -0.1728
     26 N          -4.6969    4.4636   20.7130 N.ar    1  UNL1       -0.2354
     27 C          -5.1204    3.5293   24.4826 C.3     1  UNL1        0.0474
     28 C          -4.0698    3.5597   25.5528 C.3     1  UNL1        0.0067
     29 C          -2.6710    3.9863   25.2188 C.3     1  UNL1        0.0052
     30 C          -2.3229    4.3824   23.8146 C.3     1  UNL1        0.0305
     31 C          -5.1025    4.6748   19.2844 C.3     1  UNL1        0.1668
     32 C          -5.4759    3.5003   18.4293 C.3     1  UNL1        0.2195
     33 F          -6.7329    2.7336   18.7157 F       1  UNL1       -0.2321
@<TRIPOS>BOND
     1    18    19    1
     2    19     6    1
     3     6     7   ar
     4     7     8   ar
     5     8     1    1
     6     1     2   ar
     7     2     3   ar
     8     3     4   ar
     9     4    20    1
    10    20    22    1
    11    22    23   ar
    12    23    24   ar
    13    24    25   ar
    14    25    26   ar
    15    26    31    1
    16    31    32    1
    17    32    33    1
    18    24    27    1
    19    27    28    1
    20    28    29    1
    21    29    30    1
    22     4     5   ar
    23     8     9   ar
    24     9    10   ar
    25    10    11   ar
    26    11    12    1
    27    12    13   ar
    28    13    14   ar
    29    14    15   ar
    30    15    16    1
    31    15    17   ar
    32    11     6   ar
    33    17    12   ar
    34     5     1   ar
    35    26    22   ar
    36    30    23    1
    37    20    21    1
@<TRIPOS>MOLECULE
*****
 33 37 0 0 0
SMALL
GASTEIGER

@<TRIPOS>ATOM
      1 C           4.7842   -3.4732   21.0087 C.ar    1  UNL1        0.1074
      2 C           4.0511   -4.5635   20.2849 C.ar    1  UNL1        0.0588
      3 S           3.6412   -4.0344   18.9425 S.2     1  UNL1       -0.0508
      4 C           4.1209   -2.6171   18.8368 C.ar    1  UNL1        0.1646
      5 N           4.8273   -2.2703   20.1137 N.ar    1  UNL1       -0.2224
      6 C           7.0866   -4.6153   24.0328 C.ar    1  UNL1        0.2416
      7 N           6.4997   -4.5196   22.6556 N.ar    1  UNL1       -0.2089
      8 C           5.3710   -3.5691   22.3858 C.ar    1  UNL1        0.1026
      9 C           4.8293   -2.7144   23.4931 C.ar    1  UNL1        0.0224
     10 C           5.4162   -2.8103   24.8703 C.ar    1  UNL1        0.0239
     11 C           6.5448   -3.7608   25.1400 C.ar    1  UNL1        0.1189
     12 N           7.1317   -3.8566   26.5171 N.ar    1  UNL1       -0.2826
     13 C           8.2960   -3.0661   27.0364 C.ar    1  UNL1        0.1826
     14 N           8.5412   -3.4807   28.4569 N.ar    1  UNL1       -0.2280
     15 C           7.5284   -4.5275   28.8157 C.ar    1  UNL1        0.0786
     16 C           7.4080   -5.2203   30.1406 C.3     1  UNL1        0.0538
     17 C           6.6573   -4.7598   27.6167 C.ar    1  UNL1        0.0963
     18 C           7.9239   -6.9836   24.6962 C.3     1  UNL1        0.2543
     19 O           8.2152   -5.5658   24.3025 O.3     1  UNL1       -0.4551
     20 N           3.9281   -1.7064   17.6604 N.pl3   1  UNL1       -0.2786
     21 H           3.7049   -2.0823   16.7783 H       1  UNL1        0.1555
     22 C           4.0754   -0.2231   17.8282 C.ar    1  UNL1        0.1276
     23 C           2.9762    0.7391   18.1687 C.ar    1  UNL1        0.0244
     24 C           3.5692    2.1152   18.2359 C.ar    1  UNL1        0.0773
     25 N           5.0348    2.0035   17.9368 N.ar    1  UNL1       -0.1728
     26 N           5.3477    0.5583   17.6848 N.ar    1  UNL1       -0.2354
     27 C           2.6979    3.2923   18.5606 C.3     1  UNL1        0.0474
     28 C           1.2337    3.0931   18.8183 C.3     1  UNL1        0.0067
     29 C           0.6408    1.7169   18.7511 C.3     1  UNL1        0.0052
     30 C           1.5120    0.5399   18.4264 C.3     1  UNL1        0.0305
     31 C           6.6961   -0.0062   17.3486 C.3     1  UNL1        0.1668
     32 C           7.4135   -0.8751   18.3387 C.3     1  UNL1        0.2195
     33 F           7.3991   -2.3662   18.1769 F       1  UNL1       -0.2321
@<TRIPOS>BOND
     1    18    19    1
     2    19     6    1
     3     6     7   ar
     4     7     8   ar
     5     8     1    1
     6     1     2   ar
     7     2     3   ar
     8     3     4   ar
     9     4    20    1
    10    20    22    1
    11    22    23   ar
    12    23    24   ar
    13    24    25   ar
    14    25    26   ar
    15    26    31    1
    16    31    32    1
    17    32    33    1
    18    24    27    1
    19    27    28    1
    20    28    29    1
    21    29    30    1
    22     4     5   ar
    23     8     9   ar
    24     9    10   ar
    25    10    11   ar
    26    11    12    1
    27    12    13   ar
    28    13    14   ar
    29    14    15   ar
    30    15    16    1
    31    15    17   ar
    32    11     6   ar
    33    17    12   ar
    34     5     1   ar
    35    26    22   ar
    36    30    23    1
    37    20    21    1
@<TRIPOS>MOLECULE
*****
 33 37 0 0 0
SMALL
GASTEIGER

@<TRIPOS>ATOM
      1 C           3.2273    0.6174   32.3430 C.ar    1  UNL1        0.1074
      2 C           4.0113   -0.6040   32.7215 C.ar    1  UNL1        0.0588
      3 S           4.4361   -0.4570   34.1526 S.2     1  UNL1       -0.0508
      4 C           3.9146    0.8553   34.6584 C.ar    1  UNL1        0.1646
      5 N           3.1675    1.5193   33.5400 N.ar    1  UNL1       -0.2224
      6 C           0.8588    0.3128   29.1731 C.ar    1  UNL1        0.2416
      7 N           1.4748    0.0410   30.5135 N.ar    1  UNL1       -0.2089
      8 C           2.6113    0.8892   31.0026 C.ar    1  UNL1        0.1026
      9 C           3.1316    2.0092   30.1512 C.ar    1  UNL1        0.0224
     10 C           2.5155    2.2810   28.8108 C.ar    1  UNL1        0.0239
     11 C           1.3791    1.4328   28.3218 C.ar    1  UNL1        0.1189
     12 N           0.7631    1.7046   26.9815 N.ar    1  UNL1       -0.2826
     13 C           1.2925    1.2398   25.6571 C.ar    1  UNL1        0.1826
     14 N           0.3661    1.7368   24.5873 N.ar    1  UNL1       -0.2280
     15 C          -0.7360    2.5089   25.2503 C.ar    1  UNL1        0.0786
     16 C          -1.8821    3.1825   24.5556 C.3     1  UNL1        0.0538
     17 C          -0.4905    2.4889   26.7300 C.ar    1  UNL1        0.0963
     18 C          -1.6890   -0.1798   29.0468 C.3     1  UNL1        0.2543
     19 O          -0.2776   -0.5354   28.6842 O.3     1  UNL1       -0.4551
     20 N           4.1064    1.4068   36.0402 N.pl3   1  UNL1       -0.2786
     21 H           4.9231    1.1928   36.5466 H       1  UNL1        0.1555
     22 C           3.0540    2.2844   36.6503 C.ar    1  UNL1        0.1276
     23 C           2.6376    3.6372   36.1537 C.ar    1  UNL1        0.0244
     24 C           1.5594    4.1522   37.0605 C.ar    1  UNL1        0.0773
     25 N           1.3095    3.1176   38.1175 N.ar    1  UNL1       -0.1728
     26 N           2.2331    1.9633   37.8640 N.ar    1  UNL1       -0.2354
     27 C           0.9446    5.4966   36.8066 C.3     1  UNL1        0.0474
     28 C           1.4079    6.3260   35.6459 C.3     1  UNL1        0.0067
     29 C           2.4861    5.8110   34.7391 C.3     1  UNL1        0.0052
     30 C           3.1009    4.4666   34.9930 C.3     1  UNL1        0.0305
     31 C           2.3206    0.7082   38.6807 C.3     1  UNL1        0.1668
     32 C           1.1472    0.2655   39.5036 C.3     1  UNL1        0.2195
     33 F           0.6259    1.1456   40.6008 F       1  UNL1       -0.2321
@<TRIPOS>BOND
     1    18    19    1
     2    19     6    1
     3     6     7   ar
     4     7     8   ar
     5     8     1    1
     6     1     2   ar
     7     2     3   ar
     8     3     4   ar
     9     4    20    1
    10    20    22    1
    11    22    23   ar
    12    23    24   ar
    13    24    25   ar
    14    25    26   ar
    15    26    31    1
    16    31    32    1
    17    32    33    1
    18    24    27    1
    19    27    28    1
    20    28    29    1
    21    29    30    1
    22     4     5   ar
    23     8     9   ar
    24     9    10   ar
    25    10    11   ar
    26    11    12    1
    27    12    13   ar
    28    13    14   ar
    29    14    15   ar
    30    15    16    1
    31    15    17   ar
    32    11     6   ar
    33    17    12   ar
    34     5     1   ar
    35    26    22   ar
    36    30    23    1
    37    20    21    1
@<TRIPOS>MOLECULE
*****
 33 37 0 0 0
SMALL
GASTEIGER

@<TRIPOS>ATOM
      1 C           4.7783   -3.4825   21.0009 C.ar    1  UNL1        0.1074
      2 C           4.0168   -4.5706   20.3038 C.ar    1  UNL1        0.0588
      3 S           3.5937   -4.0531   18.9609 S.2     1  UNL1       -0.0508
      4 C           4.0939   -2.6452   18.8282 C.ar    1  UNL1        0.1646
      5 N           4.8260   -2.2926   20.0890 N.ar    1  UNL1       -0.2224
      6 C           7.1435   -4.5845   23.9912 C.ar    1  UNL1        0.2416
      7 N           6.5363   -4.4979   22.6223 N.ar    1  UNL1       -0.2089
      8 C           5.3856   -3.5692   22.3697 C.ar    1  UNL1        0.1026
      9 C           4.8424   -2.7272   23.4859 C.ar    1  UNL1        0.0224
     10 C           5.4497   -2.8140   24.8548 C.ar    1  UNL1        0.0239
     11 C           6.6003   -3.7426   25.1074 C.ar    1  UNL1        0.1189
     12 N           7.2076   -3.8293   26.4762 N.ar    1  UNL1       -0.2826
     13 C           8.5333   -3.2623   26.8901 C.ar    1  UNL1        0.1826
     14 N           8.7409   -3.5808   28.3411 N.ar    1  UNL1       -0.2280
     15 C           7.5435   -4.3446   28.8240 C.ar    1  UNL1        0.0786
     16 C           7.3312   -4.8637   30.2152 C.3     1  UNL1        0.0538
     17 C           6.5960   -4.4982   27.6713 C.ar    1  UNL1        0.0963
     18 C           8.0359   -6.9363   24.6416 C.3     1  UNL1        0.2543
     19 O           8.2941   -5.5132   24.2437 O.3     1  UNL1       -0.4551
     20 N           3.8965   -1.7475   17.6427 N.pl3   1  UNL1       -0.2786
     21 H           3.7137   -2.1353   16.7565 H       1  UNL1        0.1555
     22 C           3.9777   -0.2587   17.8075 C.ar    1  UNL1        0.1276
     23 C           5.1885    0.5911   17.5589 C.ar    1  UNL1        0.0244
     24 C           4.8215    2.0165   17.8476 C.ar    1  UNL1        0.0773
     25 N           3.3839    2.0477   18.2747 N.ar    1  UNL1       -0.1728
     26 N           2.8624    0.6415   18.2500 N.ar    1  UNL1       -0.2354
     27 C           5.8438    3.1020   17.6843 C.3     1  UNL1        0.0474
     28 C           7.2330    2.7620   17.2323 C.3     1  UNL1        0.0067
     29 C           7.6000    1.3365   16.9435 C.3     1  UNL1        0.0052
     30 C           6.5777    0.2511   17.1068 C.3     1  UNL1        0.0305
     31 C           1.4701    0.2111   18.6053 C.3     1  UNL1        0.1668
     32 C           1.1310   -0.1337   20.0251 C.3     1  UNL1        0.2195
     33 F           1.8103   -1.2887   20.6993 F       1  UNL1       -0.2321
@<TRIPOS>BOND
     1    18    19    1
     2    19     6    1
     3     6     7   ar
     4     7     8   ar
     5     8     1    1
     6     1     2   ar
     7     2     3   ar
     8     3     4   ar
     9     4    20    1
    10    20    22    1
    11    22    23   ar
    12    23    24   ar
    13    24    25   ar
    14    25    26   ar
    15    26    31    1
    16    31    32    1
    17    32    33    1
    18    24    27    1
    19    27    28    1
    20    28    29    1
    21    29    30    1
    22     4     5   ar
    23     8     9   ar
    24     9    10   ar
    25    10    11   ar
    26    11    12    1
    27    12    13   ar
    28    13    14   ar
    29    14    15   ar
    30    15    16    1
    31    15    17   ar
    32    11     6   ar
    33    17    12   ar
    34     5     1   ar
    35    26    22   ar
    36    30    23    1
    37    20    21    1
@<TRIPOS>MOLECULE
*****
 33 37 0 0 0
SMALL
GASTEIGER

@<TRIPOS>ATOM
      1 C           0.5410    1.6863   23.4331 C.ar    1  UNL1        0.1074
      2 C          -0.3640    2.7051   22.8063 C.ar    1  UNL1        0.0588
      3 S          -0.3415    2.4937   21.3214 S.2     1  UNL1       -0.0508
      4 C           0.5773    1.3443   21.0306 C.ar    1  UNL1        0.1646
      5 N           1.1227    0.8453   22.3357 N.ar    1  UNL1       -0.2224
      6 C          -0.0405    1.1392   27.3206 C.ar    1  UNL1        0.2416
      7 N          -0.3156    1.2905   25.8538 N.ar    1  UNL1       -0.2089
      8 C           0.8160    1.5350   24.8999 C.ar    1  UNL1        0.1026
      9 C           2.2225    1.6283   25.4129 C.ar    1  UNL1        0.0224
     10 C           2.4974    1.4770   26.8797 C.ar    1  UNL1        0.0239
     11 C           1.3659    1.2325   27.8336 C.ar    1  UNL1        0.1189
     12 N           1.6408    1.0813   29.3004 N.ar    1  UNL1       -0.2826
     13 C           2.2097   -0.1345   29.9700 C.ar    1  UNL1        0.1826
     14 N           2.3157    0.1520   31.4385 N.ar    1  UNL1       -0.2280
     15 C           1.8122    1.5449   31.6766 C.ar    1  UNL1        0.0786
     16 C           1.7388    2.2412   33.0031 C.3     1  UNL1        0.0538
     17 C           1.3952    2.1192   30.3550 C.ar    1  UNL1        0.0963
     18 C          -1.4317   -0.4894   28.7911 C.3     1  UNL1        0.2543
     19 O          -1.1721    0.8947   28.2745 O.3     1  UNL1       -0.4551
     20 N           0.8950    0.7910   19.6730 N.pl3   1  UNL1       -0.2786
     21 H           0.1686    0.4786   19.0864 H       1  UNL1        0.1555
     22 C           2.3193    0.7138   19.2090 C.ar    1  UNL1        0.1276
     23 C           3.1215    1.8430   18.6333 C.ar    1  UNL1        0.0244
     24 C           4.4895    1.3209   18.3078 C.ar    1  UNL1        0.0773
     25 N           4.5328   -0.1309   18.6824 N.ar    1  UNL1       -0.1728
     26 N           3.1915   -0.5062   19.2394 N.ar    1  UNL1       -0.2354
     27 C           5.5191    2.2350   17.7124 C.3     1  UNL1        0.0474
     28 C           5.1805    3.6711   17.4425 C.3     1  UNL1        0.0067
     29 C           3.8125    4.1932   17.7680 C.3     1  UNL1        0.0052
     30 C           2.7830    3.2791   18.3634 C.3     1  UNL1        0.0305
     31 C           2.7926   -1.8631   19.7390 C.3     1  UNL1        0.1668
     32 C           3.5735   -3.0746   19.3240 C.3     1  UNL1        0.2195
     33 F           2.8582   -4.3506   18.9919 F       1  UNL1       -0.2321
@<TRIPOS>BOND
     1    18    19    1
     2    19     6    1
     3     6     7   ar
     4     7     8   ar
     5     8     1    1
     6     1     2   ar
     7     2     3   ar
     8     3     4   ar
     9     4    20    1
    10    20    22    1
    11    22    23   ar
    12    23    24   ar
    13    24    25   ar
    14    25    26   ar
    15    26    31    1
    16    31    32    1
    17    32    33    1
    18    24    27    1
    19    27    28    1
    20    28    29    1
    21    29    30    1
    22     4     5   ar
    23     8     9   ar
    24     9    10   ar
    25    10    11   ar
    26    11    12    1
    27    12    13   ar
    28    13    14   ar
    29    14    15   ar
    30    15    16    1
    31    15    17   ar
    32    11     6   ar
    33    17    12   ar
    34     5     1   ar
    35    26    22   ar
    36    30    23    1
    37    20    21    1
@<TRIPOS>MOLECULE
*****
 33 37 0 0 0
SMALL
GASTEIGER

@<TRIPOS>ATOM
      1 C           3.7767   -1.2704   23.5027 C.ar    1  UNL1        0.1074
      2 C           2.8180   -0.1426   23.2601 C.ar    1  UNL1        0.0588
      3 S           2.4562   -0.1470   21.8044 S.2     1  UNL1       -0.0508
      4 C           3.1912   -1.2775   21.1474 C.ar    1  UNL1        0.1646
      5 N           4.0073   -1.9719   22.1971 N.ar    1  UNL1       -0.2224
      6 C           4.3588   -1.5708   27.4169 C.ar    1  UNL1        0.2416
      7 N           3.7394   -1.2080   26.0998 N.ar    1  UNL1       -0.2089
      8 C           4.3960   -1.6332   24.8198 C.ar    1  UNL1        0.1026
      9 C           5.6719   -2.4210   24.8571 C.ar    1  UNL1        0.0224
     10 C           6.2912   -2.7838   26.1743 C.ar    1  UNL1        0.0239
     11 C           5.6347   -2.3586   27.4542 C.ar    1  UNL1        0.1189
     12 N           6.2540   -2.7213   28.7713 N.ar    1  UNL1       -0.2826
     13 C           6.5485   -4.1106   29.2544 C.ar    1  UNL1        0.1826
     14 N           7.1640   -4.0064   30.6182 N.ar    1  UNL1       -0.2280
     15 C           7.2500   -2.5527   30.9782 C.ar    1  UNL1        0.0786
     16 C           7.8016   -1.9918   32.2553 C.3     1  UNL1        0.0538
     17 C           6.6876   -1.7585   29.8366 C.ar    1  UNL1        0.0963
     18 C           2.3292   -0.5423   28.6710 C.3     1  UNL1        0.2543
     19 O           3.7023   -1.1457   28.6968 O.3     1  UNL1       -0.4551
     20 N           3.1222   -1.6486   19.6956 N.pl3   1  UNL1       -0.2786
     21 H           2.2842   -1.9997   19.3165 H       1  UNL1        0.1555
     22 C           4.3300   -1.4848   18.8214 C.ar    1  UNL1        0.1276
     23 C           4.8582   -0.1889   18.2813 C.ar    1  UNL1        0.0244
     24 C           6.0764   -0.4912   17.4599 C.ar    1  UNL1        0.0773
     25 N           6.3010   -1.9739   17.4924 N.ar    1  UNL1       -0.1728
     26 N           5.2218   -2.5880   18.3338 N.ar    1  UNL1       -0.2354
     27 C           6.8236    0.6227   16.7885 C.3     1  UNL1        0.0474
     28 C           6.3527    2.0389   16.9385 C.3     1  UNL1        0.0067
     29 C           5.1345    2.3412   17.7599 C.3     1  UNL1        0.0052
     30 C           4.3873    1.2273   18.4313 C.3     1  UNL1        0.0305
     31 C           5.0622   -4.0488   18.6349 C.3     1  UNL1        0.1668
     32 C           3.8901   -4.5248   19.4408 C.3     1  UNL1        0.2195
     33 F           2.5445   -4.6697   18.7941 F       1  UNL1       -0.2321
@<TRIPOS>BOND
     1    18    19    1
     2    19     6    1
     3     6     7   ar
     4     7     8   ar
     5     8     1    1
     6     1     2   ar
     7     2     3   ar
     8     3     4   ar
     9     4    20    1
    10    20    22    1
    11    22    23   ar
    12    23    24   ar
    13    24    25   ar
    14    25    26   ar
    15    26    31    1
    16    31    32    1
    17    32    33    1
    18    24    27    1
    19    27    28    1
    20    28    29    1
    21    29    30    1
    22     4     5   ar
    23     8     9   ar
    24     9    10   ar
    25    10    11   ar
    26    11    12    1
    27    12    13   ar
    28    13    14   ar
    29    14    15   ar
    30    15    16    1
    31    15    17   ar
    32    11     6   ar
    33    17    12   ar
    34     5     1   ar
    35    26    22   ar
    36    30    23    1
    37    20    21    1
@<TRIPOS>MOLECULE
*****
 33 37 0 0 0
SMALL
GASTEIGER

@<TRIPOS>ATOM
      1 C           4.1328   -1.4830   23.5439 C.ar    1  UNL1        0.1074
      2 C           3.2268   -0.2942   23.4175 C.ar    1  UNL1        0.0588
      3 S           2.7909   -0.1939   21.9858 S.2     1  UNL1       -0.0508
      4 C           3.4275   -1.3206   21.2274 C.ar    1  UNL1        0.1646
      5 N           4.2568   -2.1173   22.1904 N.ar    1  UNL1       -0.2224
      6 C           6.5900   -3.4137   25.9903 C.ar    1  UNL1        0.2416
      7 N           5.9248   -2.9421   24.7312 N.ar    1  UNL1       -0.2089
      8 C           4.7980   -1.9546   24.8029 C.ar    1  UNL1        0.1026
      9 C           4.3364   -1.4386   26.1336 C.ar    1  UNL1        0.0224
     10 C           5.0017   -1.9103   27.3927 C.ar    1  UNL1        0.0239
     11 C           6.1285   -2.8978   27.3209 C.ar    1  UNL1        0.1189
     12 N           6.7937   -3.3694   28.5799 N.ar    1  UNL1       -0.2826
     13 C           7.7937   -2.5993   29.3905 C.ar    1  UNL1        0.1826
     14 N           8.1937   -3.4478   30.5609 N.ar    1  UNL1       -0.2280
     15 C           7.4409   -4.7424   30.4738 C.ar    1  UNL1        0.0786
     16 C           7.5366   -5.8848   31.4411 C.3     1  UNL1        0.0538
     17 C           6.5756   -4.6938   29.2494 C.ar    1  UNL1        0.0963
     18 C           7.4242   -5.8611   25.7363 C.3     1  UNL1        0.2543
     19 O           7.7168   -4.4012   25.9186 O.3     1  UNL1       -0.4551
     20 N           3.2635   -1.6014   19.7629 N.pl3   1  UNL1       -0.2786
     21 H           2.3919   -1.8965   19.4129 H       1  UNL1        0.1555
     22 C           4.4274   -1.4325   18.8320 C.ar    1  UNL1        0.1276
     23 C           4.9225   -0.1346   18.2659 C.ar    1  UNL1        0.0244
     24 C           6.1017   -0.4317   17.3877 C.ar    1  UNL1        0.0773
     25 N           6.3353   -1.9132   17.4110 N.ar    1  UNL1       -0.1728
     26 N           5.3006   -2.5317   18.3036 N.ar    1  UNL1       -0.2354
     27 C           6.8103    0.6851   16.6803 C.3     1  UNL1        0.0474
     28 C           6.3398    2.0991   16.8511 C.3     1  UNL1        0.0067
     29 C           5.1606    2.3962   17.7293 C.3     1  UNL1        0.0052
     30 C           4.4520    1.2794   18.4367 C.3     1  UNL1        0.0305
     31 C           5.1631   -3.9929   18.6134 C.3     1  UNL1        0.1668
     32 C           3.9646   -4.4906   19.3655 C.3     1  UNL1        0.2195
     33 F           2.6251   -4.5427   18.6923 F       1  UNL1       -0.2321
@<TRIPOS>BOND
     1    18    19    1
     2    19     6    1
     3     6     7   ar
     4     7     8   ar
     5     8     1    1
     6     1     2   ar
     7     2     3   ar
     8     3     4   ar
     9     4    20    1
    10    20    22    1
    11    22    23   ar
    12    23    24   ar
    13    24    25   ar
    14    25    26   ar
    15    26    31    1
    16    31    32    1
    17    32    33    1
    18    24    27    1
    19    27    28    1
    20    28    29    1
    21    29    30    1
    22     4     5   ar
    23     8     9   ar
    24     9    10   ar
    25    10    11   ar
    26    11    12    1
    27    12    13   ar
    28    13    14   ar
    29    14    15   ar
    30    15    16    1
    31    15    17   ar
    32    11     6   ar
    33    17    12   ar
    34     5     1   ar
    35    26    22   ar
    36    30    23    1
    37    20    21    1
@<TRIPOS>MOLECULE
*****
 33 37 0 0 0
SMALL
GASTEIGER

@<TRIPOS>ATOM
      1 C           6.2756   -3.5505   21.6305 C.ar    1  UNL1        0.1074
      2 C           7.2622   -3.3666   20.5157 C.ar    1  UNL1        0.0588
      3 S           6.5112   -2.8975   19.3049 S.2     1  UNL1       -0.0508
      4 C           5.0606   -2.7916   19.6715 C.ar    1  UNL1        0.1646
      5 N           4.9150   -3.1951   21.1088 N.ar    1  UNL1       -0.2224
      6 C           7.6101   -5.7778   24.6320 C.ar    1  UNL1        0.2416
      7 N           7.2918   -5.3191   23.2397 N.ar    1  UNL1       -0.2089
      8 C           6.5939   -4.0092   23.0227 C.ar    1  UNL1        0.1026
      9 C           6.2142   -3.1580   24.1981 C.ar    1  UNL1        0.0224
     10 C           6.5325   -3.6168   25.5903 C.ar    1  UNL1        0.0239
     11 C           7.2304   -4.9267   25.8072 C.ar    1  UNL1        0.1189
     12 N           7.5487   -5.3854   27.1994 N.ar    1  UNL1       -0.2826
     13 C           8.7656   -6.1568   27.6171 C.ar    1  UNL1        0.1826
     14 N           8.6749   -6.4015   29.0941 N.ar    1  UNL1       -0.2280
     15 C           7.4021   -5.7812   29.5895 C.ar    1  UNL1        0.0786
     16 C           6.9115   -5.7878   31.0070 C.3     1  UNL1        0.0538
     17 C           6.7061   -5.1533   28.4184 C.ar    1  UNL1        0.0963
     18 C           9.2326   -7.6279   23.7984 C.3     1  UNL1        0.2543
     19 O           8.3080   -7.0877   24.8488 O.3     1  UNL1       -0.4551
     20 N           3.9503   -2.3581   18.7605 N.pl3   1  UNL1       -0.2786
     21 H           3.4450   -3.0288   18.2467 H       1  UNL1        0.1555
     22 C           3.6101   -0.9028   18.6326 C.ar    1  UNL1        0.1276
     23 C           2.4233   -0.2179   19.2428 C.ar    1  UNL1        0.0244
     24 C           2.4767    1.2313   18.8593 C.ar    1  UNL1        0.0773
     25 N           3.6965    1.4419   18.0121 N.ar    1  UNL1       -0.1728
     26 N           4.3970    0.1230   17.8719 N.ar    1  UNL1       -0.2354
     27 C           1.4077    2.1718   19.3311 C.3     1  UNL1        0.0474
     28 C           0.2854    1.6632   20.1864 C.3     1  UNL1        0.0067
     29 C           0.2320    0.2140   20.5699 C.3     1  UNL1        0.0052
     30 C           1.3010   -0.7265   20.0981 C.3     1  UNL1        0.0305
     31 C           5.6622   -0.1264   17.1057 C.3     1  UNL1        0.1668
     32 C           6.6371    0.9917   16.8834 C.3     1  UNL1        0.2195
     33 F           6.1713    2.2844   16.2819 F       1  UNL1       -0.2321
@<TRIPOS>BOND
     1    18    19    1
     2    19     6    1
     3     6     7   ar
     4     7     8   ar
     5     8     1    1
     6     1     2   ar
     7     2     3   ar
     8     3     4   ar
     9     4    20    1
    10    20    22    1
    11    22    23   ar
    12    23    24   ar
    13    24    25   ar
    14    25    26   ar
    15    26    31    1
    16    31    32    1
    17    32    33    1
    18    24    27    1
    19    27    28    1
    20    28    29    1
    21    29    30    1
    22     4     5   ar
    23     8     9   ar
    24     9    10   ar
    25    10    11   ar
    26    11    12    1
    27    12    13   ar
    28    13    14   ar
    29    14    15   ar
    30    15    16    1
    31    15    17   ar
    32    11     6   ar
    33    17    12   ar
    34     5     1   ar
    35    26    22   ar
    36    30    23    1
    37    20    21    1
