@<TRIPOS>MOLECULE
*****
 38 43 0 0 0
SMALL
GASTEIGER

@<TRIPOS>ATOM
      1 C          -7.5404  -19.8131   20.4569 C.3     1  UNL1        0.0745
      2 C          -8.6765  -19.3737   19.5815 C.3     1  UNL1        0.0356
      3 C          -9.0774  -20.2053   18.3993 C.3     1  UNL1        0.0594
      4 C          -9.1249  -21.3013   17.3763 C.3     1  UNL1        0.0174
      5 C          -8.0445  -22.2888   17.7046 C.3     1  UNL1        0.0174
      6 C          -7.3293  -21.8030   18.9304 C.3     1  UNL1        0.0594
      7 C          -6.8052  -21.0840   20.1500 C.3     1  UNL1        0.0356
      8 N          -7.9677  -20.5154   19.3597 N.3     1  UNL1       -0.2715
      9 O          -9.1744  -17.4188   21.2299 O.2     1  UNL1       -0.2701
     10 C          -7.9565  -17.7843   22.0257 C.2     1  UNL1        0.2459
     11 N          -7.1395  -18.9815   21.6392 N.am    1  UNL1       -0.3024
     12 H          -6.3402  -19.2214   22.1615 H       1  UNL1        0.1497
     13 C          -7.5556  -16.9527   23.2079 C.ar    1  UNL1        0.0577
     14 C          -6.3492  -16.0650   23.1260 C.ar    1  UNL1        0.0047
     15 C          -5.9484  -15.2334   24.3083 C.ar    1  UNL1        0.0001
     16 C          -6.7539  -15.2895   25.5724 C.ar    1  UNL1        0.0001
     17 C          -7.9603  -16.1771   25.6543 C.ar    1  UNL1        0.0047
     18 C          -8.3611  -17.0088   24.4720 C.ar    1  UNL1        0.0579
     19 C          -9.5675  -17.8964   24.5538 C.2     1  UNL1        0.2493
     20 O          -9.1400  -19.1041   25.3342 O.2     1  UNL1       -0.2699
     21 N         -10.8554  -17.4727   23.9121 N.am    1  UNL1       -0.2709
     22 C         -10.9369  -16.1613   23.1885 C.3     1  UNL1        0.1258
     23 C         -12.2248  -15.7375   22.5467 C.3     1  UNL1        0.1637
     24 O         -13.4312  -16.6252   22.6286 O.3     1  UNL1       -0.3501
     25 C         -13.3497  -17.9367   23.3522 C.3     1  UNL1        0.1637
     26 C         -12.0618  -18.3604   23.9939 C.3     1  UNL1        0.1258
     27 C          -7.5668  -19.6838   20.5420 C.3     1  UNL1        0.0991
     28 C          -6.1178  -19.3899   20.7955 C.ar    1  UNL1       -0.0061
     29 C          -5.5236  -19.6571   22.1466 C.ar    1  UNL1       -0.0029
     30 C          -4.0747  -19.3632   22.4000 C.ar    1  UNL1       -0.0002
     31 C          -3.2200  -18.8021   21.3024 C.ar    1  UNL1        0.0022
     32 C          -1.7710  -18.5083   21.5559 C.ar    1  UNL1        0.0296
     33 C          -0.9164  -17.9472   20.4583 C.ar    1  UNL1        0.1401
     34 F           0.5325  -17.6534   20.7118 F       1  UNL1       -0.2042
     35 C          -1.5107  -17.6801   19.1071 C.ar    1  UNL1        0.0296
     36 C          -2.9596  -17.9740   18.8537 C.ar    1  UNL1        0.0023
     37 C          -3.8142  -18.5350   19.9513 C.ar    1  UNL1       -0.0001
     38 C          -5.2631  -18.8289   19.6979 C.ar    1  UNL1       -0.0029
@<TRIPOS>BOND
     1     9    10    2
     2    10    11   am
     3     1    11    1
     4     1     2    1
     5     3     2    1
     6     3     4    1
     7     4     5    1
     8     6     5    1
     9     6     7    1
    10     6     8    1
    11     8    27    1
    12    27    28    1
    13    28    29   ar
    14    29    30   ar
    15    30    31   ar
    16    31    32   ar
    17    32    33   ar
    18    33    34    1
    19    33    35   ar
    20    35    36   ar
    21    36    37   ar
    22    37    38   ar
    23    10    13    1
    24    13    14   ar
    25    14    15   ar
    26    15    16   ar
    27    16    17   ar
    28    17    18   ar
    29    18    19    1
    30    19    20    2
    31    19    21   am
    32    21    22    1
    33    22    23    1
    34    23    24    1
    35    24    25    1
    36    25    26    1
    37     7     1    1
    38    38    28   ar
    39    18    13   ar
    40    26    21    1
    41     8     3    1
    42    37    31   ar
    43    11    12    1
@<TRIPOS>MOLECULE
*****
 38 43 0 0 0
SMALL
GASTEIGER

@<TRIPOS>ATOM
      1 C          -8.1076  -19.6955   20.1606 C.3     1  UNL1        0.0745
      2 C          -7.4012  -20.9922   19.8969 C.3     1  UNL1        0.0356
      3 C          -7.7703  -21.8174   18.6999 C.3     1  UNL1        0.0594
      4 C          -8.4392  -22.2868   17.4420 C.3     1  UNL1        0.0174
      5 C          -9.4679  -21.2658   17.0554 C.3     1  UNL1        0.0174
      6 C          -9.4347  -20.1655   18.0744 C.3     1  UNL1        0.0594
      7 C          -9.1830  -19.2239   19.2273 C.3     1  UNL1        0.0356
      8 N          -8.3856  -20.5064   19.0907 N.3     1  UNL1       -0.2715
      9 O          -5.4101  -18.3911   20.3092 O.2     1  UNL1       -0.2701
     10 C          -6.3897  -18.2181   21.4319 C.2     1  UNL1        0.2459
     11 N          -7.7384  -18.8703   21.3576 N.am    1  UNL1       -0.3024
     12 H          -8.3814  -18.7568   22.0945 H       1  UNL1        0.1497
     13 C          -6.0205  -17.3929   22.6289 C.ar    1  UNL1        0.0577
     14 C          -7.0076  -16.4199   23.2024 C.ar    1  UNL1        0.0047
     15 C          -6.6384  -15.5947   24.3993 C.ar    1  UNL1        0.0001
     16 C          -5.2822  -15.7426   25.0229 C.ar    1  UNL1        0.0001
     17 C          -4.2951  -16.7157   24.4494 C.ar    1  UNL1        0.0047
     18 C          -4.6643  -17.5408   23.2524 C.ar    1  UNL1        0.0579
     19 C          -3.6773  -18.5139   22.6789 C.2     1  UNL1        0.2493
     20 O          -4.1258  -19.8722   23.1305 O.2     1  UNL1       -0.2699
     21 N          -2.5346  -18.0183   21.8430 N.am    1  UNL1       -0.2709
     22 C          -2.3790  -16.5497   21.5805 C.3     1  UNL1        0.1258
     23 C          -1.2364  -16.0541   20.7446 C.3     1  UNL1        0.1637
     24 O          -0.2493  -17.0271   20.1711 O.3     1  UNL1       -0.3501
     25 C          -0.4049  -18.4958   20.4336 C.3     1  UNL1        0.1637
     26 C          -1.5476  -18.9914   21.2695 C.3     1  UNL1        0.1258
     27 C          -8.0165  -19.6812   20.2877 C.3     1  UNL1        0.0991
     28 C          -8.9762  -19.5502   21.4331 C.ar    1  UNL1       -0.0061
     29 C          -8.6426  -20.1563   22.7641 C.ar    1  UNL1       -0.0029
     30 C          -9.6022  -20.0252   23.9094 C.ar    1  UNL1       -0.0002
     31 C         -10.8954  -19.2881   23.7239 C.ar    1  UNL1        0.0022
     32 C         -11.8551  -19.1571   24.8693 C.ar    1  UNL1        0.0296
     33 C         -13.1482  -18.4200   24.6837 C.ar    1  UNL1        0.1401
     34 F         -14.1079  -18.2890   25.8291 F       1  UNL1       -0.2042
     35 C         -13.4817  -17.8140   23.3527 C.ar    1  UNL1        0.0296
     36 C         -12.5221  -17.9450   22.2074 C.ar    1  UNL1        0.0023
     37 C         -11.2290  -18.6821   22.3929 C.ar    1  UNL1       -0.0001
     38 C         -10.2693  -18.8131   21.2476 C.ar    1  UNL1       -0.0029
@<TRIPOS>BOND
     1     9    10    2
     2    10    11   am
     3     1    11    1
     4     1     2    1
     5     3     2    1
     6     3     4    1
     7     4     5    1
     8     6     5    1
     9     6     7    1
    10     6     8    1
    11     8    27    1
    12    27    28    1
    13    28    29   ar
    14    29    30   ar
    15    30    31   ar
    16    31    32   ar
    17    32    33   ar
    18    33    34    1
    19    33    35   ar
    20    35    36   ar
    21    36    37   ar
    22    37    38   ar
    23    10    13    1
    24    13    14   ar
    25    14    15   ar
    26    15    16   ar
    27    16    17   ar
    28    17    18   ar
    29    18    19    1
    30    19    20    2
    31    19    21   am
    32    21    22    1
    33    22    23    1
    34    23    24    1
    35    24    25    1
    36    25    26    1
    37     7     1    1
    38    38    28   ar
    39    18    13   ar
    40    26    21    1
    41     8     3    1
    42    37    31   ar
    43    11    12    1
@<TRIPOS>MOLECULE
*****
 38 43 0 0 0
SMALL
GASTEIGER

@<TRIPOS>ATOM
      1 C         -13.1289   -4.7396   18.2037 C.3     1  UNL1        0.0745
      2 C         -12.3075   -4.1573   17.0917 C.3     1  UNL1        0.0356
      3 C         -10.8445   -4.4737   16.9949 C.3     1  UNL1        0.0594
      4 C          -9.4851   -5.0389   17.2824 C.3     1  UNL1        0.0174
      5 C          -9.5889   -5.8939   18.5105 C.3     1  UNL1        0.0174
      6 C         -11.0123   -5.8572   18.9820 C.3     1  UNL1        0.0594
      7 C         -12.4872   -5.6382   19.2188 C.3     1  UNL1        0.0356
      8 N         -11.7884   -4.9795   18.0454 N.3     1  UNL1       -0.2715
      9 O         -14.0374   -2.2711   19.6464 O.2     1  UNL1       -0.2701
     10 C         -15.0462   -3.1889   19.0218 C.2     1  UNL1        0.2459
     11 N         -14.5920   -4.4231   18.3004 N.am    1  UNL1       -0.3024
     12 H         -15.2540   -5.0254   17.8905 H       1  UNL1        0.1497
     13 C         -16.5092   -2.8724   19.1185 C.ar    1  UNL1        0.0577
     14 C         -17.3705   -3.6013   20.1069 C.ar    1  UNL1        0.0047
     15 C         -18.8335   -3.2848   20.2036 C.ar    1  UNL1        0.0001
     16 C         -19.4353   -2.2393   19.3120 C.ar    1  UNL1        0.0001
     17 C         -18.5740   -1.5104   18.3237 C.ar    1  UNL1        0.0047
     18 C         -17.1109   -1.8269   18.2270 C.ar    1  UNL1        0.0579
     19 C         -16.2496   -1.0980   17.2386 C.2     1  UNL1        0.2493
     20 O         -16.2359   -1.9434   15.9996 O.2     1  UNL1       -0.2699
     21 N         -15.6175    0.2092   17.6153 N.am    1  UNL1       -0.2709
     22 C         -15.8467    0.7874   18.9803 C.3     1  UNL1        0.1258
     23 C         -15.2146    2.0945   19.3570 C.3     1  UNL1        0.1637
     24 O         -14.3533    2.8235   18.3686 O.3     1  UNL1       -0.3501
     25 C         -14.1241    2.2452   17.0036 C.3     1  UNL1        0.1637
     26 C         -14.7562    0.9381   16.6270 C.3     1  UNL1        0.1258
     27 C         -13.2514   -4.6630   18.1421 C.3     1  UNL1        0.0991
     28 C         -14.2689   -5.7391   17.9037 C.ar    1  UNL1       -0.0061
     29 C         -14.7595   -6.0126   16.5129 C.ar    1  UNL1       -0.0029
     30 C         -15.7769   -7.0886   16.2745 C.ar    1  UNL1       -0.0002
     31 C         -16.3038   -7.8913   17.4270 C.ar    1  UNL1        0.0022
     32 C         -17.3213   -8.9674   17.1886 C.ar    1  UNL1        0.0296
     33 C         -17.8481   -9.7700   18.3410 C.ar    1  UNL1        0.1401
     34 F         -18.8656  -10.8460   18.1027 F       1  UNL1       -0.2042
     35 C         -17.3575   -9.4965   19.7320 C.ar    1  UNL1        0.0296
     36 C         -16.3401   -8.4204   19.9703 C.ar    1  UNL1        0.0023
     37 C         -15.8132   -7.6178   18.8178 C.ar    1  UNL1       -0.0001
     38 C         -14.7958   -6.5418   19.0562 C.ar    1  UNL1       -0.0029
@<TRIPOS>BOND
     1     9    10    2
     2    10    11   am
     3     1    11    1
     4     1     2    1
     5     3     2    1
     6     3     4    1
     7     4     5    1
     8     6     5    1
     9     6     7    1
    10     6     8    1
    11     8    27    1
    12    27    28    1
    13    28    29   ar
    14    29    30   ar
    15    30    31   ar
    16    31    32   ar
    17    32    33   ar
    18    33    34    1
    19    33    35   ar
    20    35    36   ar
    21    36    37   ar
    22    37    38   ar
    23    10    13    1
    24    13    14   ar
    25    14    15   ar
    26    15    16   ar
    27    16    17   ar
    28    17    18   ar
    29    18    19    1
    30    19    20    2
    31    19    21   am
    32    21    22    1
    33    22    23    1
    34    23    24    1
    35    24    25    1
    36    25    26    1
    37     7     1    1
    38    38    28   ar
    39    18    13   ar
    40    26    21    1
    41     8     3    1
    42    37    31   ar
    43    11    12    1
@<TRIPOS>MOLECULE
*****
 38 43 0 0 0
SMALL
GASTEIGER

@<TRIPOS>ATOM
      1 C           6.3566   -2.6535   21.0112 C.3     1  UNL1        0.0745
      2 C           7.5418   -2.6393   20.0919 C.3     1  UNL1        0.0356
      3 C           8.6767   -3.5939   20.3165 C.3     1  UNL1        0.0594
      4 C           9.5358   -4.6772   20.8983 C.3     1  UNL1        0.0174
      5 C           8.8225   -5.2448   22.0896 C.3     1  UNL1        0.0174
      6 C           7.5226   -4.5123   22.2440 C.3     1  UNL1        0.0594
      7 C           6.3064   -3.6224   22.1551 C.3     1  UNL1        0.0356
      8 N           7.4326   -3.4920   21.1482 N.3     1  UNL1       -0.2715
      9 O           4.2721   -3.2621   18.9413 O.2     1  UNL1       -0.2701
     10 C           4.1793   -2.0031   19.7515 C.2     1  UNL1        0.2459
     11 N           5.2216   -1.6988   20.7864 N.am    1  UNL1       -0.3024
     12 H           5.1608   -0.8725   21.3182 H       1  UNL1        0.1497
     13 C           3.0444   -1.0485   19.5268 C.ar    1  UNL1        0.0577
     14 C           1.8879   -1.0202   20.4816 C.ar    1  UNL1        0.0047
     15 C           0.7529   -0.0656   20.2568 C.ar    1  UNL1        0.0001
     16 C           0.7745    0.8608   19.0772 C.ar    1  UNL1        0.0001
     17 C           1.9310    0.8325   18.1224 C.ar    1  UNL1        0.0047
     18 C           3.0660   -0.1222   18.3472 C.ar    1  UNL1        0.0579
     19 C           4.2225   -0.1504   17.3924 C.2     1  UNL1        0.2493
     20 O           3.8167   -1.0696   16.2787 O.2     1  UNL1       -0.2699
     21 N           5.4536    0.6565   17.6814 N.am    1  UNL1       -0.2709
     22 C           5.5280    1.4917   18.9251 C.3     1  UNL1        0.1258
     23 C           6.7590    2.2987   19.2141 C.3     1  UNL1        0.1637
     24 O           7.9156    2.2704   18.2593 O.3     1  UNL1       -0.3501
     25 C           7.8411    1.4352   17.0155 C.3     1  UNL1        0.1637
     26 C           6.6101    0.6283   16.7266 C.3     1  UNL1        0.1258
     27 C           6.2976   -2.5373   20.9235 C.3     1  UNL1        0.0991
     28 C           6.0059   -1.4678   21.9341 C.ar    1  UNL1       -0.0061
     29 C           6.9004   -0.2681   22.0358 C.ar    1  UNL1       -0.0029
     30 C           6.6087    0.8014   23.0463 C.ar    1  UNL1       -0.0002
     31 C           5.4225    0.6711   23.9551 C.ar    1  UNL1        0.0022
     32 C           5.1308    1.7406   24.9656 C.ar    1  UNL1        0.0296
     33 C           3.9445    1.6103   25.8744 C.ar    1  UNL1        0.1401
     34 F           3.6528    2.6797   26.8849 F       1  UNL1       -0.2042
     35 C           3.0500    0.4105   25.7726 C.ar    1  UNL1        0.0296
     36 C           3.3417   -0.6590   24.7621 C.ar    1  UNL1        0.0023
     37 C           4.5279   -0.5287   23.8533 C.ar    1  UNL1       -0.0001
     38 C           4.8197   -1.5981   22.8428 C.ar    1  UNL1       -0.0029
@<TRIPOS>BOND
     1     9    10    2
     2    10    11   am
     3     1    11    1
     4     1     2    1
     5     3     2    1
     6     3     4    1
     7     4     5    1
     8     6     5    1
     9     6     7    1
    10     6     8    1
    11     8    27    1
    12    27    28    1
    13    28    29   ar
    14    29    30   ar
    15    30    31   ar
    16    31    32   ar
    17    32    33   ar
    18    33    34    1
    19    33    35   ar
    20    35    36   ar
    21    36    37   ar
    22    37    38   ar
    23    10    13    1
    24    13    14   ar
    25    14    15   ar
    26    15    16   ar
    27    16    17   ar
    28    17    18   ar
    29    18    19    1
    30    19    20    2
    31    19    21   am
    32    21    22    1
    33    22    23    1
    34    23    24    1
    35    24    25    1
    36    25    26    1
    37     7     1    1
    38    38    28   ar
    39    18    13   ar
    40    26    21    1
    41     8     3    1
    42    37    31   ar
    43    11    12    1
@<TRIPOS>MOLECULE
*****
 38 43 0 0 0
SMALL
GASTEIGER

@<TRIPOS>ATOM
      1 C          -7.0963  -16.5312   23.4612 C.3     1  UNL1        0.0745
      2 C          -5.6297  -16.2214   23.5174 C.3     1  UNL1        0.0356
      3 C          -5.0517  -15.5452   24.7251 C.3     1  UNL1        0.0594
      4 C          -4.9221  -14.8920   26.0692 C.3     1  UNL1        0.0174
      5 C          -6.2819  -14.8593   26.7016 C.3     1  UNL1        0.0174
      6 C          -7.2518  -15.4922   25.7484 C.3     1  UNL1        0.0594
      7 C          -7.9848  -16.1647   24.6128 C.3     1  UNL1        0.0356
      8 N          -6.4915  -15.9162   24.5269 N.3     1  UNL1       -0.2715
      9 O          -6.2407  -19.3168   22.7486 O.2     1  UNL1       -0.2701
     10 C          -7.2465  -18.6002   21.8971 C.2     1  UNL1        0.2459
     11 N          -7.6743  -17.2074   22.2534 N.am    1  UNL1       -0.3024
     12 H          -8.3344  -16.7370   21.6946 H       1  UNL1        0.1497
     13 C          -7.8244  -19.2765   20.6894 C.ar    1  UNL1        0.0577
     14 C          -9.1926  -18.9011   20.2024 C.ar    1  UNL1        0.0047
     15 C          -9.7705  -19.5773   18.9947 C.ar    1  UNL1        0.0001
     16 C          -8.9803  -20.6290   18.2739 C.ar    1  UNL1        0.0001
     17 C          -7.6121  -21.0044   18.7608 C.ar    1  UNL1        0.0047
     18 C          -7.0342  -20.3281   19.9686 C.ar    1  UNL1        0.0579
     19 C          -5.6660  -20.7035   20.4556 C.2     1  UNL1        0.2493
     20 O          -5.8344  -21.9878   21.2121 O.2     1  UNL1       -0.2699
     21 N          -4.4904  -19.8273   20.1385 N.am    1  UNL1       -0.2709
     22 C          -4.6831  -18.5758   19.3344 C.3     1  UNL1        0.1258
     23 C          -3.5076  -17.6996   19.0173 C.3     1  UNL1        0.1637
     24 O          -2.1394  -18.0751   19.5043 O.3     1  UNL1       -0.3501
     25 C          -1.9467  -19.3266   20.3084 C.3     1  UNL1        0.1637
     26 C          -3.1223  -20.2027   20.6255 C.3     1  UNL1        0.1258
     27 C          -7.0695  -16.5924   23.3192 C.3     1  UNL1        0.0991
     28 C          -8.5554  -16.7499   23.1870 C.ar    1  UNL1       -0.0061
     29 C          -9.3057  -15.9535   22.1610 C.ar    1  UNL1       -0.0029
     30 C         -10.7915  -16.1111   22.0289 C.ar    1  UNL1       -0.0002
     31 C         -11.5270  -17.0651   22.9227 C.ar    1  UNL1        0.0022
     32 C         -13.0129  -17.2227   22.7906 C.ar    1  UNL1        0.0296
     33 C         -13.7483  -18.1767   23.6844 C.ar    1  UNL1        0.1401
     34 F         -15.2342  -18.3343   23.5523 F       1  UNL1       -0.2042
     35 C         -12.9979  -18.9731   24.7104 C.ar    1  UNL1        0.0296
     36 C         -11.5121  -18.8156   24.8425 C.ar    1  UNL1        0.0023
     37 C         -10.7767  -17.8615   23.9487 C.ar    1  UNL1       -0.0001
     38 C          -9.2909  -17.7040   24.0808 C.ar    1  UNL1       -0.0029
@<TRIPOS>BOND
     1     9    10    2
     2    10    11   am
     3     1    11    1
     4     1     2    1
     5     3     2    1
     6     3     4    1
     7     4     5    1
     8     6     5    1
     9     6     7    1
    10     6     8    1
    11     8    27    1
    12    27    28    1
    13    28    29   ar
    14    29    30   ar
    15    30    31   ar
    16    31    32   ar
    17    32    33   ar
    18    33    34    1
    19    33    35   ar
    20    35    36   ar
    21    36    37   ar
    22    37    38   ar
    23    10    13    1
    24    13    14   ar
    25    14    15   ar
    26    15    16   ar
    27    16    17   ar
    28    17    18   ar
    29    18    19    1
    30    19    20    2
    31    19    21   am
    32    21    22    1
    33    22    23    1
    34    23    24    1
    35    24    25    1
    36    25    26    1
    37     7     1    1
    38    38    28   ar
    39    18    13   ar
    40    26    21    1
    41     8     3    1
    42    37    31   ar
    43    11    12    1
@<TRIPOS>MOLECULE
*****
 38 43 0 0 0
SMALL
GASTEIGER

@<TRIPOS>ATOM
      1 C          -8.0311  -19.3001   21.1517 C.3     1  UNL1        0.0745
      2 C          -7.0556  -20.3278   20.6597 C.3     1  UNL1        0.0356
      3 C          -7.2640  -20.9818   19.3260 C.3     1  UNL1        0.0594
      4 C          -7.8475  -21.3538   17.9951 C.3     1  UNL1        0.0174
      5 C          -9.0943  -20.5446   17.7932 C.3     1  UNL1        0.0174
      6 C          -9.2813  -19.6725   18.9992 C.3     1  UNL1        0.0594
      7 C          -9.2150  -18.9263   20.3099 C.3     1  UNL1        0.0356
      8 N          -8.1501  -19.9428   19.9466 N.3     1  UNL1       -0.2715
      9 O          -7.2863  -16.3977   21.2991 O.2     1  UNL1       -0.2701
     10 C          -7.4503  -17.1949   22.5591 C.2     1  UNL1        0.2459
     11 N          -7.8226  -18.6461   22.4854 N.am    1  UNL1       -0.3024
     12 H          -7.9303  -19.1693   23.3124 H       1  UNL1        0.1497
     13 C          -7.2418  -16.5409   23.8928 C.ar    1  UNL1        0.0577
     14 C          -8.3204  -16.5993   24.9336 C.ar    1  UNL1        0.0047
     15 C          -8.1120  -15.9453   26.2673 C.ar    1  UNL1        0.0001
     16 C          -6.8248  -15.2328   26.5603 C.ar    1  UNL1        0.0001
     17 C          -5.7462  -15.1744   25.5195 C.ar    1  UNL1        0.0047
     18 C          -5.9547  -15.8285   24.1858 C.ar    1  UNL1        0.0579
     19 C          -4.8761  -15.7701   23.1450 C.2     1  UNL1        0.2493
     20 O          -4.7977  -14.3365   22.7108 O.2     1  UNL1       -0.2699
     21 N          -4.1395  -17.0181   22.7574 N.am    1  UNL1       -0.2709
     22 C          -4.4816  -18.3243   23.4106 C.3     1  UNL1        0.1258
     23 C          -3.7451  -19.5723   23.0230 C.3     1  UNL1        0.1637
     24 O          -2.6665  -19.5139   21.9822 O.3     1  UNL1       -0.3501
     25 C          -2.3244  -18.2076   21.3291 C.3     1  UNL1        0.1637
     26 C          -3.0609  -16.9597   21.7167 C.3     1  UNL1        0.1258
     27 C          -7.9417  -19.2888   21.2803 C.3     1  UNL1        0.0991
     28 C          -9.0551  -19.2631   22.2852 C.ar    1  UNL1       -0.0061
     29 C          -8.9227  -20.0243   23.5709 C.ar    1  UNL1       -0.0029
     30 C         -10.0360  -19.9986   24.5757 C.ar    1  UNL1       -0.0002
     31 C         -11.2818  -19.2117   24.2949 C.ar    1  UNL1        0.0022
     32 C         -12.3952  -19.1861   25.2998 C.ar    1  UNL1        0.0296
     33 C         -13.6410  -18.3992   25.0190 C.ar    1  UNL1        0.1401
     34 F         -14.7543  -18.3736   26.0238 F       1  UNL1       -0.2042
     35 C         -13.7734  -17.6381   23.7332 C.ar    1  UNL1        0.0296
     36 C         -12.6601  -17.6638   22.7283 C.ar    1  UNL1        0.0023
     37 C         -11.4143  -18.4506   23.0092 C.ar    1  UNL1       -0.0001
     38 C         -10.3009  -18.4763   22.0043 C.ar    1  UNL1       -0.0029
@<TRIPOS>BOND
     1     9    10    2
     2    10    11   am
     3     1    11    1
     4     1     2    1
     5     3     2    1
     6     3     4    1
     7     4     5    1
     8     6     5    1
     9     6     7    1
    10     6     8    1
    11     8    27    1
    12    27    28    1
    13    28    29   ar
    14    29    30   ar
    15    30    31   ar
    16    31    32   ar
    17    32    33   ar
    18    33    34    1
    19    33    35   ar
    20    35    36   ar
    21    36    37   ar
    22    37    38   ar
    23    10    13    1
    24    13    14   ar
    25    14    15   ar
    26    15    16   ar
    27    16    17   ar
    28    17    18   ar
    29    18    19    1
    30    19    20    2
    31    19    21   am
    32    21    22    1
    33    22    23    1
    34    23    24    1
    35    24    25    1
    36    25    26    1
    37     7     1    1
    38    38    28   ar
    39    18    13   ar
    40    26    21    1
    41     8     3    1
    42    37    31   ar
    43    11    12    1
@<TRIPOS>MOLECULE
*****
 38 43 0 0 0
SMALL
GASTEIGER

@<TRIPOS>ATOM
      1 C           5.3099   -1.5430   31.7510 C.3     1  UNL1        0.0745
      2 C           5.9326   -1.7222   30.3981 C.3     1  UNL1        0.0356
      3 C           6.6669   -2.9889   30.0723 C.3     1  UNL1        0.0594
      4 C           7.2741   -4.3557   30.1870 C.3     1  UNL1        0.0174
      5 C           6.9790   -4.8801   31.5611 C.3     1  UNL1        0.0174
      6 C           6.1895   -3.8374   32.2955 C.3     1  UNL1        0.0594
      7 C           5.4215   -2.6304   32.7780 C.3     1  UNL1        0.0356
      8 N           5.9966   -2.6686   31.3754 N.3     1  UNL1       -0.2715
      9 O           2.4231   -1.2448   30.9910 O.2     1  UNL1       -0.2701
     10 C           3.1322   -0.1271   31.6967 C.2     1  UNL1        0.2459
     11 N           4.5756   -0.2762   32.0767 N.am    1  UNL1       -0.3024
     12 H           5.0410    0.4574   32.5400 H       1  UNL1        0.1497
     13 C           2.3978    1.1396   32.0225 C.ar    1  UNL1        0.0577
     14 C           2.5565    1.7724   33.3732 C.ar    1  UNL1        0.0047
     15 C           1.8222    3.0391   33.6989 C.ar    1  UNL1        0.0001
     16 C           0.9291    3.6731   32.6739 C.ar    1  UNL1        0.0001
     17 C           0.7704    3.0404   31.3232 C.ar    1  UNL1        0.0047
     18 C           1.5048    1.7736   30.9975 C.ar    1  UNL1        0.0579
     19 C           1.3462    1.1408   29.6468 C.2     1  UNL1        0.2493
     20 O           0.0818    0.3364   29.7131 O.2     1  UNL1       -0.2699
     21 N           2.3666    1.3920   28.5764 N.am    1  UNL1       -0.2709
     22 C           3.5455    2.2759   28.8567 C.3     1  UNL1        0.1258
     23 C           4.5659    2.5271   27.7862 C.3     1  UNL1        0.1637
     24 O           4.4072    1.8944   26.4355 O.3     1  UNL1       -0.3501
     25 C           3.2282    1.0104   26.1552 C.3     1  UNL1        0.1637
     26 C           2.2079    0.7592   27.2256 C.3     1  UNL1        0.1258
     27 C           5.2623   -1.4018   31.7012 C.3     1  UNL1        0.0991
     28 C           5.6849   -0.5709   32.8764 C.ar    1  UNL1       -0.0061
     29 C           6.8685    0.3433   32.7616 C.ar    1  UNL1       -0.0029
     30 C           7.2912    1.1742   33.9368 C.ar    1  UNL1       -0.0002
     31 C           6.5302    1.0908   35.2267 C.ar    1  UNL1        0.0022
     32 C           6.9529    1.9217   36.4019 C.ar    1  UNL1        0.0296
     33 C           6.1919    1.8383   37.6919 C.ar    1  UNL1        0.1401
     34 F           6.6146    2.6691   38.8670 F       1  UNL1       -0.2042
     35 C           5.0083    0.9240   37.8066 C.ar    1  UNL1        0.0296
     36 C           4.5856    0.0931   36.6315 C.ar    1  UNL1        0.0023
     37 C           5.3466    0.1765   35.3415 C.ar    1  UNL1       -0.0001
     38 C           4.9240   -0.6543   34.1664 C.ar    1  UNL1       -0.0029
@<TRIPOS>BOND
     1     9    10    2
     2    10    11   am
     3     1    11    1
     4     1     2    1
     5     3     2    1
     6     3     4    1
     7     4     5    1
     8     6     5    1
     9     6     7    1
    10     6     8    1
    11     8    27    1
    12    27    28    1
    13    28    29   ar
    14    29    30   ar
    15    30    31   ar
    16    31    32   ar
    17    32    33   ar
    18    33    34    1
    19    33    35   ar
    20    35    36   ar
    21    36    37   ar
    22    37    38   ar
    23    10    13    1
    24    13    14   ar
    25    14    15   ar
    26    15    16   ar
    27    16    17   ar
    28    17    18   ar
    29    18    19    1
    30    19    20    2
    31    19    21   am
    32    21    22    1
    33    22    23    1
    34    23    24    1
    35    24    25    1
    36    25    26    1
    37     7     1    1
    38    38    28   ar
    39    18    13   ar
    40    26    21    1
    41     8     3    1
    42    37    31   ar
    43    11    12    1
@<TRIPOS>MOLECULE
*****
 38 43 0 0 0
SMALL
GASTEIGER

@<TRIPOS>ATOM
      1 C           6.7967    0.6085   17.9367 C.3     1  UNL1        0.0745
      2 C           7.7402    1.3385   18.8460 C.3     1  UNL1        0.0356
      3 C           8.6329    2.4110   18.2958 C.3     1  UNL1        0.0594
      4 C           9.3047    3.3618   17.3500 C.3     1  UNL1        0.0174
      5 C           8.7306    3.1380   15.9823 C.3     1  UNL1        0.0174
      6 C           7.7042    2.0489   16.0829 C.3     1  UNL1        0.0594
      7 C           6.7460    0.9509   16.4772 C.3     1  UNL1        0.0356
      8 N           7.6438    1.5995   17.5128 N.3     1  UNL1       -0.2715
      9 O           7.8905   -2.1380   18.4470 O.2     1  UNL1       -0.2701
     10 C           6.4508   -1.8373   18.7421 C.2     1  UNL1        0.2459
     11 N           5.9039   -0.4641   18.4869 N.am    1  UNL1       -0.3024
     12 H           4.9590   -0.2667   18.6805 H       1  UNL1        0.1497
     13 C           5.5581   -2.9098   19.2923 C.ar    1  UNL1        0.0577
     14 C           5.0437   -3.9930   18.3911 C.ar    1  UNL1        0.0047
     15 C           4.1510   -5.0655   18.9413 C.ar    1  UNL1        0.0001
     16 C           3.7726   -5.0548   20.3928 C.ar    1  UNL1        0.0001
     17 C           4.2870   -3.9717   21.2940 C.ar    1  UNL1        0.0047
     18 C           5.1797   -2.8992   20.7437 C.ar    1  UNL1        0.0579
     19 C           5.6941   -1.8160   21.6449 C.2     1  UNL1        0.2493
     20 O           7.1376   -2.1376   21.8956 O.2     1  UNL1       -0.2699
     21 N           4.7785   -0.7158   22.0935 N.am    1  UNL1       -0.2709
     22 C           3.3485   -0.6987   21.6408 C.3     1  UNL1        0.1258
     23 C           2.4329    0.4015   22.0894 C.3     1  UNL1        0.1637
     24 O           2.9472    1.4847   22.9906 O.3     1  UNL1       -0.3501
     25 C           4.3773    1.4676   23.4433 C.3     1  UNL1        0.1637
     26 C           5.2928    0.3674   22.9947 C.3     1  UNL1        0.1258
     27 C           6.7510    0.5271   18.0629 C.3     1  UNL1        0.0991
     28 C           5.2765    0.7711   18.1908 C.ar    1  UNL1       -0.0061
     29 C           4.3022   -0.1629   17.5363 C.ar    1  UNL1       -0.0029
     30 C           2.8277    0.0812   17.6642 C.ar    1  UNL1       -0.0002
     31 C           2.3276    1.2592   18.4465 C.ar    1  UNL1        0.0022
     32 C           0.8531    1.5033   18.5744 C.ar    1  UNL1        0.0296
     33 C           0.3529    2.6813   19.3567 C.ar    1  UNL1        0.1401
     34 F          -1.1215    2.9254   19.4846 F       1  UNL1       -0.2042
     35 C           1.3273    3.6153   20.0112 C.ar    1  UNL1        0.0296
     36 C           2.8018    3.3713   19.8833 C.ar    1  UNL1        0.0023
     37 C           3.3019    2.1932   19.1010 C.ar    1  UNL1       -0.0001
     38 C           4.7763    1.9491   18.9731 C.ar    1  UNL1       -0.0029
@<TRIPOS>BOND
     1     9    10    2
     2    10    11   am
     3     1    11    1
     4     1     2    1
     5     3     2    1
     6     3     4    1
     7     4     5    1
     8     6     5    1
     9     6     7    1
    10     6     8    1
    11     8    27    1
    12    27    28    1
    13    28    29   ar
    14    29    30   ar
    15    30    31   ar
    16    31    32   ar
    17    32    33   ar
    18    33    34    1
    19    33    35   ar
    20    35    36   ar
    21    36    37   ar
    22    37    38   ar
    23    10    13    1
    24    13    14   ar
    25    14    15   ar
    26    15    16   ar
    27    16    17   ar
    28    17    18   ar
    29    18    19    1
    30    19    20    2
    31    19    21   am
    32    21    22    1
    33    22    23    1
    34    23    24    1
    35    24    25    1
    36    25    26    1
    37     7     1    1
    38    38    28   ar
    39    18    13   ar
    40    26    21    1
    41     8     3    1
    42    37    31   ar
    43    11    12    1
@<TRIPOS>MOLECULE
*****
 38 43 0 0 0
SMALL
GASTEIGER

@<TRIPOS>ATOM
      1 C           0.9142    1.5286   23.3076 C.3     1  UNL1        0.0745
      2 C           0.2288    2.8377   23.0493 C.3     1  UNL1        0.0356
      3 C          -0.6799    3.4261   24.0875 C.3     1  UNL1        0.0594
      4 C          -1.4618    3.6236   25.3523 C.3     1  UNL1        0.0174
      5 C          -1.1951    2.4518   26.2499 C.3     1  UNL1        0.0174
      6 C          -0.2484    1.5300   25.5399 C.3     1  UNL1        0.0594
      7 C           0.6908    0.8080   24.6040 C.3     1  UNL1        0.0356
      8 N           0.0700    2.1322   24.2034 N.3     1  UNL1       -0.2715
      9 O          -0.2437    0.2061   20.8765 O.2     1  UNL1       -0.2701
     10 C           1.2440    0.2789   21.0538 C.2     1  UNL1        0.2459
     11 N           1.8230    0.9402   22.2693 N.am    1  UNL1       -0.3024
     12 H           2.7994    0.9880   22.3857 H       1  UNL1        0.1497
     13 C           2.1527   -0.3095   20.0156 C.ar    1  UNL1        0.0577
     14 C           2.7699   -1.6586   20.2368 C.ar    1  UNL1        0.0047
     15 C           3.6786   -2.2470   19.1985 C.ar    1  UNL1        0.0001
     16 C           3.9702   -1.4863   17.9390 C.ar    1  UNL1        0.0001
     17 C           3.3530   -0.1372   17.7178 C.ar    1  UNL1        0.0047
     18 C           2.4443    0.4512   18.7561 C.ar    1  UNL1        0.0579
     19 C           1.8271    1.8004   18.5349 C.2     1  UNL1        0.2493
     20 O           0.4771    1.5438   17.9335 O.2     1  UNL1       -0.2699
     21 N           2.5816    3.0411   18.9112 N.am    1  UNL1       -0.2709
     22 C           3.9531    2.9326   19.5087 C.3     1  UNL1        0.1258
     23 C           4.7076    4.1733   19.8850 C.3     1  UNL1        0.1637
     24 O           4.0904    5.5224   19.6638 O.3     1  UNL1       -0.3501
     25 C           2.7188    5.6309   19.0663 C.3     1  UNL1        0.1637
     26 C           1.9644    4.3902   18.6900 C.3     1  UNL1        0.1258
     27 C           0.9788    1.5437   23.1653 C.3     1  UNL1        0.0991
     28 C           2.3916    1.1864   23.5209 C.ar    1  UNL1       -0.0061
     29 C           3.4260    2.2639   23.6578 C.ar    1  UNL1       -0.0029
     30 C           4.8387    1.9065   24.0133 C.ar    1  UNL1       -0.0002
     31 C           5.2170    0.4716   24.2320 C.ar    1  UNL1        0.0022
     32 C           6.6298    0.1142   24.5876 C.ar    1  UNL1        0.0296
     33 C           7.0081   -1.3207   24.8062 C.ar    1  UNL1        0.1401
     34 F           8.4208   -1.6781   25.1618 F       1  UNL1       -0.2042
     35 C           5.9736   -2.3983   24.6693 C.ar    1  UNL1        0.0296
     36 C           4.5609   -2.0409   24.3137 C.ar    1  UNL1        0.0023
     37 C           4.1826   -0.6060   24.0951 C.ar    1  UNL1       -0.0001
     38 C           2.7699   -0.2486   23.7395 C.ar    1  UNL1       -0.0029
@<TRIPOS>BOND
     1     9    10    2
     2    10    11   am
     3     1    11    1
     4     1     2    1
     5     3     2    1
     6     3     4    1
     7     4     5    1
     8     6     5    1
     9     6     7    1
    10     6     8    1
    11     8    27    1
    12    27    28    1
    13    28    29   ar
    14    29    30   ar
    15    30    31   ar
    16    31    32   ar
    17    32    33   ar
    18    33    34    1
    19    33    35   ar
    20    35    36   ar
    21    36    37   ar
    22    37    38   ar
    23    10    13    1
    24    13    14   ar
    25    14    15   ar
    26    15    16   ar
    27    16    17   ar
    28    17    18   ar
    29    18    19    1
    30    19    20    2
    31    19    21   am
    32    21    22    1
    33    22    23    1
    34    23    24    1
    35    24    25    1
    36    25    26    1
    37     7     1    1
    38    38    28   ar
    39    18    13   ar
    40    26    21    1
    41     8     3    1
    42    37    31   ar
    43    11    12    1
