@<TRIPOS>MOLECULE
*****
 18 20 0 0 0
SMALL
GASTEIGER

@<TRIPOS>ATOM
      1 C          -8.0169  -19.0560   22.2714 C.ar    1  UNL1       -0.0208
      2 C          -8.6854  -20.1177   23.0935 C.ar    1  UNL1       -0.0042
      3 C         -10.1053  -19.9362   23.5418 C.ar    1  UNL1       -0.0003
      4 C         -10.8568  -18.6929   23.1679 C.ar    1  UNL1       -0.0000
      5 C         -12.2766  -18.5114   23.6161 C.ar    1  UNL1       -0.0000
      6 C         -13.0280  -17.2682   23.2422 C.ar    1  UNL1       -0.0000
      7 C         -12.3595  -16.2065   22.4201 C.ar    1  UNL1       -0.0000
      8 C         -10.9396  -16.3880   21.9719 C.ar    1  UNL1       -0.0000
      9 C         -10.1882  -17.6312   22.3458 C.ar    1  UNL1       -0.0003
     10 C          -8.7683  -17.8128   21.8975 C.ar    1  UNL1       -0.0042
     11 C          -3.7003  -20.1951   20.3905 C.2     1  UNL1       -0.0136
     12 C          -5.0772  -20.7513   20.1786 C.2     1  UNL1       -0.0289
     13 C          -6.3664  -20.3252   20.8162 C.3     1  UNL1        0.0315
     14 C          -6.5970  -19.2376   21.8232 C.3     1  UNL1        0.0424
     15 C          -5.5954  -18.3076   22.4412 C.3     1  UNL1        0.0735
     16 N          -4.1160  -18.2354   22.2050 N.3     1  UNL1       -0.2935
     17 C          -3.2726  -19.0755   21.2923 C.3     1  UNL1        0.0950
     18 H          -3.7030  -18.3676   23.1282 H       1  UNL1        0.1236
@<TRIPOS>BOND
     1    11    12    2
     2    12    13    1
     3    13    14    1
     4    14     1    1
     5     1     2   ar
     6     2     3   ar
     7     3     4   ar
     8     4     5   ar
     9     5     6   ar
    10     6     7   ar
    11     7     8   ar
    12     8     9   ar
    13     9    10   ar
    14    14    15    1
    15    15    16    1
    16    16    17    1
    17    17    11    1
    18    10     1   ar
    19     9     4   ar
    20    16    18    1
@<TRIPOS>MOLECULE
*****
 18 20 0 0 0
SMALL
GASTEIGER

@<TRIPOS>ATOM
      1 C          -7.9668  -18.6353   21.5531 C.ar    1  UNL1       -0.0208
      2 C          -7.8416  -19.5345   20.3590 C.ar    1  UNL1       -0.0042
      3 C          -6.4973  -20.0643   19.9567 C.ar    1  UNL1       -0.0003
      4 C          -5.2779  -19.6949   20.7485 C.ar    1  UNL1       -0.0000
      5 C          -3.9335  -20.2247   20.3462 C.ar    1  UNL1       -0.0000
      6 C          -2.7143  -19.8553   21.1379 C.ar    1  UNL1       -0.0000
      7 C          -2.8394  -18.9562   22.3320 C.ar    1  UNL1       -0.0000
      8 C          -4.1838  -18.4264   22.7343 C.ar    1  UNL1       -0.0000
      9 C          -5.4031  -18.7957   21.9425 C.ar    1  UNL1       -0.0003
     10 C          -6.7475  -18.2659   22.3448 C.ar    1  UNL1       -0.0042
     11 C         -12.4580  -17.6301   23.0652 C.2     1  UNL1       -0.0136
     12 C         -11.6583  -18.8988   23.0359 C.2     1  UNL1       -0.0289
     13 C         -10.2578  -19.1104   22.5420 C.3     1  UNL1        0.0315
     14 C          -9.3113  -18.1055   21.9553 C.3     1  UNL1        0.0424
     15 C          -9.5313  -16.6409   21.7178 C.3     1  UNL1        0.0735
     16 N         -10.7522  -15.8193   22.0081 N.3     1  UNL1       -0.2935
     17 C         -12.0548  -16.2596   22.6079 C.3     1  UNL1        0.0950
     18 H         -11.0091  -15.4161   21.1071 H       1  UNL1        0.1236
@<TRIPOS>BOND
     1    11    12    2
     2    12    13    1
     3    13    14    1
     4    14     1    1
     5     1     2   ar
     6     2     3   ar
     7     3     4   ar
     8     4     5   ar
     9     5     6   ar
    10     6     7   ar
    11     7     8   ar
    12     8     9   ar
    13     9    10   ar
    14    14    15    1
    15    15    16    1
    16    16    17    1
    17    17    11    1
    18    10     1   ar
    19     9     4   ar
    20    16    18    1
@<TRIPOS>MOLECULE
*****
 18 20 0 0 0
SMALL
GASTEIGER

@<TRIPOS>ATOM
      1 C          -7.4026  -19.0060   21.1306 C.ar    1  UNL1       -0.0208
      2 C          -8.1262  -19.4995   19.9128 C.ar    1  UNL1       -0.0042
      3 C          -9.6108  -19.3189   19.7981 C.ar    1  UNL1       -0.0003
      4 C         -10.3719  -18.6447   20.9010 C.ar    1  UNL1       -0.0000
      5 C         -11.8565  -18.4641   20.7862 C.ar    1  UNL1       -0.0000
      6 C         -12.6175  -17.7900   21.8891 C.ar    1  UNL1       -0.0000
      7 C         -11.8938  -17.2966   23.1068 C.ar    1  UNL1       -0.0000
      8 C         -10.4092  -17.4772   23.2216 C.ar    1  UNL1       -0.0000
      9 C          -9.6482  -18.1513   22.1187 C.ar    1  UNL1       -0.0003
     10 C          -8.1635  -18.3319   22.2335 C.ar    1  UNL1       -0.0042
     11 C          -2.6598  -19.1475   22.1075 C.2     1  UNL1       -0.0136
     12 C          -3.8134  -18.4638   22.7796 C.2     1  UNL1       -0.0289
     13 C          -5.2634  -18.4812   22.3959 C.3     1  UNL1        0.0315
     14 C          -5.9178  -19.1867   21.2453 C.3     1  UNL1        0.0424
     15 C          -5.2840  -20.0489   20.1942 C.3     1  UNL1        0.0735
     16 N          -3.8392  -20.4187   20.0341 N.3     1  UNL1       -0.2935
     17 C          -2.6713  -20.0175   20.8857 C.3     1  UNL1        0.0950
     18 H          -3.5952  -20.0965   19.0976 H       1  UNL1        0.1236
@<TRIPOS>BOND
     1    11    12    2
     2    12    13    1
     3    13    14    1
     4    14     1    1
     5     1     2   ar
     6     2     3   ar
     7     3     4   ar
     8     4     5   ar
     9     5     6   ar
    10     6     7   ar
    11     7     8   ar
    12     8     9   ar
    13     9    10   ar
    14    14    15    1
    15    15    16    1
    16    16    17    1
    17    17    11    1
    18    10     1   ar
    19     9     4   ar
    20    16    18    1
@<TRIPOS>MOLECULE
*****
 18 20 0 0 0
SMALL
GASTEIGER

@<TRIPOS>ATOM
      1 C          -7.2824  -17.5787   22.8201 C.ar    1  UNL1       -0.0208
      2 C          -6.5377  -16.5475   23.6153 C.ar    1  UNL1       -0.0042
      3 C          -5.0386  -16.5721   23.6581 C.ar    1  UNL1       -0.0003
      4 C          -4.2840  -17.6279   22.9056 C.ar    1  UNL1       -0.0000
      5 C          -2.7848  -17.6525   22.9484 C.ar    1  UNL1       -0.0000
      6 C          -2.0303  -18.7082   22.1960 C.ar    1  UNL1       -0.0000
      7 C          -2.7750  -19.7393   21.4008 C.ar    1  UNL1       -0.0000
      8 C          -4.2742  -19.7147   21.3580 C.ar    1  UNL1       -0.0000
      9 C          -5.0287  -18.6590   22.1105 C.ar    1  UNL1       -0.0003
     10 C          -6.5279  -18.6344   22.0677 C.ar    1  UNL1       -0.0042
     11 C         -12.0845  -18.2084   22.9290 C.2     1  UNL1       -0.0136
     12 C         -10.9356  -19.1112   23.2683 C.2     1  UNL1       -0.0289
     13 C          -9.4657  -18.8200   23.2009 C.3     1  UNL1        0.0315
     14 C          -8.7816  -17.5540   22.7774 C.3     1  UNL1        0.0424
     15 C          -9.3985  -16.2666   22.3168 C.3     1  UNL1        0.0735
     16 N         -10.8517  -15.9272   22.1659 N.3     1  UNL1       -0.2935
     17 C         -12.0472  -16.7915   22.4384 C.3     1  UNL1        0.0950
     18 H         -10.9505  -15.6555   21.1878 H       1  UNL1        0.1236
@<TRIPOS>BOND
     1    11    12    2
     2    12    13    1
     3    13    14    1
     4    14     1    1
     5     1     2   ar
     6     2     3   ar
     7     3     4   ar
     8     4     5   ar
     9     5     6   ar
    10     6     7   ar
    11     7     8   ar
    12     8     9   ar
    13     9    10   ar
    14    14    15    1
    15    15    16    1
    16    16    17    1
    17    17    11    1
    18    10     1   ar
    19     9     4   ar
    20    16    18    1
@<TRIPOS>MOLECULE
*****
 18 20 0 0 0
SMALL
GASTEIGER

@<TRIPOS>ATOM
      1 C          -8.6297  -16.9523   23.3208 C.ar    1  UNL1       -0.0208
      2 C         -10.0992  -16.6902   23.1731 C.ar    1  UNL1       -0.0042
      3 C         -10.8609  -17.3087   22.0386 C.ar    1  UNL1       -0.0003
      4 C         -10.1532  -18.1893   21.0517 C.ar    1  UNL1       -0.0000
      5 C         -10.9149  -18.8078   19.9172 C.ar    1  UNL1       -0.0000
      6 C         -10.2071  -19.6883   18.9305 C.ar    1  UNL1       -0.0000
      7 C          -8.7376  -19.9503   19.0782 C.ar    1  UNL1       -0.0000
      8 C          -7.9759  -19.3318   20.2128 C.ar    1  UNL1       -0.0000
      9 C          -8.6836  -18.4513   21.1995 C.ar    1  UNL1       -0.0003
     10 C          -7.9219  -17.8328   22.3341 C.ar    1  UNL1       -0.0042
     11 C          -6.7617  -15.1439   27.4085 C.2     1  UNL1       -0.0136
     12 C          -8.0587  -15.8334   27.1047 C.2     1  UNL1       -0.0289
     13 C          -8.5511  -16.3629   25.7905 C.3     1  UNL1        0.0315
     14 C          -7.8679  -16.3337   24.4554 C.3     1  UNL1        0.0424
     15 C          -6.5237  -15.7678   24.1049 C.3     1  UNL1        0.0735
     16 N          -5.5307  -15.0913   25.0027 N.3     1  UNL1       -0.2935
     17 C          -5.6367  -14.8136   26.4730 C.3     1  UNL1        0.0950
     18 H          -5.3864  -14.1746   24.5793 H       1  UNL1        0.1236
@<TRIPOS>BOND
     1    11    12    2
     2    12    13    1
     3    13    14    1
     4    14     1    1
     5     1     2   ar
     6     2     3   ar
     7     3     4   ar
     8     4     5   ar
     9     5     6   ar
    10     6     7   ar
    11     7     8   ar
    12     8     9   ar
    13     9    10   ar
    14    14    15    1
    15    15    16    1
    16    16    17    1
    17    17    11    1
    18    10     1   ar
    19     9     4   ar
    20    16    18    1
@<TRIPOS>MOLECULE
*****
 18 20 0 0 0
SMALL
GASTEIGER

@<TRIPOS>ATOM
      1 C          -7.3512  -18.1402   22.0620 C.ar    1  UNL1       -0.0208
      2 C          -7.4566  -17.0001   23.0310 C.ar    1  UNL1       -0.0042
      3 C          -8.7970  -16.4056   23.3467 C.ar    1  UNL1       -0.0003
      4 C         -10.0322  -16.9513   22.6934 C.ar    1  UNL1       -0.0000
      5 C         -11.3726  -16.3568   23.0092 C.ar    1  UNL1       -0.0000
      6 C         -12.6077  -16.9025   22.3559 C.ar    1  UNL1       -0.0000
      7 C         -12.5023  -18.0426   21.3869 C.ar    1  UNL1       -0.0000
      8 C         -11.1619  -18.6371   21.0712 C.ar    1  UNL1       -0.0000
      9 C          -9.9268  -18.0914   21.7245 C.ar    1  UNL1       -0.0003
     10 C          -8.5863  -18.6859   21.4088 C.ar    1  UNL1       -0.0042
     11 C          -2.7740  -19.6684   21.6348 C.2     1  UNL1       -0.0136
     12 C          -3.4478  -18.7440   22.6050 C.2     1  UNL1       -0.0289
     13 C          -4.8883  -18.3284   22.6547 C.3     1  UNL1        0.0315
     14 C          -6.0106  -18.7347   21.7463 C.3     1  UNL1        0.0424
     15 C          -5.9698  -19.6569   20.5640 C.3     1  UNL1        0.0735
     16 N          -4.7966  -20.4006   19.9980 N.3     1  UNL1       -0.2935
     17 C          -3.3742  -20.4057   20.4746 C.3     1  UNL1        0.0950
     18 H          -4.7401  -20.0889   19.0284 H       1  UNL1        0.1236
@<TRIPOS>BOND
     1    11    12    2
     2    12    13    1
     3    13    14    1
     4    14     1    1
     5     1     2   ar
     6     2     3   ar
     7     3     4   ar
     8     4     5   ar
     9     5     6   ar
    10     6     7   ar
    11     7     8   ar
    12     8     9   ar
    13     9    10   ar
    14    14    15    1
    15    15    16    1
    16    16    17    1
    17    17    11    1
    18    10     1   ar
    19     9     4   ar
    20    16    18    1
@<TRIPOS>MOLECULE
*****
 18 20 0 0 0
SMALL
GASTEIGER

@<TRIPOS>ATOM
      1 C         -14.3862   -6.9508   18.9888 C.ar    1  UNL1       -0.0208
      2 C         -14.8001   -5.5607   19.3713 C.ar    1  UNL1       -0.0042
      3 C         -13.7874   -4.4544   19.3877 C.ar    1  UNL1       -0.0003
      4 C         -12.3606   -4.7381   19.0215 C.ar    1  UNL1       -0.0000
      5 C         -11.3479   -3.6318   19.0378 C.ar    1  UNL1       -0.0000
      6 C          -9.9213   -3.9155   18.6716 C.ar    1  UNL1       -0.0000
      7 C          -9.5074   -5.3056   18.2891 C.ar    1  UNL1       -0.0000
      8 C         -10.5201   -6.4119   18.2727 C.ar    1  UNL1       -0.0000
      9 C         -11.9467   -6.1282   18.6389 C.ar    1  UNL1       -0.0003
     10 C         -12.9596   -7.2346   18.6226 C.ar    1  UNL1       -0.0042
     11 C         -18.1163  -10.0293   19.2683 C.2     1  UNL1       -0.0136
     12 C         -17.9462   -8.6012   19.6946 C.2     1  UNL1       -0.0289
     13 C         -16.7369   -7.7235   19.5629 C.3     1  UNL1        0.0315
     14 C         -15.3990   -8.0572   18.9725 C.3     1  UNL1        0.0424
     15 C         -14.9400   -9.3509   18.3679 C.3     1  UNL1        0.0735
     16 N         -15.7053  -10.6305   18.2044 N.3     1  UNL1       -0.2935
     17 C         -17.1190  -10.9324   18.6052 C.3     1  UNL1        0.0950
     18 H         -15.1460  -11.3275   18.6961 H       1  UNL1        0.1236
@<TRIPOS>BOND
     1    11    12    2
     2    12    13    1
     3    13    14    1
     4    14     1    1
     5     1     2   ar
     6     2     3   ar
     7     3     4   ar
     8     4     5   ar
     9     5     6   ar
    10     6     7   ar
    11     7     8   ar
    12     8     9   ar
    13     9    10   ar
    14    14    15    1
    15    15    16    1
    16    16    17    1
    17    17    11    1
    18    10     1   ar
    19     9     4   ar
    20    16    18    1
@<TRIPOS>MOLECULE
*****
 18 20 0 0 0
SMALL
GASTEIGER

@<TRIPOS>ATOM
      1 C         -14.4568   -6.0160   19.3071 C.ar    1  UNL1       -0.0208
      2 C         -15.3979   -4.8563   19.4464 C.ar    1  UNL1       -0.0042
      3 C         -16.8711   -5.0991   19.5902 C.ar    1  UNL1       -0.0003
      4 C         -17.4032   -6.5016   19.5947 C.ar    1  UNL1       -0.0000
      5 C         -18.8764   -6.7444   19.7385 C.ar    1  UNL1       -0.0000
      6 C         -19.4085   -8.1468   19.7431 C.ar    1  UNL1       -0.0000
      7 C         -18.4673   -9.3065   19.6038 C.ar    1  UNL1       -0.0000
      8 C         -16.9941   -9.0637   19.4600 C.ar    1  UNL1       -0.0000
      9 C         -16.4621   -7.6613   19.4555 C.ar    1  UNL1       -0.0003
     10 C         -14.9888   -7.4184   19.3117 C.ar    1  UNL1       -0.0042
     11 C          -9.6472   -5.9734   18.7286 C.2     1  UNL1       -0.0136
     12 C         -10.6630   -7.0765   18.6917 C.2     1  UNL1       -0.0289
     13 C         -12.1479   -6.9874   18.8852 C.3     1  UNL1        0.0315
     14 C         -12.9835   -5.7732   19.1633 C.3     1  UNL1        0.0424
     15 C         -12.5408   -4.3482   19.3166 C.3     1  UNL1        0.0735
     16 N         -11.1531   -3.7855   19.2297 N.3     1  UNL1       -0.2935
     17 C          -9.8653   -4.5088   18.9680 C.3     1  UNL1        0.0950
     18 H         -11.0084   -3.3226   20.1270 H       1  UNL1        0.1236
@<TRIPOS>BOND
     1    11    12    2
     2    12    13    1
     3    13    14    1
     4    14     1    1
     5     1     2   ar
     6     2     3   ar
     7     3     4   ar
     8     4     5   ar
     9     5     6   ar
    10     6     7   ar
    11     7     8   ar
    12     8     9   ar
    13     9    10   ar
    14    14    15    1
    15    15    16    1
    16    16    17    1
    17    17    11    1
    18    10     1   ar
    19     9     4   ar
    20    16    18    1
@<TRIPOS>MOLECULE
*****
 18 20 0 0 0
SMALL
GASTEIGER

@<TRIPOS>ATOM
      1 C         -13.9978   -6.6962   18.8736 C.ar    1  UNL1       -0.0208
      2 C         -12.5506   -7.0759   18.7666 C.ar    1  UNL1       -0.0042
      3 C         -11.4971   -6.0094   18.7173 C.ar    1  UNL1       -0.0003
      4 C         -11.8907   -4.5630   18.7750 C.ar    1  UNL1       -0.0000
      5 C         -10.8372   -3.4965   18.7257 C.ar    1  UNL1       -0.0000
      6 C         -11.2308   -2.0503   18.7833 C.ar    1  UNL1       -0.0000
      7 C         -12.6780   -1.6706   18.8903 C.ar    1  UNL1       -0.0000
      8 C         -13.7316   -2.7371   18.9397 C.ar    1  UNL1       -0.0000
      9 C         -13.3379   -4.1833   18.8820 C.ar    1  UNL1       -0.0003
     10 C         -14.3915   -5.2500   18.9313 C.ar    1  UNL1       -0.0042
     11 C         -17.8274   -9.6214   19.3696 C.2     1  UNL1       -0.0136
     12 C         -17.5876   -8.1913   19.7534 C.2     1  UNL1       -0.0289
     13 C         -16.3521   -7.3641   19.5546 C.3     1  UNL1        0.0315
     14 C         -15.0514   -7.7629   18.9229 C.3     1  UNL1        0.0424
     15 C         -14.6648   -9.0871   18.3340 C.3     1  UNL1        0.0735
     16 N         -15.4835  -10.3398   18.2313 N.3     1  UNL1       -0.2935
     17 C         -16.8910  -10.5775   18.6922 C.3     1  UNL1        0.0950
     18 H         -14.9322  -11.0460   18.7189 H       1  UNL1        0.1236
@<TRIPOS>BOND
     1    11    12    2
     2    12    13    1
     3    13    14    1
     4    14     1    1
     5     1     2   ar
     6     2     3   ar
     7     3     4   ar
     8     4     5   ar
     9     5     6   ar
    10     6     7   ar
    11     7     8   ar
    12     8     9   ar
    13     9    10   ar
    14    14    15    1
    15    15    16    1
    16    16    17    1
    17    17    11    1
    18    10     1   ar
    19     9     4   ar
    20    16    18    1
