@<TRIPOS>MOLECULE
*****
 29 32 0 0 0
SMALL
GASTEIGER

@<TRIPOS>ATOM
      1 C          -8.5181  -15.9698   26.1409 C.ar    1  UNL1        0.2172
      2 N          -8.9913  -15.4842   24.8029 N.ar    1  UNL1       -0.2126
      3 C          -9.8078  -16.3849   23.9241 C.ar    1  UNL1        0.0994
      4 C         -10.1510  -17.7710   24.3833 C.ar    1  UNL1        0.0207
      5 C          -9.6778  -18.2565   25.7214 C.ar    1  UNL1        0.0994
      6 N          -8.8614  -17.3559   26.6001 N.ar    1  UNL1       -0.2126
      7 N          -7.7017  -15.0692   27.0197 N.pl3   1  UNL1       -0.2990
      8 H          -8.1466  -14.3940   27.5813 H       1  UNL1        0.1500
      9 C          -6.2073  -15.1974   27.0430 C.3     1  UNL1        0.1180
     10 C          -4.0121  -16.6034   23.3752 C.ar    1  UNL1        0.2250
     11 C          -3.9128  -17.3822   24.6533 C.ar    1  UNL1        0.0574
     12 C          -4.6446  -16.9135   25.8759 C.ar    1  UNL1        0.0037
     13 C          -5.4756  -15.6660   25.8204 C.ar    1  UNL1        0.0168
     14 C          -5.5748  -14.8872   24.5423 C.ar    1  UNL1        0.0994
     15 N          -4.8431  -15.3559   23.3197 N.ar    1  UNL1       -0.2104
     16 C          -2.0951  -16.3039   21.6473 C.3     1  UNL1        0.2542
     17 O          -3.2803  -17.0720   22.1525 O.3     1  UNL1       -0.4561
     18 C         -10.9675  -18.6716   23.5045 C.3     1  UNL1        0.0575
     19 C         -10.6239  -18.8144   22.0513 C.ar    1  UNL1        0.0044
     20 C         -11.5799  -18.6868   20.9026 C.ar    1  UNL1        0.0966
     21 N         -10.8107  -18.9033   19.6332 N.ar    1  UNL1       -0.2273
     22 C          -9.3792  -19.1647   19.9974 C.ar    1  UNL1        0.1402
     23 N          -8.1660  -19.4457   19.1613 N.ar    1  UNL1       -0.3377
     24 C          -6.8374  -19.6716   19.8197 C.ar    1  UNL1        0.0691
     25 C          -6.7219  -19.6166   21.3142 C.ar    1  UNL1       -0.0047
     26 C          -5.3931  -19.8426   21.9726 C.3     1  UNL1        0.0326
     27 C          -7.9351  -19.3357   22.1503 C.ar    1  UNL1       -0.0001
     28 C          -9.2638  -19.1097   21.4919 C.ar    1  UNL1        0.0315
     29 H          -8.2418  -19.4818   18.1803 H       1  UNL1        0.1674
@<TRIPOS>BOND
     1    16    17    1
     2    17    10    1
     3    10    11   ar
     4    11    12   ar
     5    12    13   ar
     6    13     9    1
     7     9     7    1
     8     7     1    1
     9     1     2   ar
    10     2     3   ar
    11     3     4   ar
    12     4    18    1
    13    18    19    1
    14    19    20   ar
    15    20    21   ar
    16    21    22   ar
    17    22    23   ar
    18    23    24   ar
    19    24    25   ar
    20    25    26    1
    21    25    27   ar
    22    27    28   ar
    23     4     5   ar
    24     5     6   ar
    25    13    14   ar
    26    14    15   ar
    27    15    10   ar
    28     6     1   ar
    29    28    19   ar
    30    28    22    1
    31     7     8    1
    32    23    29    1
@<TRIPOS>MOLECULE
*****
 29 32 0 0 0
SMALL
GASTEIGER

@<TRIPOS>ATOM
      1 C          -9.4984  -18.9961   21.3072 C.ar    1  UNL1        0.2172
      2 N          -8.9903  -18.9896   19.8960 N.ar    1  UNL1       -0.2126
      3 C          -7.6607  -19.6052   19.5748 C.ar    1  UNL1        0.0994
      4 C          -6.8393  -20.2273   20.6648 C.ar    1  UNL1        0.0207
      5 C          -7.3474  -20.2338   22.0761 C.ar    1  UNL1        0.0994
      6 N          -8.6770  -19.6182   22.3973 N.ar    1  UNL1       -0.2126
      7 N         -10.8280  -18.3805   21.6285 N.pl3   1  UNL1       -0.2990
      8 H         -11.6577  -18.8784   21.4471 H       1  UNL1        0.1500
      9 C         -10.8935  -17.0062   22.2262 C.3     1  UNL1        0.1180
     10 C          -7.2725  -15.2551   24.2439 C.ar    1  UNL1        0.2250
     11 C          -8.3503  -15.8994   25.0645 C.ar    1  UNL1        0.0574
     12 C          -9.5573  -16.4831   24.3919 C.ar    1  UNL1        0.0037
     13 C          -9.6865  -16.4225   22.8987 C.ar    1  UNL1        0.0168
     14 C          -8.6088  -15.7783   22.0781 C.ar    1  UNL1        0.0994
     15 N          -7.4018  -15.1946   22.7507 N.ar    1  UNL1       -0.2104
     16 C          -5.7707  -15.0044   26.3490 C.3     1  UNL1        0.2542
     17 O          -6.0655  -14.6714   24.9165 O.3     1  UNL1       -0.4561
     18 C          -5.5096  -20.8430   20.3436 C.3     1  UNL1        0.0575
     19 C          -4.2916  -19.9760   20.2212 C.ar    1  UNL1        0.0044
     20 C          -3.4068  -19.8638   19.0151 C.ar    1  UNL1        0.0966
     21 N          -2.3131  -18.8875   19.3319 N.ar    1  UNL1       -0.2273
     22 C          -2.5219  -18.3962   20.7337 C.ar    1  UNL1        0.1402
     23 N          -1.7565  -17.4232   21.5807 N.ar    1  UNL1       -0.3377
     24 C          -2.2140  -17.1230   22.9773 C.ar    1  UNL1        0.0691
     25 C          -3.4369  -17.7957   23.5269 C.ar    1  UNL1       -0.0047
     26 C          -3.8943  -17.4954   24.9236 C.3     1  UNL1        0.0326
     27 C          -4.2022  -18.7687   22.6799 C.ar    1  UNL1       -0.0001
     28 C          -3.7447  -19.0689   21.2833 C.ar    1  UNL1        0.0315
     29 H          -0.9539  -16.9817   21.2200 H       1  UNL1        0.1674
@<TRIPOS>BOND
     1    16    17    1
     2    17    10    1
     3    10    11   ar
     4    11    12   ar
     5    12    13   ar
     6    13     9    1
     7     9     7    1
     8     7     1    1
     9     1     2   ar
    10     2     3   ar
    11     3     4   ar
    12     4    18    1
    13    18    19    1
    14    19    20   ar
    15    20    21   ar
    16    21    22   ar
    17    22    23   ar
    18    23    24   ar
    19    24    25   ar
    20    25    26    1
    21    25    27   ar
    22    27    28   ar
    23     4     5   ar
    24     5     6   ar
    25    13    14   ar
    26    14    15   ar
    27    15    10   ar
    28     6     1   ar
    29    28    19   ar
    30    28    22    1
    31     7     8    1
    32    23    29    1
@<TRIPOS>MOLECULE
*****
 29 32 0 0 0
SMALL
GASTEIGER

@<TRIPOS>ATOM
      1 C          -6.2716  -15.8615   24.4787 C.ar    1  UNL1        0.2172
      2 N          -7.2930  -16.3120   25.4806 N.ar    1  UNL1       -0.2126
      3 C          -8.7410  -16.3822   25.0957 C.ar    1  UNL1        0.0994
      4 C          -9.1677  -16.0020   23.7089 C.ar    1  UNL1        0.0207
      5 C          -8.1464  -15.5515   22.7069 C.ar    1  UNL1        0.0994
      6 N          -6.6983  -15.4813   23.0918 N.ar    1  UNL1       -0.2126
      7 N          -4.8235  -15.7913   24.8635 N.pl3   1  UNL1       -0.2990
      8 H          -4.4549  -14.9613   25.2435 H       1  UNL1        0.1500
      9 C          -3.9370  -16.9857   24.6695 C.3     1  UNL1        0.1180
     10 C          -2.8063  -18.2974   20.5161 C.ar    1  UNL1        0.2250
     11 C          -3.5486  -19.2342   21.4225 C.ar    1  UNL1        0.0574
     12 C          -3.9255  -18.7969   22.8070 C.ar    1  UNL1        0.0037
     13 C          -3.5601  -17.4229   23.2850 C.ar    1  UNL1        0.0168
     14 C          -2.8178  -16.4861   22.3787 C.ar    1  UNL1        0.0994
     15 N          -2.4409  -16.9234   20.9942 N.ar    1  UNL1       -0.2104
     16 C          -1.7088  -17.7892   18.2167 C.3     1  UNL1        0.2542
     17 O          -2.4294  -18.7346   19.1317 O.3     1  UNL1       -0.4561
     18 C         -10.6159  -16.0722   23.3240 C.3     1  UNL1        0.0575
     19 C         -11.0175  -16.7145   22.0293 C.ar    1  UNL1        0.0044
     20 C         -12.2783  -16.4419   21.2637 C.ar    1  UNL1        0.0966
     21 N         -12.2688  -17.3011   20.0342 N.ar    1  UNL1       -0.2273
     22 C         -11.0021  -18.1046   20.0399 C.ar    1  UNL1        0.1402
     23 N         -10.4531  -19.1196   19.0816 N.ar    1  UNL1       -0.3377
     24 C          -9.1306  -19.7719   19.3564 C.ar    1  UNL1        0.0691
     25 C          -8.3573  -19.4094   20.5894 C.ar    1  UNL1       -0.0047
     26 C          -7.0348  -20.0618   20.8642 C.3     1  UNL1        0.0326
     27 C          -8.9064  -18.3944   21.5477 C.ar    1  UNL1       -0.0001
     28 C         -10.2288  -17.7420   21.2729 C.ar    1  UNL1        0.0315
     29 H         -10.9606  -19.3575   18.2723 H       1  UNL1        0.1674
@<TRIPOS>BOND
     1    16    17    1
     2    17    10    1
     3    10    11   ar
     4    11    12   ar
     5    12    13   ar
     6    13     9    1
     7     9     7    1
     8     7     1    1
     9     1     2   ar
    10     2     3   ar
    11     3     4   ar
    12     4    18    1
    13    18    19    1
    14    19    20   ar
    15    20    21   ar
    16    21    22   ar
    17    22    23   ar
    18    23    24   ar
    19    24    25   ar
    20    25    26    1
    21    25    27   ar
    22    27    28   ar
    23     4     5   ar
    24     5     6   ar
    25    13    14   ar
    26    14    15   ar
    27    15    10   ar
    28     6     1   ar
    29    28    19   ar
    30    28    22    1
    31     7     8    1
    32    23    29    1
@<TRIPOS>MOLECULE
*****
 29 32 0 0 0
SMALL
GASTEIGER

@<TRIPOS>ATOM
      1 C          -0.6085    2.2113   20.3149 C.ar    1  UNL1        0.2172
      2 N          -0.2524    0.7705   20.5326 N.ar    1  UNL1       -0.2126
      3 C           0.8672    0.1485   19.7519 C.ar    1  UNL1        0.0994
      4 C           1.6308    0.9672   18.7536 C.ar    1  UNL1        0.0207
      5 C           1.2748    2.4080   18.5359 C.ar    1  UNL1        0.0994
      6 N           0.1551    3.0300   19.3166 N.ar    1  UNL1       -0.2126
      7 N          -1.7281    2.8334   21.0955 N.pl3   1  UNL1       -0.2990
      8 H          -1.6381    2.9627   22.0673 H       1  UNL1        0.1500
      9 C          -2.9849    3.2585   20.3956 C.3     1  UNL1        0.1180
     10 C          -6.7002    4.1361   22.7779 C.ar    1  UNL1        0.2250
     11 C          -5.4758    3.6084   23.4652 C.ar    1  UNL1        0.0574
     12 C          -4.2373    3.3159   22.6710 C.ar    1  UNL1        0.0037
     13 C          -4.2233    3.5510   21.1896 C.ar    1  UNL1        0.0168
     14 C          -5.4478    4.0787   20.5024 C.ar    1  UNL1        0.0994
     15 N          -6.6862    4.3712   21.2965 N.ar    1  UNL1       -0.2104
     16 C          -8.2240    5.8289   24.0278 C.3     1  UNL1        0.2542
     17 O          -7.9387    4.4286   23.5720 O.3     1  UNL1       -0.4561
     18 C           2.7505    0.3451   17.9729 C.3     1  UNL1        0.0575
     19 C           4.0277   -0.0314   18.6637 C.ar    1  UNL1        0.0044
     20 C           5.1655    0.8939   18.9788 C.ar    1  UNL1        0.0966
     21 N           6.2323    0.0978   19.6704 N.ar    1  UNL1       -0.2273
     22 C           5.7537   -1.3194   19.7827 C.ar    1  UNL1        0.1402
     23 N           6.3826   -2.5475   20.3711 N.ar    1  UNL1       -0.3377
     24 C           5.6490   -3.8553   20.3373 C.ar    1  UNL1        0.0691
     25 C           4.2865   -3.9352   19.7151 C.ar    1  UNL1       -0.0047
     26 C           3.5529   -5.2432   19.6813 C.3     1  UNL1        0.0326
     27 C           3.6576   -2.7071   19.1267 C.ar    1  UNL1       -0.0001
     28 C           4.3912   -1.3992   19.1605 C.ar    1  UNL1        0.0315
     29 H           7.2769   -2.4951   20.7795 H       1  UNL1        0.1674
@<TRIPOS>BOND
     1    16    17    1
     2    17    10    1
     3    10    11   ar
     4    11    12   ar
     5    12    13   ar
     6    13     9    1
     7     9     7    1
     8     7     1    1
     9     1     2   ar
    10     2     3   ar
    11     3     4   ar
    12     4    18    1
    13    18    19    1
    14    19    20   ar
    15    20    21   ar
    16    21    22   ar
    17    22    23   ar
    18    23    24   ar
    19    24    25   ar
    20    25    26    1
    21    25    27   ar
    22    27    28   ar
    23     4     5   ar
    24     5     6   ar
    25    13    14   ar
    26    14    15   ar
    27    15    10   ar
    28     6     1   ar
    29    28    19   ar
    30    28    22    1
    31     7     8    1
    32    23    29    1
@<TRIPOS>MOLECULE
*****
 29 32 0 0 0
SMALL
GASTEIGER

@<TRIPOS>ATOM
      1 C          -0.4160    2.1744   20.6680 C.ar    1  UNL1        0.2172
      2 N          -0.1080    0.7115   20.7916 N.ar    1  UNL1       -0.2126
      3 C           0.8922    0.0755   19.8723 C.ar    1  UNL1        0.0994
      4 C           1.5844    0.9022   18.8296 C.ar    1  UNL1        0.0207
      5 C           1.2765    2.3651   18.7061 C.ar    1  UNL1        0.0994
      6 N           0.2763    3.0011   19.6253 N.ar    1  UNL1       -0.2126
      7 N          -1.4162    2.8105   21.5872 N.pl3   1  UNL1       -0.2990
      8 H          -2.3797    2.6842   21.4293 H       1  UNL1        0.1500
      9 C          -0.9484    3.6389   22.7470 C.3     1  UNL1        0.1180
     10 C          -0.9600    1.9057   26.8997 C.ar    1  UNL1        0.2250
     11 C          -0.0529    1.3339   25.8509 C.ar    1  UNL1        0.0574
     12 C          -0.0491    1.9116   24.4666 C.ar    1  UNL1        0.0037
     13 C          -0.9523    3.0612   24.1312 C.ar    1  UNL1        0.0168
     14 C          -1.8595    3.6331   25.1801 C.ar    1  UNL1        0.0994
     15 N          -1.8633    3.0553   26.5643 N.ar    1  UNL1       -0.2104
     16 C          -0.7711   -0.1463   28.4820 C.3     1  UNL1        0.2542
     17 O          -0.9639    1.3281   28.2840 O.3     1  UNL1       -0.4561
     18 C           2.5847    0.2661   17.9104 C.3     1  UNL1        0.0575
     19 C           3.9418   -0.1123   18.4251 C.ar    1  UNL1        0.0044
     20 C           5.1268    0.8000   18.5409 C.ar    1  UNL1        0.0966
     21 N           6.2696    0.0066   19.1018 N.ar    1  UNL1       -0.2273
     22 C           5.7908   -1.3961   19.3327 C.ar    1  UNL1        0.1402
     23 N           6.4790   -2.6159   19.8697 N.ar    1  UNL1       -0.3377
     24 C           5.7286   -3.9092   19.9886 C.ar    1  UNL1        0.0691
     25 C           4.2899   -3.9827   19.5703 C.ar    1  UNL1       -0.0047
     26 C           3.5395   -5.2761   19.6892 C.3     1  UNL1        0.0326
     27 C           3.6017   -2.7629   19.0333 C.ar    1  UNL1       -0.0001
     28 C           4.3522   -1.4696   18.9145 C.ar    1  UNL1        0.0315
     29 H           7.4233   -2.5676   20.1442 H       1  UNL1        0.1674
@<TRIPOS>BOND
     1    16    17    1
     2    17    10    1
     3    10    11   ar
     4    11    12   ar
     5    12    13   ar
     6    13     9    1
     7     9     7    1
     8     7     1    1
     9     1     2   ar
    10     2     3   ar
    11     3     4   ar
    12     4    18    1
    13    18    19    1
    14    19    20   ar
    15    20    21   ar
    16    21    22   ar
    17    22    23   ar
    18    23    24   ar
    19    24    25   ar
    20    25    26    1
    21    25    27   ar
    22    27    28   ar
    23     4     5   ar
    24     5     6   ar
    25    13    14   ar
    26    14    15   ar
    27    15    10   ar
    28     6     1   ar
    29    28    19   ar
    30    28    22    1
    31     7     8    1
    32    23    29    1
@<TRIPOS>MOLECULE
*****
 29 32 0 0 0
SMALL
GASTEIGER

@<TRIPOS>ATOM
      1 C           0.4667    2.0191   23.4915 C.ar    1  UNL1        0.2172
      2 N           1.4974    0.9522   23.2690 N.ar    1  UNL1       -0.2126
      3 C           1.7257    0.4059   21.8908 C.ar    1  UNL1        0.0994
      4 C           0.9235    0.9265   20.7352 C.ar    1  UNL1        0.0207
      5 C          -0.1072    1.9933   20.9578 C.ar    1  UNL1        0.0994
      6 N          -0.3355    2.5396   22.3359 N.ar    1  UNL1       -0.2126
      7 N           0.2383    2.5655   24.8697 N.pl3   1  UNL1       -0.2990
      8 H           0.6307    3.4309   25.1274 H       1  UNL1        0.1500
      9 C          -0.5878    1.7933   25.8553 C.3     1  UNL1        0.1180
     10 C           1.3837   -0.1780   29.3875 C.ar    1  UNL1        0.2250
     11 C           2.2228    0.4167   28.2956 C.ar    1  UNL1        0.0574
     12 C           1.5656    1.0738   27.1182 C.ar    1  UNL1        0.0037
     13 C           0.0693    1.1362   27.0327 C.ar    1  UNL1        0.0168
     14 C          -0.7698    0.5415   28.1246 C.ar    1  UNL1        0.0994
     15 N          -0.1126   -0.1156   29.3020 N.ar    1  UNL1       -0.2104
     16 C           3.1139   -0.1130   31.3245 C.3     1  UNL1        0.2542
     17 O           2.0408   -0.8351   30.5649 O.3     1  UNL1       -0.4561
     18 C           1.1519    0.3801   19.3570 C.3     1  UNL1        0.0575
     19 C           2.5490    0.2272   18.8328 C.ar    1  UNL1        0.0044
     20 C           3.3895    1.3151   18.2328 C.ar    1  UNL1        0.0966
     21 N           4.7108    0.7198   17.8458 N.ar    1  UNL1       -0.2273
     22 C           4.6870   -0.7360   18.2067 C.ar    1  UNL1        0.1402
     23 N           5.7092   -1.8237   18.0587 N.ar    1  UNL1       -0.3377
     24 C           5.3953   -3.2158   18.5207 C.ar    1  UNL1        0.0691
     25 C           4.0592   -3.5202   19.1307 C.ar    1  UNL1       -0.0047
     26 C           3.7453   -4.9124   19.5927 C.3     1  UNL1        0.0326
     27 C           3.0370   -2.4325   19.2787 C.ar    1  UNL1       -0.0001
     28 C           3.3508   -1.0404   18.8168 C.ar    1  UNL1        0.0315
     29 H           6.5861   -1.6238   17.6583 H       1  UNL1        0.1674
@<TRIPOS>BOND
     1    16    17    1
     2    17    10    1
     3    10    11   ar
     4    11    12   ar
     5    12    13   ar
     6    13     9    1
     7     9     7    1
     8     7     1    1
     9     1     2   ar
    10     2     3   ar
    11     3     4   ar
    12     4    18    1
    13    18    19    1
    14    19    20   ar
    15    20    21   ar
    16    21    22   ar
    17    22    23   ar
    18    23    24   ar
    19    24    25   ar
    20    25    26    1
    21    25    27   ar
    22    27    28   ar
    23     4     5   ar
    24     5     6   ar
    25    13    14   ar
    26    14    15   ar
    27    15    10   ar
    28     6     1   ar
    29    28    19   ar
    30    28    22    1
    31     7     8    1
    32    23    29    1
@<TRIPOS>MOLECULE
*****
 29 32 0 0 0
SMALL
GASTEIGER

@<TRIPOS>ATOM
      1 C           6.9732   -3.2259   24.2538 C.ar    1  UNL1        0.2172
      2 N           5.4895   -3.0056   24.2428 N.ar    1  UNL1       -0.2126
      3 C           4.7030   -3.2590   22.9909 C.ar    1  UNL1        0.0994
      4 C           5.4002   -3.7327   21.7501 C.ar    1  UNL1        0.0207
      5 C           6.8839   -3.9529   21.7611 C.ar    1  UNL1        0.0994
      6 N           7.6704   -3.6995   23.0130 N.ar    1  UNL1       -0.2126
      7 N           7.7598   -2.9725   25.5056 N.pl3   1  UNL1       -0.2990
      8 H           8.0494   -2.0583   25.7284 H       1  UNL1        0.1500
      9 C           8.1052   -4.1119   26.4180 C.3     1  UNL1        0.1180
     10 C           6.7819   -4.0319   30.7182 C.ar    1  UNL1        0.2250
     11 C           7.0027   -5.3440   30.0258 C.ar    1  UNL1        0.0574
     12 C           7.4438   -5.3706   28.5924 C.ar    1  UNL1        0.0037
     13 C           7.6641   -4.0852   27.8514 C.ar    1  UNL1        0.0168
     14 C           7.4433   -2.7730   28.5439 C.ar    1  UNL1        0.0994
     15 N           7.0022   -2.7464   29.9773 N.ar    1  UNL1       -0.2104
     16 C           5.5540   -2.8391   32.6726 C.3     1  UNL1        0.2542
     17 O           6.3408   -4.0051   32.1516 O.3     1  UNL1       -0.4561
     18 C           4.6136   -3.9861   20.4982 C.3     1  UNL1        0.0575
     19 C           4.5907   -2.9584   19.4059 C.ar    1  UNL1        0.0044
     20 C           5.5630   -2.8594   18.2679 C.ar    1  UNL1        0.0966
     21 N           5.1647   -1.6890   17.4185 N.ar    1  UNL1       -0.2273
     22 C           3.9463   -1.0646   18.0315 C.ar    1  UNL1        0.1402
     23 N           3.1141    0.1169   17.6299 N.ar    1  UNL1       -0.3377
     24 C           1.9271    0.5139   18.4565 C.ar    1  UNL1        0.0691
     25 C           1.5724   -0.2706   19.6848 C.ar    1  UNL1       -0.0047
     26 C           0.3853    0.1265   20.5115 C.3     1  UNL1        0.0326
     27 C           2.4046   -1.4521   20.0864 C.ar    1  UNL1       -0.0001
     28 C           3.5916   -1.8491   19.2597 C.ar    1  UNL1        0.0315
     29 H           3.3469    0.6318   16.8237 H       1  UNL1        0.1674
@<TRIPOS>BOND
     1    16    17    1
     2    17    10    1
     3    10    11   ar
     4    11    12   ar
     5    12    13   ar
     6    13     9    1
     7     9     7    1
     8     7     1    1
     9     1     2   ar
    10     2     3   ar
    11     3     4   ar
    12     4    18    1
    13    18    19    1
    14    19    20   ar
    15    20    21   ar
    16    21    22   ar
    17    22    23   ar
    18    23    24   ar
    19    24    25   ar
    20    25    26    1
    21    25    27   ar
    22    27    28   ar
    23     4     5   ar
    24     5     6   ar
    25    13    14   ar
    26    14    15   ar
    27    15    10   ar
    28     6     1   ar
    29    28    19   ar
    30    28    22    1
    31     7     8    1
    32    23    29    1
@<TRIPOS>MOLECULE
*****
 29 32 0 0 0
SMALL
GASTEIGER

@<TRIPOS>ATOM
      1 C          -0.4392    2.0236   20.4367 C.ar    1  UNL1        0.2172
      2 N          -0.1198    0.5621   20.5466 N.ar    1  UNL1       -0.2126
      3 C           0.9473   -0.0394   19.6810 C.ar    1  UNL1        0.0994
      4 C           1.6949    0.8203   18.7054 C.ar    1  UNL1        0.0207
      5 C           1.3755    2.2818   18.5954 C.ar    1  UNL1        0.0994
      6 N           0.3084    2.8834   19.4611 N.ar    1  UNL1       -0.2126
      7 N          -1.5063    2.6253   21.3023 N.pl3   1  UNL1       -0.2990
      8 H          -1.8097    2.1518   22.1104 H       1  UNL1        0.1500
      9 C          -2.1112    3.9484   20.9368 C.3     1  UNL1        0.1180
     10 C          -6.2173    4.1156   19.1034 C.ar    1  UNL1        0.2250
     11 C          -5.0085    3.9835   18.2250 C.ar    1  UNL1        0.0574
     12 C          -3.6398    3.9278   18.8362 C.ar    1  UNL1        0.0037
     13 C          -3.4799    4.0041   20.3257 C.ar    1  UNL1        0.0168
     14 C          -4.6886    4.1362   21.2040 C.ar    1  UNL1        0.0994
     15 N          -6.0573    4.1919   20.5929 N.ar    1  UNL1       -0.2104
     16 C          -8.3905    5.4351   18.5684 C.3     1  UNL1        0.2542
     17 O          -7.5860    4.1713   18.4923 O.3     1  UNL1       -0.4561
     18 C           2.7620    0.2186   17.8397 C.3     1  UNL1        0.0575
     19 C           4.0831   -0.1669   18.4365 C.ar    1  UNL1        0.0044
     20 C           5.2699    0.7344   18.6077 C.ar    1  UNL1        0.0966
     21 N           6.3695   -0.0631   19.2439 N.ar    1  UNL1       -0.2273
     22 C           5.8624   -1.4572   19.4659 C.ar    1  UNL1        0.1402
     23 N           6.5047   -2.6765   20.0580 N.ar    1  UNL1       -0.3377
     24 C           5.7340   -3.9600   20.1511 C.ar    1  UNL1        0.0691
     25 C           4.3209   -4.0241   19.6521 C.ar    1  UNL1       -0.0047
     26 C           3.5501   -5.3076   19.7452 C.3     1  UNL1        0.0326
     27 C           3.6785   -2.8048   19.0600 C.ar    1  UNL1       -0.0001
     28 C           4.4492   -1.5214   18.9669 C.ar    1  UNL1        0.0315
     29 H           7.4322   -2.6345   20.3855 H       1  UNL1        0.1674
@<TRIPOS>BOND
     1    16    17    1
     2    17    10    1
     3    10    11   ar
     4    11    12   ar
     5    12    13   ar
     6    13     9    1
     7     9     7    1
     8     7     1    1
     9     1     2   ar
    10     2     3   ar
    11     3     4   ar
    12     4    18    1
    13    18    19    1
    14    19    20   ar
    15    20    21   ar
    16    21    22   ar
    17    22    23   ar
    18    23    24   ar
    19    24    25   ar
    20    25    26    1
    21    25    27   ar
    22    27    28   ar
    23     4     5   ar
    24     5     6   ar
    25    13    14   ar
    26    14    15   ar
    27    15    10   ar
    28     6     1   ar
    29    28    19   ar
    30    28    22    1
    31     7     8    1
    32    23    29    1
@<TRIPOS>MOLECULE
*****
 29 32 0 0 0
SMALL
GASTEIGER

@<TRIPOS>ATOM
      1 C           5.7562   -2.4531   24.9151 C.ar    1  UNL1        0.2172
      2 N           6.5377   -3.5199   24.2072 N.ar    1  UNL1       -0.2126
      3 C           6.0888   -4.0111   22.8628 C.ar    1  UNL1        0.0994
      4 C           4.8585   -3.4354   22.2265 C.ar    1  UNL1        0.0207
      5 C           4.0770   -2.3686   22.9344 C.ar    1  UNL1        0.0994
      6 N           4.5259   -1.8774   24.2787 N.ar    1  UNL1       -0.2126
      7 N           6.2051   -1.9618   26.2594 N.pl3   1  UNL1       -0.2990
      8 H           6.7107   -2.5582   26.8577 H       1  UNL1        0.1500
      9 C           5.8835   -0.5621   26.6923 C.3     1  UNL1        0.1180
     10 C           2.4929    0.1851   29.5549 C.ar    1  UNL1        0.2250
     11 C           3.7116    1.0587   29.5914 C.ar    1  UNL1        0.0574
     12 C           4.8418    0.8097   28.6372 C.ar    1  UNL1        0.0037
     13 C           4.7533   -0.3131   27.6464 C.ar    1  UNL1        0.0168
     14 C           3.5345   -1.1868   27.6099 C.ar    1  UNL1        0.0994
     15 N           2.4043   -0.9377   28.5642 N.ar    1  UNL1       -0.2104
     16 C           0.6539    1.7561   30.5037 C.3     1  UNL1        0.2542
     17 O           1.3626    0.4341   30.5091 O.3     1  UNL1       -0.4561
     18 C           4.4096   -3.9267   20.8820 C.3     1  UNL1        0.0575
     19 C           4.4762   -3.0176   19.6908 C.ar    1  UNL1        0.0044
     20 C           5.4987   -3.0739   18.5948 C.ar    1  UNL1        0.0966
     21 N           5.1864   -1.9836   17.6131 N.ar    1  UNL1       -0.2273
     22 C           3.9708   -1.2535   18.1023 C.ar    1  UNL1        0.1402
     23 N           3.2070   -0.0894   17.5444 N.ar    1  UNL1       -0.3377
     24 C           2.0042    0.4357   18.2707 C.ar    1  UNL1        0.0691
     25 C           1.5652   -0.2033   19.5548 C.ar    1  UNL1       -0.0047
     26 C           0.3624    0.3219   20.2810 C.3     1  UNL1        0.0326
     27 C           2.3291   -1.3674   20.1127 C.ar    1  UNL1       -0.0001
     28 C           3.5319   -1.8925   19.3864 C.ar    1  UNL1        0.0315
     29 H           3.4951    0.3300   16.7016 H       1  UNL1        0.1674
@<TRIPOS>BOND
     1    16    17    1
     2    17    10    1
     3    10    11   ar
     4    11    12   ar
     5    12    13   ar
     6    13     9    1
     7     9     7    1
     8     7     1    1
     9     1     2   ar
    10     2     3   ar
    11     3     4   ar
    12     4    18    1
    13    18    19    1
    14    19    20   ar
    15    20    21   ar
    16    21    22   ar
    17    22    23   ar
    18    23    24   ar
    19    24    25   ar
    20    25    26    1
    21    25    27   ar
    22    27    28   ar
    23     4     5   ar
    24     5     6   ar
    25    13    14   ar
    26    14    15   ar
    27    15    10   ar
    28     6     1   ar
    29    28    19   ar
    30    28    22    1
    31     7     8    1
    32    23    29    1
