@<TRIPOS>MOLECULE
*****
 24 26 0 0 0
SMALL
GASTEIGER

@<TRIPOS>ATOM
      1 C          -8.3590  -17.3998   22.2578 C.3     1  UNL1        0.1896
      2 C         -14.0592  -18.1278   23.9831 C.3     1  UNL1        0.0521
      3 C         -12.6342  -17.9458   23.5518 C.ar    1  UNL1        0.0594
      4 C         -11.5501  -18.7733   24.1762 C.ar    1  UNL1        0.0145
      5 C         -10.1250  -18.5913   23.7449 C.ar    1  UNL1        0.0019
      6 C          -9.7840  -17.5818   22.6891 C.ar    1  UNL1        0.0363
      7 C         -10.8682  -16.7544   22.0647 C.ar    1  UNL1        0.0976
      8 N         -12.2932  -16.9363   22.4960 N.ar    1  UNL1       -0.2484
      9 C          -7.6437  -18.5089   21.5448 C.3     1  UNL1        0.0472
     10 C          -8.2681  -19.1531   20.3426 C.3     1  UNL1        0.0211
     11 C          -7.5528  -20.2622   19.6297 C.3     1  UNL1        0.0687
     12 N          -6.2131  -20.7270   20.1188 N.3     1  UNL1       -0.2975
     13 C          -5.5888  -20.0828   21.3209 C.3     1  UNL1        0.0687
     14 C          -6.3041  -18.9737   22.0340 C.3     1  UNL1        0.0211
     15 H          -5.5588  -20.6047   19.3460 H       1  UNL1        0.1232
     16 O          -7.6492  -16.1088   22.5394 O.3     1  UNL1       -0.4738
     17 C          -7.0224  -15.8748   23.8819 C.ar    1  UNL1        0.1501
     18 C          -5.5351  -15.9824   24.0443 C.ar    1  UNL1        0.0378
     19 C          -4.9084  -15.7484   25.3868 C.ar    1  UNL1        0.0040
     20 C          -5.7688  -15.4069   26.5670 C.ar    1  UNL1        0.0125
     21 C          -7.2562  -15.2993   26.4047 C.ar    1  UNL1        0.0712
     22 CL         -8.1167  -14.9577   27.5848 Cl      1  UNL1       -0.0813
     23 C          -7.8830  -15.5332   25.0621 C.ar    1  UNL1        0.1020
     24 CL         -9.3702  -15.4257   24.8998 Cl      1  UNL1       -0.0782
@<TRIPOS>BOND
     1     2     3    1
     2     3     4   ar
     3     4     5   ar
     4     5     6   ar
     5     6     1    1
     6     1    16    1
     7    16    17    1
     8    17    18   ar
     9    18    19   ar
    10    19    20   ar
    11    20    21   ar
    12    21    22    1
    13    21    23   ar
    14    23    24    1
    15     1     9    1
    16     9    10    1
    17    10    11    1
    18    11    12    1
    19    12    13    1
    20    13    14    1
    21     6     7   ar
    22     7     8   ar
    23     8     3   ar
    24    23    17   ar
    25    14     9    1
    26    12    15    1
@<TRIPOS>MOLECULE
*****
 24 26 0 0 0
SMALL
GASTEIGER

@<TRIPOS>ATOM
      1 C          -7.4363  -17.8685   22.0511 C.3     1  UNL1        0.1896
      2 C          -2.2263  -20.3567   20.4188 C.3     1  UNL1        0.0521
      3 C          -3.5288  -19.7346   20.8269 C.ar    1  UNL1        0.0594
      4 C          -3.7438  -19.3093   22.2491 C.ar    1  UNL1        0.0145
      5 C          -5.0463  -18.6872   22.6572 C.ar    1  UNL1        0.0019
      6 C          -6.1338  -18.4905   21.6431 C.ar    1  UNL1        0.0363
      7 C          -5.9188  -18.9158   20.2208 C.ar    1  UNL1        0.0976
      8 N          -4.6163  -19.5379   19.8127 N.ar    1  UNL1       -0.2484
      9 C          -8.6915  -18.6897   22.0536 C.3     1  UNL1        0.0472
     10 C          -9.0710  -19.4759   23.2734 C.3     1  UNL1        0.0211
     11 C         -10.3262  -20.2971   23.2758 C.3     1  UNL1        0.0687
     12 N         -11.2019  -20.3322   22.0585 N.3     1  UNL1       -0.2975
     13 C         -10.8224  -19.5461   20.8387 C.3     1  UNL1        0.0687
     14 C          -9.5671  -18.7248   20.8362 C.3     1  UNL1        0.0211
     15 H         -12.1220  -20.0007   22.3480 H       1  UNL1        0.1232
     16 O          -7.4836  -16.4252   22.4568 O.3     1  UNL1       -0.4738
     17 C          -7.0267  -16.0154   23.8255 C.ar    1  UNL1        0.1501
     18 C          -5.5852  -15.6767   24.0649 C.ar    1  UNL1        0.0378
     19 C          -5.1283  -15.2670   25.4336 C.ar    1  UNL1        0.0040
     20 C          -6.1129  -15.1959   26.5629 C.ar    1  UNL1        0.0125
     21 C          -7.5545  -15.5346   26.3236 C.ar    1  UNL1        0.0712
     22 CL         -8.5391  -15.4635   27.4529 Cl      1  UNL1       -0.0813
     23 C          -8.0114  -15.9443   24.9549 C.ar    1  UNL1        0.1020
     24 CL         -9.4529  -16.2830   24.7155 Cl      1  UNL1       -0.0782
@<TRIPOS>BOND
     1     2     3    1
     2     3     4   ar
     3     4     5   ar
     4     5     6   ar
     5     6     1    1
     6     1    16    1
     7    16    17    1
     8    17    18   ar
     9    18    19   ar
    10    19    20   ar
    11    20    21   ar
    12    21    22    1
    13    21    23   ar
    14    23    24    1
    15     1     9    1
    16     9    10    1
    17    10    11    1
    18    11    12    1
    19    12    13    1
    20    13    14    1
    21     6     7   ar
    22     7     8   ar
    23     8     3   ar
    24    23    17   ar
    25    14     9    1
    26    12    15    1
@<TRIPOS>MOLECULE
*****
 24 26 0 0 0
SMALL
GASTEIGER

@<TRIPOS>ATOM
      1 C          -8.3639  -17.0646   22.0598 C.3     1  UNL1        0.1896
      2 C          -4.7829  -21.4267   20.0232 C.3     1  UNL1        0.0521
      3 C          -5.6781  -20.3362   20.5323 C.ar    1  UNL1        0.0594
      4 C          -6.9810  -20.0533   19.8450 C.ar    1  UNL1        0.0145
      5 C          -7.8763  -18.9627   20.3542 C.ar    1  UNL1        0.0019
      6 C          -7.4687  -18.1551   21.5507 C.ar    1  UNL1        0.0363
      7 C          -6.1658  -18.4381   22.2380 C.ar    1  UNL1        0.0976
      8 N          -5.2705  -19.5286   21.7288 N.ar    1  UNL1       -0.2484
      9 C          -9.8451  -17.2870   22.1413 C.3     1  UNL1        0.0472
     10 C         -10.3922  -18.3864   23.0027 C.3     1  UNL1        0.0211
     11 C         -11.8734  -18.6088   23.0842 C.3     1  UNL1        0.0687
     12 N         -12.8075  -17.7318   22.3043 N.3     1  UNL1       -0.2975
     13 C         -12.2604  -16.6324   21.4429 C.3     1  UNL1        0.0687
     14 C         -10.7792  -16.4100   21.3614 C.3     1  UNL1        0.0211
     15 H         -13.4326  -17.2928   22.9802 H       1  UNL1        0.1232
     16 O          -7.7780  -15.7517   22.4876 O.3     1  UNL1       -0.4738
     17 C          -7.1961  -15.6023   23.8620 C.ar    1  UNL1        0.1501
     18 C          -5.7079  -15.5781   24.0478 C.ar    1  UNL1        0.0378
     19 C          -5.1260  -15.4287   25.4222 C.ar    1  UNL1        0.0040
     20 C          -6.0323  -15.3034   26.6108 C.ar    1  UNL1        0.0125
     21 C          -7.5206  -15.3275   26.4251 C.ar    1  UNL1        0.0712
     22 CL         -8.4269  -15.2022   27.6137 Cl      1  UNL1       -0.0813
     23 C          -8.1025  -15.4770   25.0506 C.ar    1  UNL1        0.1020
     24 CL         -9.5908  -15.5011   24.8648 Cl      1  UNL1       -0.0782
@<TRIPOS>BOND
     1     2     3    1
     2     3     4   ar
     3     4     5   ar
     4     5     6   ar
     5     6     1    1
     6     1    16    1
     7    16    17    1
     8    17    18   ar
     9    18    19   ar
    10    19    20   ar
    11    20    21   ar
    12    21    22    1
    13    21    23   ar
    14    23    24    1
    15     1     9    1
    16     9    10    1
    17    10    11    1
    18    11    12    1
    19    12    13    1
    20    13    14    1
    21     6     7   ar
    22     7     8   ar
    23     8     3   ar
    24    23    17   ar
    25    14     9    1
    26    12    15    1
@<TRIPOS>MOLECULE
*****
 24 26 0 0 0
SMALL
GASTEIGER

@<TRIPOS>ATOM
      1 C          -8.7760  -17.0181   22.3070 C.3     1  UNL1        0.1896
      2 C          -5.0640  -21.1767   20.0873 C.3     1  UNL1        0.0521
      3 C          -5.9920  -20.1371   20.6422 C.ar    1  UNL1        0.0594
      4 C          -5.5850  -19.3310   21.8399 C.ar    1  UNL1        0.0145
      5 C          -6.5130  -18.2913   22.3948 C.ar    1  UNL1        0.0019
      6 C          -7.8480  -18.0578   21.7521 C.ar    1  UNL1        0.0363
      7 C          -8.2550  -18.8639   20.5544 C.ar    1  UNL1        0.0976
      8 N          -7.3270  -19.9036   19.9995 N.ar    1  UNL1       -0.2484
      9 C         -10.2525  -17.2784   22.3529 C.3     1  UNL1        0.0472
     10 C         -11.1499  -16.6950   21.3019 C.3     1  UNL1        0.0211
     11 C         -12.6264  -16.9553   21.3478 C.3     1  UNL1        0.0687
     12 N         -13.2056  -17.7990   22.4445 N.3     1  UNL1       -0.2975
     13 C         -12.3082  -18.3823   23.4954 C.3     1  UNL1        0.0687
     14 C         -10.8317  -18.1221   23.4496 C.3     1  UNL1        0.0211
     15 H         -13.6798  -18.5819   21.9945 H       1  UNL1        0.1232
     16 O          -8.2275  -15.7182   22.8161 O.3     1  UNL1       -0.4738
     17 C          -7.8177  -15.5885   24.2532 C.ar    1  UNL1        0.1501
     18 C          -8.8416  -15.7267   25.3406 C.ar    1  UNL1        0.0378
     19 C          -8.4318  -15.5970   26.7776 C.ar    1  UNL1        0.0040
     20 C          -6.9980  -15.3291   27.1274 C.ar    1  UNL1        0.0125
     21 C          -5.9739  -15.1909   26.0401 C.ar    1  UNL1        0.0712
     22 CL         -4.5401  -14.9231   26.3898 Cl      1  UNL1       -0.0813
     23 C          -6.3838  -15.3206   24.6030 C.ar    1  UNL1        0.1020
     24 CL         -5.3598  -15.1824   23.5157 Cl      1  UNL1       -0.0782
@<TRIPOS>BOND
     1     2     3    1
     2     3     4   ar
     3     4     5   ar
     4     5     6   ar
     5     6     1    1
     6     1    16    1
     7    16    17    1
     8    17    18   ar
     9    18    19   ar
    10    19    20   ar
    11    20    21   ar
    12    21    22    1
    13    21    23   ar
    14    23    24    1
    15     1     9    1
    16     9    10    1
    17    10    11    1
    18    11    12    1
    19    12    13    1
    20    13    14    1
    21     6     7   ar
    22     7     8   ar
    23     8     3   ar
    24    23    17   ar
    25    14     9    1
    26    12    15    1
@<TRIPOS>MOLECULE
*****
 24 26 0 0 0
SMALL
GASTEIGER

@<TRIPOS>ATOM
      1 C          -8.5496  -18.1928   22.7215 C.3     1  UNL1        0.1896
      2 C          -8.2672  -14.8949   27.7259 C.3     1  UNL1        0.0521
      3 C          -8.3378  -15.7194   26.4748 C.ar    1  UNL1        0.0594
      4 C          -9.0458  -17.0417   26.4870 C.ar    1  UNL1        0.0145
      5 C          -9.1164  -17.8662   25.2359 C.ar    1  UNL1        0.0019
      6 C          -8.4790  -17.3683   23.9726 C.ar    1  UNL1        0.0363
      7 C          -7.7710  -16.0460   23.9605 C.ar    1  UNL1        0.0976
      8 N          -7.7004  -15.2215   25.2116 N.ar    1  UNL1       -0.2484
      9 C          -9.5699  -17.8735   21.6694 C.3     1  UNL1        0.0472
     10 C         -10.2622  -16.5427   21.6754 C.3     1  UNL1        0.0211
     11 C         -11.2825  -16.2234   20.6233 C.3     1  UNL1        0.0687
     12 N         -11.6106  -17.2347   19.5652 N.3     1  UNL1       -0.2975
     13 C         -10.9184  -18.5654   19.5592 C.3     1  UNL1        0.0687
     14 C          -9.8980  -18.8848   20.6114 C.3     1  UNL1        0.0211
     15 H         -11.4120  -16.7954   18.6663 H       1  UNL1        0.1232
     16 O          -7.5999  -19.3366   22.5225 O.3     1  UNL1       -0.4738
     17 C          -6.1720  -19.0695   22.1484 C.ar    1  UNL1        0.1501
     18 C          -5.3281  -18.1713   23.0033 C.ar    1  UNL1        0.0378
     19 C          -3.9003  -17.9042   22.6292 C.ar    1  UNL1        0.0040
     20 C          -3.3164  -18.5354   21.4001 C.ar    1  UNL1        0.0125
     21 C          -4.1603  -19.4337   20.5451 C.ar    1  UNL1        0.0712
     22 CL         -3.5764  -20.0648   19.3160 Cl      1  UNL1       -0.0813
     23 C          -5.5881  -19.7007   20.9192 C.ar    1  UNL1        0.1020
     24 CL         -6.4320  -20.5990   20.0643 Cl      1  UNL1       -0.0782
@<TRIPOS>BOND
     1     2     3    1
     2     3     4   ar
     3     4     5   ar
     4     5     6   ar
     5     6     1    1
     6     1    16    1
     7    16    17    1
     8    17    18   ar
     9    18    19   ar
    10    19    20   ar
    11    20    21   ar
    12    21    22    1
    13    21    23   ar
    14    23    24    1
    15     1     9    1
    16     9    10    1
    17    10    11    1
    18    11    12    1
    19    12    13    1
    20    13    14    1
    21     6     7   ar
    22     7     8   ar
    23     8     3   ar
    24    23    17   ar
    25    14     9    1
    26    12    15    1
@<TRIPOS>MOLECULE
*****
 24 26 0 0 0
SMALL
GASTEIGER

@<TRIPOS>ATOM
      1 C          -5.8222  -18.4892   22.3522 C.3     1  UNL1        0.1896
      2 C          -0.3140  -18.4895   19.9732 C.3     1  UNL1        0.0521
      3 C          -1.6911  -18.4894   20.5680 C.ar    1  UNL1        0.0594
      4 C          -1.9070  -17.9729   21.9595 C.ar    1  UNL1        0.0145
      5 C          -3.2840  -17.9728   22.5543 C.ar    1  UNL1        0.0019
      6 C          -4.4452  -18.4892   21.7575 C.ar    1  UNL1        0.0363
      7 C          -4.2293  -19.0058   20.3659 C.ar    1  UNL1        0.0976
      8 N          -2.8522  -19.0058   19.7711 N.ar    1  UNL1       -0.2484
      9 C          -6.4209  -17.2100   22.8573 C.3     1  UNL1        0.0472
     10 C          -5.8331  -16.5294   24.0579 C.3     1  UNL1        0.0211
     11 C          -6.4318  -15.2502   24.5629 C.3     1  UNL1        0.0687
     12 N          -7.6184  -14.6515   23.8675 N.3     1  UNL1       -0.2975
     13 C          -8.2063  -15.3321   22.6670 C.3     1  UNL1        0.0687
     14 C          -7.6076  -16.6113   22.1619 C.3     1  UNL1        0.0211
     15 H          -7.3440  -13.7152   23.5703 H       1  UNL1        0.1232
     16 O          -6.6005  -19.7682   22.4419 O.3     1  UNL1       -0.4738
     17 C          -8.0858  -19.7587   22.2324 C.ar    1  UNL1        0.1501
     18 C          -9.0088  -19.9624   23.3970 C.ar    1  UNL1        0.0378
     19 C         -10.4941  -19.9529   23.1875 C.ar    1  UNL1        0.0040
     20 C         -11.0563  -19.7396   21.8134 C.ar    1  UNL1        0.0125
     21 C         -10.1333  -19.5358   20.6486 C.ar    1  UNL1        0.0712
     22 CL        -10.6955  -19.3225   19.2745 Cl      1  UNL1       -0.0813
     23 C          -8.6480  -19.5454   20.8581 C.ar    1  UNL1        0.1020
     24 CL         -7.7250  -19.3416   19.6935 Cl      1  UNL1       -0.0782
@<TRIPOS>BOND
     1     2     3    1
     2     3     4   ar
     3     4     5   ar
     4     5     6   ar
     5     6     1    1
     6     1    16    1
     7    16    17    1
     8    17    18   ar
     9    18    19   ar
    10    19    20   ar
    11    20    21   ar
    12    21    22    1
    13    21    23   ar
    14    23    24    1
    15     1     9    1
    16     9    10    1
    17    10    11    1
    18    11    12    1
    19    12    13    1
    20    13    14    1
    21     6     7   ar
    22     7     8   ar
    23     8     3   ar
    24    23    17   ar
    25    14     9    1
    26    12    15    1
@<TRIPOS>MOLECULE
*****
 24 26 0 0 0
SMALL
GASTEIGER

@<TRIPOS>ATOM
      1 C         -15.0260   -5.7738   19.4810 C.3     1  UNL1        0.1896
      2 C         -16.9960  -11.3838   18.6771 C.3     1  UNL1        0.0521
      3 C         -16.5035   -9.9813   18.8781 C.ar    1  UNL1        0.0594
      4 C         -17.4079   -8.9481   19.4818 C.ar    1  UNL1        0.0145
      5 C         -16.9154   -7.5456   19.6827 C.ar    1  UNL1        0.0019
      6 C         -15.5185   -7.1763   19.2800 C.ar    1  UNL1        0.0363
      7 C         -14.6141   -8.2095   18.6763 C.ar    1  UNL1        0.0976
      8 N         -15.1066   -9.6120   18.4754 N.ar    1  UNL1       -0.2484
      9 C         -15.8453   -4.6145   18.9964 C.3     1  UNL1        0.0472
     10 C         -16.6157   -3.7792   19.9756 C.3     1  UNL1        0.0211
     11 C         -17.4350   -2.6200   19.4910 C.3     1  UNL1        0.0687
     12 N         -17.4838   -2.2959   18.0272 N.3     1  UNL1       -0.2975
     13 C         -16.7134   -3.1312   17.0480 C.3     1  UNL1        0.0687
     14 C         -15.8941   -4.2905   17.5326 C.3     1  UNL1        0.0211
     15 H         -17.1473   -1.3384   17.9262 H       1  UNL1        0.1232
     16 O         -13.7142   -5.5305   20.1665 O.3     1  UNL1       -0.4738
     17 C         -12.6995   -4.6189   19.5425 C.ar    1  UNL1        0.1501
     18 C         -12.8632   -3.1315   19.6465 C.ar    1  UNL1        0.0378
     19 C         -11.8485   -2.2199   19.0225 C.ar    1  UNL1        0.0040
     20 C         -10.6701   -2.7957   18.2945 C.ar    1  UNL1        0.0125
     21 C         -10.5065   -4.2832   18.1905 C.ar    1  UNL1        0.0712
     22 CL         -9.3281   -4.8590   17.4626 Cl      1  UNL1       -0.0813
     23 C         -11.5212   -5.1948   18.8145 C.ar    1  UNL1        0.1020
     24 CL        -11.3575   -6.6822   18.7106 Cl      1  UNL1       -0.0782
@<TRIPOS>BOND
     1     2     3    1
     2     3     4   ar
     3     4     5   ar
     4     5     6   ar
     5     6     1    1
     6     1    16    1
     7    16    17    1
     8    17    18   ar
     9    18    19   ar
    10    19    20   ar
    11    20    21   ar
    12    21    22    1
    13    21    23   ar
    14    23    24    1
    15     1     9    1
    16     9    10    1
    17    10    11    1
    18    11    12    1
    19    12    13    1
    20    13    14    1
    21     6     7   ar
    22     7     8   ar
    23     8     3   ar
    24    23    17   ar
    25    14     9    1
    26    12    15    1
@<TRIPOS>MOLECULE
*****
 24 26 0 0 0
SMALL
GASTEIGER

@<TRIPOS>ATOM
      1 C         -14.9011   -5.8866   19.4668 C.3     1  UNL1        0.1896
      2 C         -16.9694  -11.4595   18.6517 C.3     1  UNL1        0.0521
      3 C         -16.4523  -10.0663   18.8554 C.ar    1  UNL1        0.0594
      4 C         -17.3249   -9.0289   19.4975 C.ar    1  UNL1        0.0145
      5 C         -16.8078   -7.6356   19.7013 C.ar    1  UNL1        0.0019
      6 C         -15.4182   -7.2798   19.2630 C.ar    1  UNL1        0.0363
      7 C         -14.5456   -8.3172   18.6209 C.ar    1  UNL1        0.0976
      8 N         -15.0626   -9.7105   18.4171 N.ar    1  UNL1       -0.2484
      9 C         -15.7121   -4.7110   19.0082 C.3     1  UNL1        0.0472
     10 C         -16.5551   -3.9526   19.9902 C.3     1  UNL1        0.0211
     11 C         -17.3661   -2.7770   19.5317 C.3     1  UNL1        0.0687
     12 N         -17.3342   -2.3599   18.0912 N.3     1  UNL1       -0.2975
     13 C         -16.4913   -3.1183   17.1092 C.3     1  UNL1        0.0687
     14 C         -15.6802   -4.2939   17.5678 C.3     1  UNL1        0.0211
     15 H         -17.0106   -1.3928   18.0718 H       1  UNL1        0.1232
     16 O         -13.5730   -5.6689   20.1291 O.3     1  UNL1       -0.4738
     17 C         -12.4247   -5.1110   19.3417 C.ar    1  UNL1        0.1501
     18 C         -11.4914   -6.0362   18.6185 C.ar    1  UNL1        0.0378
     19 C         -10.3431   -5.4783   17.8311 C.ar    1  UNL1        0.0040
     20 C         -10.1280   -3.9952   17.7668 C.ar    1  UNL1        0.0125
     21 C         -11.0613   -3.0699   18.4899 C.ar    1  UNL1        0.0712
     22 CL        -10.8462   -1.5869   18.4256 Cl      1  UNL1       -0.0813
     23 C         -12.2096   -3.6278   19.2774 C.ar    1  UNL1        0.1020
     24 CL        -13.1429   -2.7026   20.0005 Cl      1  UNL1       -0.0782
@<TRIPOS>BOND
     1     2     3    1
     2     3     4   ar
     3     4     5   ar
     4     5     6   ar
     5     6     1    1
     6     1    16    1
     7    16    17    1
     8    17    18   ar
     9    18    19   ar
    10    19    20   ar
    11    20    21   ar
    12    21    22    1
    13    21    23   ar
    14    23    24    1
    15     1     9    1
    16     9    10    1
    17    10    11    1
    18    11    12    1
    19    12    13    1
    20    13    14    1
    21     6     7   ar
    22     7     8   ar
    23     8     3   ar
    24    23    17   ar
    25    14     9    1
    26    12    15    1
@<TRIPOS>MOLECULE
*****
 24 26 0 0 0
SMALL
GASTEIGER

@<TRIPOS>ATOM
      1 C          -6.8979  -17.8055   22.0445 C.3     1  UNL1        0.1896
      2 C          -8.2471  -15.1687   27.2624 C.3     1  UNL1        0.0521
      3 C          -7.9098  -15.8279   25.9579 C.ar    1  UNL1        0.0594
      4 C          -6.7369  -15.3472   25.1559 C.ar    1  UNL1        0.0145
      5 C          -6.3996  -16.0064   23.8514 C.ar    1  UNL1        0.0019
      6 C          -7.2352  -17.1463   23.3489 C.ar    1  UNL1        0.0363
      7 C          -8.4080  -17.6269   24.1510 C.ar    1  UNL1        0.0976
      8 N          -8.7453  -16.9677   25.4555 N.ar    1  UNL1       -0.2484
      9 C          -5.5945  -18.5307   21.8855 C.3     1  UNL1        0.0472
     10 C          -4.4709  -18.2730   22.8454 C.3     1  UNL1        0.0211
     11 C          -3.1676  -18.9982   22.6864 C.3     1  UNL1        0.0687
     12 N          -2.9877  -19.9811   21.5677 N.3     1  UNL1       -0.2975
     13 C          -4.1112  -20.2387   20.6078 C.3     1  UNL1        0.0687
     14 C          -5.4146  -19.5135   20.7667 C.3     1  UNL1        0.0211
     15 H          -2.7560  -20.8768   21.9970 H       1  UNL1        0.1232
     16 O          -7.8639  -17.7395   20.8989 O.3     1  UNL1       -0.4738
     17 C          -9.3038  -18.1030   21.1102 C.ar    1  UNL1        0.1501
     18 C          -9.7154  -19.5448   21.1489 C.ar    1  UNL1        0.0378
     19 C         -11.1553  -19.9083   21.3601 C.ar    1  UNL1        0.0040
     20 C         -12.1835  -18.8300   21.5327 C.ar    1  UNL1        0.0125
     21 C         -11.7719  -17.3880   21.4940 C.ar    1  UNL1        0.0712
     22 CL        -12.8002  -16.3097   21.6665 Cl      1  UNL1       -0.0813
     23 C         -10.3321  -17.0245   21.2827 C.ar    1  UNL1        0.1020
     24 CL         -9.9204  -15.5826   21.2440 Cl      1  UNL1       -0.0782
@<TRIPOS>BOND
     1     2     3    1
     2     3     4   ar
     3     4     5   ar
     4     5     6   ar
     5     6     1    1
     6     1    16    1
     7    16    17    1
     8    17    18   ar
     9    18    19   ar
    10    19    20   ar
    11    20    21   ar
    12    21    22    1
    13    21    23   ar
    14    23    24    1
    15     1     9    1
    16     9    10    1
    17    10    11    1
    18    11    12    1
    19    12    13    1
    20    13    14    1
    21     6     7   ar
    22     7     8   ar
    23     8     3   ar
    24    23    17   ar
    25    14     9    1
    26    12    15    1
