@<TRIPOS>MOLECULE
*****
 22 26 0 0 0
SMALL
GASTEIGER

@<TRIPOS>ATOM
      1 O          -3.5461  -20.9044   20.4932 O.2     1  UNL1       -0.2744
      2 C          -4.1354  -19.7828   21.2962 C.2     1  UNL1        0.2293
      3 N          -3.3659  -18.7305   22.0381 N.am    1  UNL1       -0.2839
      4 C          -4.3525  -17.8140   22.6988 C.ar    1  UNL1        0.0467
      5 C          -4.1731  -16.5998   23.5610 C.ar    1  UNL1        0.0144
      6 C          -5.3731  -15.8714   24.0897 C.ar    1  UNL1        0.0013
      7 C          -6.7524  -16.3573   23.7561 C.ar    1  UNL1       -0.0002
      8 C          -6.9318  -17.5715   22.8939 C.ar    1  UNL1       -0.0026
      9 C          -5.7319  -18.2998   22.3652 C.ar    1  UNL1       -0.0008
     10 C          -5.5977  -19.5167   21.4984 C.3     1  UNL1        0.0927
     11 C          -6.0828  -20.6752   20.6784 C.3     1  UNL1        0.0179
     12 C          -7.0694  -19.7588   21.3391 C.3     1  UNL1        0.0315
     13 H          -2.3853  -18.6547   22.0835 H       1  UNL1        0.1549
     14 C          -8.4888  -19.3694   21.6285 C.2     1  UNL1       -0.0378
     15 C          -9.1372  -19.7975   22.9117 C.2     1  UNL1       -0.0080
     16 C         -10.5566  -19.4082   23.2012 C.2     1  UNL1        0.0022
     17 C         -11.3275  -18.5907   22.2075 C.2     1  UNL1        0.0365
     18 C         -12.7306  -18.0604   22.2174 C.2     1  UNL1        0.1233
     19 N         -12.9494  -17.3045   20.9403 N.2     1  UNL1       -0.1467
     20 N         -11.6815  -17.3677   20.1413 N.2     1  UNL1       -0.1520
     21 C         -10.6792  -18.1626   20.9244 C.2     1  UNL1        0.0861
     22 C          -9.2598  -18.5520   20.6349 C.3     1  UNL1        0.0697
@<TRIPOS>BOND
     1     1     2    2
     2     2     3   am
     3     3     4    1
     4     4     5   ar
     5     5     6   ar
     6     6     7   ar
     7     7     8   ar
     8     8     9   ar
     9     9    10    1
    10    10    11    1
    11    11    12    1
    12    12    14    1
    13    14    15    2
    14    15    16    1
    15    16    17    2
    16    17    18    1
    17    18    19    2
    18    19    20    1
    19    20    21    2
    20    21    22    1
    21    10     2    1
    22    22    14    1
    23     9     4   ar
    24    12    10    1
    25    21    17    1
    26     3    13    1
@<TRIPOS>MOLECULE
*****
 22 26 0 0 0
SMALL
GASTEIGER

@<TRIPOS>ATOM
      1 O         -12.9210   -1.1628   18.7835 O.2     1  UNL1       -0.2744
      2 C         -12.3011   -2.5286   18.8026 C.2     1  UNL1        0.2293
      3 N         -10.8453   -2.8335   18.9964 N.am    1  UNL1       -0.2839
      4 C         -10.6727   -4.3226   18.9448 C.ar    1  UNL1        0.0467
      5 C          -9.4613   -5.1977   19.0741 C.ar    1  UNL1        0.0144
      6 C          -9.5991   -6.6882   18.9778 C.ar    1  UNL1        0.0013
      7 C         -10.9483   -7.3037   18.7521 C.ar    1  UNL1       -0.0002
      8 C         -12.1597   -6.4286   18.6228 C.ar    1  UNL1       -0.0026
      9 C         -12.0219   -4.9381   18.7191 C.ar    1  UNL1       -0.0008
     10 C         -13.0283   -3.8293   18.6312 C.3     1  UNL1        0.0927
     11 C         -14.3917   -3.2261   18.4660 C.3     1  UNL1        0.0179
     12 C         -14.2191   -4.7152   18.4144 C.3     1  UNL1        0.0315
     13 H         -10.1288   -2.1723   19.1334 H       1  UNL1        0.1549
     14 C         -14.8071   -6.0865   18.2594 C.2     1  UNL1       -0.0378
     15 C         -14.9619   -6.6861   16.8932 C.2     1  UNL1       -0.0080
     16 C         -15.5498   -8.0574   16.7381 C.2     1  UNL1        0.0022
     17 C         -15.9829   -8.8290   17.9494 C.2     1  UNL1        0.0365
     18 C         -16.5913  -10.1909   18.1071 C.2     1  UNL1        0.1233
     19 N         -16.8126  -10.4331   19.5709 N.2     1  UNL1       -0.1467
     20 N         -16.3408   -9.2207   20.3177 N.2     1  UNL1       -0.1520
     21 C         -15.8281   -8.2294   19.3156 C.2     1  UNL1        0.0861
     22 C         -15.2401   -6.8581   19.4706 C.3     1  UNL1        0.0697
@<TRIPOS>BOND
     1     1     2    2
     2     2     3   am
     3     3     4    1
     4     4     5   ar
     5     5     6   ar
     6     6     7   ar
     7     7     8   ar
     8     8     9   ar
     9     9    10    1
    10    10    11    1
    11    11    12    1
    12    12    14    1
    13    14    15    2
    14    15    16    1
    15    16    17    2
    16    17    18    1
    17    18    19    2
    18    19    20    1
    19    20    21    2
    20    21    22    1
    21    10     2    1
    22    22    14    1
    23     9     4   ar
    24    12    10    1
    25    21    17    1
    26     3    13    1
@<TRIPOS>MOLECULE
*****
 22 26 0 0 0
SMALL
GASTEIGER

@<TRIPOS>ATOM
      1 O         -13.0421  -16.4784   20.3683 O.2     1  UNL1       -0.2744
      2 C         -12.3007  -17.3430   21.3444 C.2     1  UNL1        0.2293
      3 N         -12.7702  -17.7261   22.7166 N.am    1  UNL1       -0.2839
      4 C         -11.7193  -18.5961   23.3400 C.ar    1  UNL1        0.0467
      5 C         -11.6368  -19.2675   24.6788 C.ar    1  UNL1        0.0144
      6 C         -10.4352  -20.0935   25.0307 C.ar    1  UNL1        0.0013
      7 C          -9.3161  -20.2480   24.0439 C.ar    1  UNL1       -0.0002
      8 C          -9.3987  -19.5766   22.7052 C.ar    1  UNL1       -0.0026
      9 C         -10.6003  -18.7506   22.3532 C.ar    1  UNL1       -0.0008
     10 C         -10.9596  -17.9762   21.1199 C.3     1  UNL1        0.0927
     11 C         -10.7618  -17.4371   19.7342 C.3     1  UNL1        0.0179
     12 C          -9.7109  -18.3071   20.3576 C.3     1  UNL1        0.0315
     13 H         -13.6191  -17.4543   23.1346 H       1  UNL1        0.1549
     14 C          -8.3831  -19.0004   20.2773 C.2     1  UNL1       -0.0378
     15 C          -8.2553  -20.2910   19.5234 C.2     1  UNL1       -0.0080
     16 C          -6.9276  -20.9844   19.4432 C.2     1  UNL1        0.0022
     17 C          -5.7277  -20.3872   20.1168 C.2     1  UNL1        0.0365
     18 C          -4.3004  -20.8388   20.2096 C.2     1  UNL1        0.1233
     19 N          -3.5460  -19.8274   21.0209 N.2     1  UNL1       -0.1467
     20 N          -4.5072  -18.7508   21.4294 N.2     1  UNL1       -0.1520
     21 C          -5.8555  -19.0967   20.8706 C.2     1  UNL1        0.0861
     22 C          -7.1833  -18.4033   20.9509 C.3     1  UNL1        0.0697
@<TRIPOS>BOND
     1     1     2    2
     2     2     3   am
     3     3     4    1
     4     4     5   ar
     5     5     6   ar
     6     6     7   ar
     7     7     8   ar
     8     8     9   ar
     9     9    10    1
    10    10    11    1
    11    11    12    1
    12    12    14    1
    13    14    15    2
    14    15    16    1
    15    16    17    2
    16    17    18    1
    17    18    19    2
    18    19    20    1
    19    20    21    2
    20    21    22    1
    21    10     2    1
    22    22    14    1
    23     9     4   ar
    24    12    10    1
    25    21    17    1
    26     3    13    1
@<TRIPOS>MOLECULE
*****
 22 26 0 0 0
SMALL
GASTEIGER

@<TRIPOS>ATOM
      1 O         -10.4255  -19.5904   20.9080 O.2     1  UNL1       -0.2744
      2 C          -9.4394  -18.7482   21.6619 C.2     1  UNL1        0.2293
      3 N          -9.7702  -17.7361   22.7183 N.am    1  UNL1       -0.2839
      4 C          -8.4845  -17.1326   23.2010 C.ar    1  UNL1        0.0467
      5 C          -8.1932  -16.0837   24.2329 C.ar    1  UNL1        0.0144
      6 C          -6.7765  -15.6739   24.5066 C.ar    1  UNL1        0.0013
      7 C          -5.6511  -16.3131   23.7483 C.ar    1  UNL1       -0.0002
      8 C          -5.9424  -17.3620   22.7164 C.ar    1  UNL1       -0.0026
      9 C          -7.3591  -17.7718   22.4427 C.ar    1  UNL1       -0.0008
     10 C          -7.9492  -18.7703   21.4915 C.3     1  UNL1        0.0927
     11 C          -7.9290  -19.8238   20.4240 C.3     1  UNL1        0.0179
     12 C          -6.6434  -19.2204   20.9066 C.3     1  UNL1        0.0315
     13 H         -10.6727  -17.5080   23.0387 H       1  UNL1        0.1549
     14 C          -5.1471  -19.1318   20.8475 C.2     1  UNL1       -0.0378
     15 C          -4.3201  -19.6389   21.9916 C.2     1  UNL1       -0.0080
     16 C          -2.8238  -19.5504   21.9326 C.2     1  UNL1        0.0022
     17 C          -2.1547  -18.9548   20.7294 C.2     1  UNL1        0.0365
     18 C          -0.7102  -18.7359   20.3899 C.2     1  UNL1        0.1233
     19 N          -0.6444  -18.0936   19.0359 N.2     1  UNL1       -0.1467
     20 N          -2.0484  -17.9156   18.5387 N.2     1  UNL1       -0.1520
     21 C          -2.9817  -18.4478   19.5853 C.2     1  UNL1        0.0861
     22 C          -4.4780  -18.5364   19.6444 C.3     1  UNL1        0.0697
@<TRIPOS>BOND
     1     1     2    2
     2     2     3   am
     3     3     4    1
     4     4     5   ar
     5     5     6   ar
     6     6     7   ar
     7     7     8   ar
     8     8     9   ar
     9     9    10    1
    10    10    11    1
    11    11    12    1
    12    12    14    1
    13    14    15    2
    14    15    16    1
    15    16    17    2
    16    17    18    1
    17    18    19    2
    18    19    20    1
    19    20    21    2
    20    21    22    1
    21    10     2    1
    22    22    14    1
    23     9     4   ar
    24    12    10    1
    25    21    17    1
    26     3    13    1
@<TRIPOS>MOLECULE
*****
 22 26 0 0 0
SMALL
GASTEIGER

@<TRIPOS>ATOM
      1 O         -11.0725  -20.0400   23.9011 O.2     1  UNL1       -0.2744
      2 C         -10.0761  -18.9187   23.9025 C.2     1  UNL1        0.2293
      3 N         -10.2100  -17.6212   24.6431 N.am    1  UNL1       -0.2839
      4 C          -8.9876  -16.7986   24.3620 C.ar    1  UNL1        0.0467
      5 C          -8.5695  -15.4330   24.8205 C.ar    1  UNL1        0.0144
      6 C          -7.2619  -14.8566   24.3646 C.ar    1  UNL1        0.0013
      7 C          -6.3724  -15.6458   23.4502 C.ar    1  UNL1       -0.0002
      8 C          -6.7905  -17.0114   22.9918 C.ar    1  UNL1       -0.0026
      9 C          -8.0981  -17.5878   23.4477 C.ar    1  UNL1       -0.0008
     10 C          -8.7709  -18.8981   23.1637 C.3     1  UNL1        0.0927
     11 C          -8.9161  -20.2594   22.5508 C.3     1  UNL1        0.0179
     12 C          -7.6937  -19.4369   22.2697 C.3     1  UNL1        0.0315
     13 H         -10.9673  -17.3560   25.2136 H       1  UNL1        0.1549
     14 C          -6.3660  -19.2732   21.5911 C.2     1  UNL1       -0.0378
     15 C          -6.3041  -19.0393   20.1107 C.2     1  UNL1       -0.0080
     16 C          -4.9764  -18.8755   19.4321 C.2     1  UNL1        0.0022
     17 C          -3.7106  -18.9456   20.2340 C.2     1  UNL1        0.0365
     18 C          -2.2675  -18.8220   19.8442 C.2     1  UNL1        0.1233
     19 N          -1.4374  -18.9794   21.0837 N.2     1  UNL1       -0.1467
     20 N          -2.3677  -19.2004   22.2395 N.2     1  UNL1       -0.1520
     21 C          -3.7725  -19.1795   21.7144 C.2     1  UNL1        0.0861
     22 C          -5.1003  -19.3433   22.3929 C.3     1  UNL1        0.0697
@<TRIPOS>BOND
     1     1     2    2
     2     2     3   am
     3     3     4    1
     4     4     5   ar
     5     5     6   ar
     6     6     7   ar
     7     7     8   ar
     8     8     9   ar
     9     9    10    1
    10    10    11    1
    11    11    12    1
    12    12    14    1
    13    14    15    2
    14    15    16    1
    15    16    17    2
    16    17    18    1
    17    18    19    2
    18    19    20    1
    19    20    21    2
    20    21    22    1
    21    10     2    1
    22    22    14    1
    23     9     4   ar
    24    12    10    1
    25    21    17    1
    26     3    13    1
@<TRIPOS>MOLECULE
*****
 22 26 0 0 0
SMALL
GASTEIGER

@<TRIPOS>ATOM
      1 O         -12.6176  -18.2286   21.2420 O.2     1  UNL1       -0.2744
      2 C         -11.4271  -17.6793   21.9708 C.2     1  UNL1        0.2293
      3 N         -11.4502  -16.5914   23.0032 N.am    1  UNL1       -0.2839
      4 C         -10.0420  -16.3611   23.4656 C.ar    1  UNL1        0.0467
      5 C          -9.4578  -15.4126   24.4701 C.ar    1  UNL1        0.0144
      6 C          -7.9802  -15.4097   24.7279 C.ar    1  UNL1        0.0013
      7 C          -7.0867  -16.3554   23.9813 C.ar    1  UNL1       -0.0002
      8 C          -7.6709  -17.3039   22.9769 C.ar    1  UNL1       -0.0026
      9 C          -9.1485  -17.3068   22.7190 C.ar    1  UNL1       -0.0008
     10 C         -10.0046  -18.1215   21.7952 C.3     1  UNL1        0.0927
     11 C         -10.2914  -19.1625   20.7540 C.3     1  UNL1        0.0179
     12 C          -8.8832  -18.9323   21.2164 C.3     1  UNL1        0.0315
     13 H         -12.2494  -16.1125   23.3214 H       1  UNL1        0.1549
     14 C          -7.4226  -19.2675   21.1492 C.2     1  UNL1       -0.0378
     15 C          -6.8362  -20.2608   22.1083 C.2     1  UNL1       -0.0080
     16 C          -5.3757  -20.5961   22.0411 C.2     1  UNL1        0.0022
     17 C          -4.5017  -19.9381   21.0149 C.2     1  UNL1        0.0365
     18 C          -3.0386  -20.0679   20.7109 C.2     1  UNL1        0.1233
     19 N          -2.7206  -19.1548   19.5640 N.2     1  UNL1       -0.1467
     20 N          -3.9873  -18.4608   19.1592 N.2     1  UNL1       -0.1520
     21 C          -5.0880  -18.9449   20.0559 C.2     1  UNL1        0.0861
     22 C          -6.5486  -18.6096   20.1231 C.3     1  UNL1        0.0697
@<TRIPOS>BOND
     1     1     2    2
     2     2     3   am
     3     3     4    1
     4     4     5   ar
     5     5     6   ar
     6     6     7   ar
     7     7     8   ar
     8     8     9   ar
     9     9    10    1
    10    10    11    1
    11    11    12    1
    12    12    14    1
    13    14    15    2
    14    15    16    1
    15    16    17    2
    16    17    18    1
    17    18    19    2
    18    19    20    1
    19    20    21    2
    20    21    22    1
    21    10     2    1
    22    22    14    1
    23     9     4   ar
    24    12    10    1
    25    21    17    1
    26     3    13    1
@<TRIPOS>MOLECULE
*****
 22 26 0 0 0
SMALL
GASTEIGER

@<TRIPOS>ATOM
      1 O          -2.6983  -17.3805   23.6720 O.2     1  UNL1       -0.2744
      2 C          -3.6726  -18.1422   22.8231 C.2     1  UNL1        0.2293
      3 N          -3.3365  -19.2650   21.8870 N.am    1  UNL1       -0.2839
      4 C          -4.6102  -19.7316   21.2466 C.ar    1  UNL1        0.0467
      5 C          -4.8923  -20.8084   20.2413 C.ar    1  UNL1        0.0144
      6 C          -6.2977  -21.0508   19.7763 C.ar    1  UNL1        0.0013
      7 C          -7.4209  -20.2163   20.3167 C.ar    1  UNL1       -0.0002
      8 C          -7.1388  -19.1394   21.3220 C.ar    1  UNL1       -0.0026
      9 C          -5.7334  -18.8971   21.7870 C.ar    1  UNL1       -0.0008
     10 C          -5.1539  -17.9148   22.7613 C.3     1  UNL1        0.0927
     11 C          -5.1815  -16.7904   23.7537 C.3     1  UNL1        0.0179
     12 C          -6.4551  -17.2569   23.1134 C.3     1  UNL1        0.0315
     13 H          -2.4378  -19.6314   21.7219 H       1  UNL1        0.1549
     14 C          -7.9418  -17.1463   22.9469 C.2     1  UNL1       -0.0378
     15 C          -8.5158  -16.1717   21.9616 C.2     1  UNL1       -0.0080
     16 C         -10.0024  -16.0611   21.7951 C.2     1  UNL1        0.0022
     17 C         -10.9150  -16.9252   22.6140 C.2     1  UNL1        0.0365
     18 C         -12.4098  -17.0377   22.6677 C.2     1  UNL1        0.1233
     19 N         -12.7598  -18.0819   23.6862 N.2     1  UNL1       -0.1467
     20 N         -11.4812  -18.6146   24.2619 N.2     1  UNL1       -0.1520
     21 C         -10.3411  -17.8998   23.5992 C.2     1  UNL1        0.0861
     22 C          -8.8544  -18.0103   23.7657 C.3     1  UNL1        0.0697
@<TRIPOS>BOND
     1     1     2    2
     2     2     3   am
     3     3     4    1
     4     4     5   ar
     5     5     6   ar
     6     6     7   ar
     7     7     8   ar
     8     8     9   ar
     9     9    10    1
    10    10    11    1
    11    11    12    1
    12    12    14    1
    13    14    15    2
    14    15    16    1
    15    16    17    2
    16    17    18    1
    17    18    19    2
    18    19    20    1
    19    20    21    2
    20    21    22    1
    21    10     2    1
    22    22    14    1
    23     9     4   ar
    24    12    10    1
    25    21    17    1
    26     3    13    1
@<TRIPOS>MOLECULE
*****
 22 26 0 0 0
SMALL
GASTEIGER

@<TRIPOS>ATOM
      1 O          -9.3265   -5.4983   17.5517 O.2     1  UNL1       -0.2744
      2 C         -10.6384   -5.1383   18.1838 C.2     1  UNL1        0.2293
      3 N         -10.8922   -3.9623   19.0797 N.am    1  UNL1       -0.2839
      4 C         -12.3374   -3.9883   19.4805 C.ar    1  UNL1        0.0467
      5 C         -13.1537   -3.0805   20.3520 C.ar    1  UNL1        0.0144
      6 C         -14.6095   -3.3648   20.5752 C.ar    1  UNL1        0.0013
      7 C         -15.2489   -4.5568   19.9270 C.ar    1  UNL1       -0.0002
      8 C         -14.4326   -5.4646   19.0556 C.ar    1  UNL1       -0.0026
      9 C         -12.9768   -5.1804   18.8323 C.ar    1  UNL1       -0.0008
     10 C         -11.9268   -5.8911   18.0309 C.3     1  UNL1        0.0927
     11 C         -11.3798   -6.9562   17.1275 C.3     1  UNL1        0.0179
     12 C         -12.8249   -6.9822   17.5283 C.3     1  UNL1        0.0315
     13 H         -10.2270   -3.2913   19.3561 H       1  UNL1        0.1549
     14 C         -14.1779   -7.6273   17.4695 C.2     1  UNL1       -0.0378
     15 C         -15.1999   -7.1380   16.4865 C.2     1  UNL1       -0.0080
     16 C         -16.5529   -7.7829   16.4276 C.2     1  UNL1        0.0022
     17 C         -16.8838   -8.9172   17.3518 C.2     1  UNL1        0.0365
     18 C         -18.1243   -9.7430   17.5231 C.2     1  UNL1        0.1233
     19 N         -17.8690  -10.7426   18.6120 N.2     1  UNL1       -0.1467
     20 N         -16.4707  -10.5346   19.1135 N.2     1  UNL1       -0.1520
     21 C         -15.8619   -9.4065   18.3347 C.2     1  UNL1        0.0861
     22 C         -14.5089   -8.7614   18.3935 C.3     1  UNL1        0.0697
@<TRIPOS>BOND
     1     1     2    2
     2     2     3   am
     3     3     4    1
     4     4     5   ar
     5     5     6   ar
     6     6     7   ar
     7     7     8   ar
     8     8     9   ar
     9     9    10    1
    10    10    11    1
    11    11    12    1
    12    12    14    1
    13    14    15    2
    14    15    16    1
    15    16    17    2
    16    17    18    1
    17    18    19    2
    18    19    20    1
    19    20    21    2
    20    21    22    1
    21    10     2    1
    22    22    14    1
    23     9     4   ar
    24    12    10    1
    25    21    17    1
    26     3    13    1
@<TRIPOS>MOLECULE
*****
 22 26 0 0 0
SMALL
GASTEIGER

@<TRIPOS>ATOM
      1 O         -10.7345  -20.1570   18.6357 O.2     1  UNL1       -0.2744
      2 C         -10.1888  -19.3748   19.7934 C.2     1  UNL1        0.2293
      3 N         -10.9896  -18.5448   20.7524 N.am    1  UNL1       -0.2839
      4 C         -10.0422  -17.9423   21.7471 C.ar    1  UNL1        0.0467
      5 C         -10.2628  -17.0361   22.9219 C.ar    1  UNL1        0.0144
      6 C          -9.0970  -16.5874   23.7523 C.ar    1  UNL1        0.0013
      7 C          -7.7106  -17.0449   23.4079 C.ar    1  UNL1       -0.0002
      8 C          -7.4900  -17.9511   22.2331 C.ar    1  UNL1       -0.0026
      9 C          -8.6558  -18.3998   21.4027 C.ar    1  UNL1       -0.0008
     10 C          -8.7464  -19.2851   20.1953 C.3     1  UNL1        0.0927
     11 C          -8.2243  -20.1726   19.1045 C.3     1  UNL1        0.0179
     12 C          -7.2769  -19.5701   20.0991 C.3     1  UNL1        0.0315
     13 H         -11.9657  -18.4179   20.7326 H       1  UNL1        0.1549
     14 C          -5.8814  -19.3867   20.6178 C.2     1  UNL1       -0.0378
     15 C          -5.5573  -19.7395   22.0394 C.2     1  UNL1       -0.0080
     16 C          -4.1618  -19.5561   22.5581 C.2     1  UNL1        0.0022
     17 C          -3.0905  -19.0200   21.6554 C.2     1  UNL1        0.0365
     18 C          -1.6359  -18.7339   21.8838 C.2     1  UNL1        0.1233
     19 N          -1.0610  -18.2044   20.6035 N.2     1  UNL1       -0.1467
     20 N          -2.1604  -18.1632   19.5839 N.2     1  UNL1       -0.1520
     21 C          -3.4146  -18.6672   20.2339 C.2     1  UNL1        0.0861
     22 C          -4.8101  -18.8506   19.7152 C.3     1  UNL1        0.0697
@<TRIPOS>BOND
     1     1     2    2
     2     2     3   am
     3     3     4    1
     4     4     5   ar
     5     5     6   ar
     6     6     7   ar
     7     7     8   ar
     8     8     9   ar
     9     9    10    1
    10    10    11    1
    11    11    12    1
    12    12    14    1
    13    14    15    2
    14    15    16    1
    15    16    17    2
    16    17    18    1
    17    18    19    2
    18    19    20    1
    19    20    21    2
    20    21    22    1
    21    10     2    1
    22    22    14    1
    23     9     4   ar
    24    12    10    1
    25    21    17    1
    26     3    13    1
