@<TRIPOS>MOLECULE
*****
 23 26 0 0 0
SMALL
GASTEIGER

@<TRIPOS>ATOM
      1 C          -9.7417  -17.8813   24.3257 C.3     1  UNL1        0.0409
      2 C         -10.1931  -17.6374   22.9162 C.3     1  UNL1        0.0707
      3 N         -10.7512  -18.7664   22.1015 N.3     1  UNL1       -0.2974
      4 C         -10.8579  -20.1393   22.6963 C.3     1  UNL1        0.0689
      5 C         -10.4066  -20.3832   24.1058 C.3     1  UNL1        0.0212
      6 C          -9.8485  -19.2542   24.9205 C.3     1  UNL1        0.0234
      7 C          -9.2903  -18.1251   25.7353 C.3     1  UNL1        0.0078
      8 H         -10.1633  -18.8497   21.2721 H       1  UNL1        0.1232
      9 C         -10.0474  -18.3207   23.7633 C.ar    1  UNL1       -0.0218
     10 C          -9.0192  -18.2473   22.6735 C.ar    1  UNL1       -0.0034
     11 C          -9.2182  -17.3139   21.5164 C.ar    1  UNL1        0.0119
     12 C         -10.4454  -16.4539   21.4489 C.ar    1  UNL1        0.0682
     13 CL        -10.6443  -15.5204   20.2916 Cl      1  UNL1       -0.0814
     14 C         -11.4735  -16.5273   22.5385 C.ar    1  UNL1        0.0679
     15 CL        -12.7007  -15.6674   22.4710 Cl      1  UNL1       -0.0814
     16 C         -11.2746  -17.4608   23.6958 C.ar    1  UNL1        0.0080
     17 C          -9.3579  -16.4368   24.4527 C.3     1  UNL1        0.1286
     18 C          -8.3530  -15.2521   27.3226 C.3     1  UNL1        0.0518
     19 C          -7.4873  -15.5190   26.1271 C.ar    1  UNL1        0.0575
     20 C          -6.0076  -15.2882   26.0408 C.ar    1  UNL1        0.0368
     21 C          -5.5551  -15.6901   24.6683 C.ar    1  UNL1        0.1213
     22 N          -6.7550  -16.1693   23.9063 N.ar    1  UNL1       -0.1680
     23 N          -7.9492  -16.0635   24.8079 N.ar    1  UNL1       -0.2548
@<TRIPOS>BOND
     1    18    19    1
     2    19    20   ar
     3    20    21   ar
     4    21    22   ar
     5    22    23   ar
     6    23    17    1
     7    17     1    1
     8     1     2    1
     9     2     3    1
    10     3     4    1
    11     4     5    1
    12     5     6    1
    13     6     9    1
    14     9    10   ar
    15    10    11   ar
    16    11    12   ar
    17    12    13    1
    18    12    14   ar
    19    14    15    1
    20    14    16   ar
    21     6     7    1
    22    23    19   ar
    23     6     1    1
    24    16     9   ar
    25     7     1    1
    26     3     8    1
@<TRIPOS>MOLECULE
*****
 23 26 0 0 0
SMALL
GASTEIGER

@<TRIPOS>ATOM
      1 C          -8.9787  -19.2596   22.7578 C.3     1  UNL1        0.0409
      2 C          -9.8603  -18.0880   22.4419 C.3     1  UNL1        0.0707
      3 N         -11.1003  -17.8431   23.2497 N.3     1  UNL1       -0.2974
      4 C         -11.4585  -18.7700   24.3734 C.3     1  UNL1        0.0689
      5 C         -10.5769  -19.9416   24.6892 C.3     1  UNL1        0.0212
      6 C          -9.3369  -20.1865   23.8814 C.3     1  UNL1        0.0234
      7 C          -8.0969  -20.4314   23.0736 C.3     1  UNL1        0.0078
      8 H         -11.8840  -17.8549   22.5970 H       1  UNL1        0.1232
      9 C          -9.6392  -18.9749   23.0503 C.ar    1  UNL1       -0.0218
     10 C          -9.2546  -17.6117   23.5442 C.ar    1  UNL1       -0.0034
     11 C          -9.5568  -16.4001   22.7131 C.ar    1  UNL1        0.0119
     12 C         -10.2436  -16.5517   21.3882 C.ar    1  UNL1        0.0682
     13 CL        -10.5458  -15.3400   20.5571 Cl      1  UNL1       -0.0814
     14 C         -10.6281  -17.9149   20.8943 C.ar    1  UNL1        0.0679
     15 CL        -11.3148  -18.0664   19.5694 Cl      1  UNL1       -0.0814
     16 C         -10.3259  -19.1265   21.7254 C.ar    1  UNL1        0.0080
     17 C          -8.0560  -18.8659   21.6426 C.3     1  UNL1        0.1286
     18 C          -5.8834  -20.9215   20.3372 C.3     1  UNL1        0.0518
     19 C          -5.5747  -19.7872   21.2689 C.ar    1  UNL1        0.0575
     20 C          -4.2132  -19.3987   21.7641 C.ar    1  UNL1        0.0368
     21 C          -4.3703  -18.2136   22.6702 C.ar    1  UNL1        0.1213
     22 N          -5.8289  -17.8698   22.7351 N.ar    1  UNL1       -0.1680
     23 N          -6.5733  -18.8424   21.8689 N.ar    1  UNL1       -0.2548
@<TRIPOS>BOND
     1    18    19    1
     2    19    20   ar
     3    20    21   ar
     4    21    22   ar
     5    22    23   ar
     6    23    17    1
     7    17     1    1
     8     1     2    1
     9     2     3    1
    10     3     4    1
    11     4     5    1
    12     5     6    1
    13     6     9    1
    14     9    10   ar
    15    10    11   ar
    16    11    12   ar
    17    12    13    1
    18    12    14   ar
    19    14    15    1
    20    14    16   ar
    21     6     7    1
    22    23    19   ar
    23     6     1    1
    24    16     9   ar
    25     7     1    1
    26     3     8    1
@<TRIPOS>MOLECULE
*****
 23 26 0 0 0
SMALL
GASTEIGER

@<TRIPOS>ATOM
      1 C         -10.5049  -18.0924   23.3276 C.3     1  UNL1        0.0409
      2 C         -11.3388  -17.4955   22.2329 C.3     1  UNL1        0.0707
      3 N         -12.8341  -17.4837   22.3508 N.3     1  UNL1       -0.2974
      4 C         -13.4955  -18.0688   23.5633 C.3     1  UNL1        0.0689
      5 C         -12.6617  -18.6657   24.6580 C.3     1  UNL1        0.0212
      6 C         -11.1664  -18.6775   24.5401 C.3     1  UNL1        0.0234
      7 C          -9.6710  -18.6893   24.4223 C.3     1  UNL1        0.0078
      8 H         -13.1970  -17.9909   21.5437 H       1  UNL1        0.1232
      9 C         -11.2660  -17.9951   23.2081 C.ar    1  UNL1       -0.0218
     10 C         -11.5226  -16.5188   23.1390 C.ar    1  UNL1       -0.0034
     11 C         -11.6222  -15.8363   21.8070 C.ar    1  UNL1        0.0119
     12 C         -11.4651  -16.6302   20.5440 C.ar    1  UNL1        0.0682
     13 CL        -11.5647  -15.9477   19.2119 Cl      1  UNL1       -0.0814
     14 C         -11.2085  -18.1064   20.6130 C.ar    1  UNL1        0.0679
     15 CL        -11.0514  -18.9002   19.3500 Cl      1  UNL1       -0.0814
     16 C         -11.1089  -18.7889   21.9451 C.ar    1  UNL1        0.0080
     17 C          -9.2598  -17.7614   22.5596 C.3     1  UNL1        0.1286
     18 C          -6.0499  -18.3276   22.3975 C.3     1  UNL1        0.0518
     19 C          -6.7094  -17.1911   23.1211 C.ar    1  UNL1        0.0575
     20 C          -6.0091  -16.1153   23.8972 C.ar    1  UNL1        0.0368
     21 C          -7.0517  -15.1902   24.4514 C.ar    1  UNL1        0.1213
     22 N          -8.3964  -15.6942   24.0178 N.ar    1  UNL1       -0.1680
     23 N          -8.1847  -16.9309   23.1956 N.ar    1  UNL1       -0.2548
@<TRIPOS>BOND
     1    18    19    1
     2    19    20   ar
     3    20    21   ar
     4    21    22   ar
     5    22    23   ar
     6    23    17    1
     7    17     1    1
     8     1     2    1
     9     2     3    1
    10     3     4    1
    11     4     5    1
    12     5     6    1
    13     6     9    1
    14     9    10   ar
    15    10    11   ar
    16    11    12   ar
    17    12    13    1
    18    12    14   ar
    19    14    15    1
    20    14    16   ar
    21     6     7    1
    22    23    19   ar
    23     6     1    1
    24    16     9   ar
    25     7     1    1
    26     3     8    1
@<TRIPOS>MOLECULE
*****
 23 26 0 0 0
SMALL
GASTEIGER

@<TRIPOS>ATOM
      1 C          -9.2981  -19.4666   22.6439 C.3     1  UNL1        0.0409
      2 C         -10.3047  -18.5542   22.0081 C.3     1  UNL1        0.0707
      3 N         -11.5673  -18.2050   22.7387 N.3     1  UNL1       -0.2974
      4 C         -11.8234  -18.7682   24.1052 C.3     1  UNL1        0.0689
      5 C         -10.8168  -19.6806   24.7410 C.3     1  UNL1        0.0212
      6 C          -9.5542  -20.0298   24.0104 C.3     1  UNL1        0.0234
      7 C          -8.2915  -20.3790   23.2798 C.3     1  UNL1        0.0078
      8 H         -12.3423  -18.5042   22.1469 H       1  UNL1        0.1232
      9 C          -9.9875  -19.1778   22.8544 C.ar    1  UNL1       -0.0218
     10 C         -10.7935  -19.7782   21.7408 C.ar    1  UNL1       -0.0034
     11 C         -11.2268  -18.9263   20.5848 C.ar    1  UNL1        0.0119
     12 C         -10.8542  -17.4739   20.5423 C.ar    1  UNL1        0.0682
     13 CL        -11.2875  -16.6219   19.3863 Cl      1  UNL1       -0.0814
     14 C         -10.0483  -16.8735   21.6559 C.ar    1  UNL1        0.0679
     15 CL         -9.6757  -15.4211   21.6134 Cl      1  UNL1       -0.0814
     16 C          -9.6149  -17.7255   22.8119 C.ar    1  UNL1        0.0080
     17 C          -8.4213  -19.3430   21.4332 C.3     1  UNL1        0.1286
     18 C          -6.1564  -21.3306   20.1805 C.3     1  UNL1        0.0518
     19 C          -5.8957  -20.1137   21.0179 C.ar    1  UNL1        0.0575
     20 C          -4.5482  -19.5969   21.4266 C.ar    1  UNL1        0.0368
     21 C          -4.7564  -18.3638   22.2549 C.ar    1  UNL1        0.1213
     22 N          -6.2326  -18.1186   22.3583 N.ar    1  UNL1       -0.1680
     23 N          -6.9368  -19.2002   21.5937 N.ar    1  UNL1       -0.2548
@<TRIPOS>BOND
     1    18    19    1
     2    19    20   ar
     3    20    21   ar
     4    21    22   ar
     5    22    23   ar
     6    23    17    1
     7    17     1    1
     8     1     2    1
     9     2     3    1
    10     3     4    1
    11     4     5    1
    12     5     6    1
    13     6     9    1
    14     9    10   ar
    15    10    11   ar
    16    11    12   ar
    17    12    13    1
    18    12    14   ar
    19    14    15    1
    20    14    16   ar
    21     6     7    1
    22    23    19   ar
    23     6     1    1
    24    16     9   ar
    25     7     1    1
    26     3     8    1
@<TRIPOS>MOLECULE
*****
 23 26 0 0 0
SMALL
GASTEIGER

@<TRIPOS>ATOM
      1 C          -9.1823  -18.5789   22.3709 C.3     1  UNL1        0.0409
      2 C         -10.6821  -18.5598   22.3694 C.3     1  UNL1        0.0707
      3 N         -11.4356  -18.9272   21.1255 N.3     1  UNL1       -0.2974
      4 C         -10.6892  -19.3137   19.8831 C.3     1  UNL1        0.0689
      5 C          -9.1894  -19.3328   19.8846 C.3     1  UNL1        0.0212
      6 C          -8.4359  -18.9654   21.1285 C.3     1  UNL1        0.0234
      7 C          -7.6824  -18.5980   22.3724 C.3     1  UNL1        0.0078
      8 H         -12.0140  -18.1227   20.8832 H       1  UNL1        0.1232
      9 C          -9.7328  -18.7312   21.8449 C.ar    1  UNL1       -0.0218
     10 C         -10.3273  -19.8158   22.6936 C.ar    1  UNL1       -0.0034
     11 C         -11.6242  -19.5816   23.4099 C.ar    1  UNL1        0.0119
     12 C         -12.3266  -18.2629   23.2777 C.ar    1  UNL1        0.0682
     13 CL        -13.6235  -18.0287   23.9941 Cl      1  UNL1       -0.0814
     14 C         -11.7321  -17.1783   22.4290 C.ar    1  UNL1        0.0679
     15 CL        -12.4345  -15.8595   22.2967 Cl      1  UNL1       -0.0814
     16 C         -10.4352  -17.4125   21.7126 C.ar    1  UNL1        0.0080
     17 C          -9.1782  -18.1436   23.8063 C.3     1  UNL1        0.1286
     18 C          -8.7693  -17.0532   26.8548 C.3     1  UNL1        0.0518
     19 C          -8.2973  -16.3726   25.6042 C.ar    1  UNL1        0.0575
     20 C          -7.5544  -15.0713   25.5354 C.ar    1  UNL1        0.0368
     21 C          -7.2832  -14.7682   24.0916 C.ar    1  UNL1        0.1213
     22 N          -7.8585  -15.8822   23.2680 N.ar    1  UNL1       -0.1680
     23 N          -8.4852  -16.8738   24.2030 N.ar    1  UNL1       -0.2548
@<TRIPOS>BOND
     1    18    19    1
     2    19    20   ar
     3    20    21   ar
     4    21    22   ar
     5    22    23   ar
     6    23    17    1
     7    17     1    1
     8     1     2    1
     9     2     3    1
    10     3     4    1
    11     4     5    1
    12     5     6    1
    13     6     9    1
    14     9    10   ar
    15    10    11   ar
    16    11    12   ar
    17    12    13    1
    18    12    14   ar
    19    14    15    1
    20    14    16   ar
    21     6     7    1
    22    23    19   ar
    23     6     1    1
    24    16     9   ar
    25     7     1    1
    26     3     8    1
@<TRIPOS>MOLECULE
*****
 23 26 0 0 0
SMALL
GASTEIGER

@<TRIPOS>ATOM
      1 C          -9.1115  -19.1942   21.0964 C.3     1  UNL1        0.0409
      2 C          -9.7805  -18.7226   22.3534 C.3     1  UNL1        0.0707
      3 N         -11.0567  -17.9385   22.2749 N.3     1  UNL1       -0.2974
      4 C         -11.6641  -17.6259   20.9395 C.3     1  UNL1        0.0689
      5 C         -10.9951  -18.0975   19.6825 C.3     1  UNL1        0.0212
      6 C          -9.7188  -18.8816   19.7610 C.3     1  UNL1        0.0234
      7 C          -8.4425  -19.6658   19.8394 C.3     1  UNL1        0.0078
      8 H         -10.8823  -17.0452   22.7354 H       1  UNL1        0.1232
      9 C          -9.7544  -18.7898   21.2577 C.ar    1  UNL1       -0.0218
     10 C         -10.4127  -19.8728   22.0601 C.ar    1  UNL1       -0.0034
     11 C         -10.4483  -19.7810   23.5569 C.ar    1  UNL1        0.0119
     12 C          -9.8257  -18.6062   24.2512 C.ar    1  UNL1        0.0682
     13 CL         -9.8613  -18.5144   25.7480 Cl      1  UNL1       -0.0814
     14 C          -9.1674  -17.5232   23.4489 C.ar    1  UNL1        0.0679
     15 CL         -8.5448  -16.3484   24.1432 Cl      1  UNL1       -0.0814
     16 C          -9.1318  -17.6150   21.9521 C.ar    1  UNL1        0.0080
     17 C          -8.0240  -19.8273   21.9127 C.3     1  UNL1        0.1286
     18 C          -5.5422  -17.8712   22.7274 C.3     1  UNL1        0.0518
     19 C          -5.4864  -19.0040   21.7457 C.ar    1  UNL1        0.0575
     20 C          -4.2801  -19.4364   20.9662 C.ar    1  UNL1        0.0368
     21 C          -4.6753  -20.6029   20.1099 C.ar    1  UNL1        0.1213
     22 N          -6.1259  -20.8914   20.3602 N.ar    1  UNL1       -0.1680
     23 N          -6.6272  -19.9031   21.3713 N.ar    1  UNL1       -0.2548
@<TRIPOS>BOND
     1    18    19    1
     2    19    20   ar
     3    20    21   ar
     4    21    22   ar
     5    22    23   ar
     6    23    17    1
     7    17     1    1
     8     1     2    1
     9     2     3    1
    10     3     4    1
    11     4     5    1
    12     5     6    1
    13     6     9    1
    14     9    10   ar
    15    10    11   ar
    16    11    12   ar
    17    12    13    1
    18    12    14   ar
    19    14    15    1
    20    14    16   ar
    21     6     7    1
    22    23    19   ar
    23     6     1    1
    24    16     9   ar
    25     7     1    1
    26     3     8    1
@<TRIPOS>MOLECULE
*****
 23 26 0 0 0
SMALL
GASTEIGER

@<TRIPOS>ATOM
      1 C         -10.2624  -17.0827   23.3861 C.3     1  UNL1        0.0409
      2 C         -10.2704  -18.5819   23.3389 C.3     1  UNL1        0.0707
      3 N         -11.0130  -19.2939   22.2473 N.3     1  UNL1       -0.2974
      4 C         -11.7476  -18.5067   21.2029 C.3     1  UNL1        0.0689
      5 C         -11.7395  -17.0075   21.2501 C.3     1  UNL1        0.0212
      6 C         -10.9970  -16.2955   22.3417 C.3     1  UNL1        0.0234
      7 C         -10.2544  -15.5834   23.4334 C.3     1  UNL1        0.0078
      8 H         -11.7012  -19.8937   22.7021 H       1  UNL1        0.1232
      9 C         -10.5775  -17.6155   22.9174 C.ar    1  UNL1       -0.0218
     10 C         -11.4027  -18.2621   23.9903 C.ar    1  UNL1       -0.0034
     11 C         -10.9833  -19.5822   24.5660 C.ar    1  UNL1        0.0119
     12 C          -9.7386  -20.2557   24.0688 C.ar    1  UNL1        0.0682
     13 CL         -9.3192  -21.5759   24.6445 Cl      1  UNL1       -0.0814
     14 C          -8.9135  -19.6092   22.9959 C.ar    1  UNL1        0.0679
     15 CL         -7.6688  -20.2828   22.4987 Cl      1  UNL1       -0.0814
     16 C          -9.3329  -18.2891   22.4202 C.ar    1  UNL1        0.0080
     17 C          -9.4096  -17.1261   24.6193 C.3     1  UNL1        0.1286
     18 C          -8.1797  -15.5227   27.1817 C.3     1  UNL1        0.0518
     19 C          -7.5381  -15.6523   25.8320 C.ar    1  UNL1        0.0575
     20 C          -6.2186  -15.0677   25.4232 C.ar    1  UNL1        0.0368
     21 C          -5.9684  -15.4435   23.9928 C.ar    1  UNL1        0.1213
     22 N          -7.1333  -16.2603   23.5174 N.ar    1  UNL1       -0.1680
     23 N          -8.1035  -16.3893   24.6542 N.ar    1  UNL1       -0.2548
@<TRIPOS>BOND
     1    18    19    1
     2    19    20   ar
     3    20    21   ar
     4    21    22   ar
     5    22    23   ar
     6    23    17    1
     7    17     1    1
     8     1     2    1
     9     2     3    1
    10     3     4    1
    11     4     5    1
    12     5     6    1
    13     6     9    1
    14     9    10   ar
    15    10    11   ar
    16    11    12   ar
    17    12    13    1
    18    12    14   ar
    19    14    15    1
    20    14    16   ar
    21     6     7    1
    22    23    19   ar
    23     6     1    1
    24    16     9   ar
    25     7     1    1
    26     3     8    1
@<TRIPOS>MOLECULE
*****
 23 26 0 0 0
SMALL
GASTEIGER

@<TRIPOS>ATOM
      1 C          -8.7459  -19.1971   20.8280 C.3     1  UNL1        0.0409
      2 C          -8.4953  -18.7896   22.2496 C.3     1  UNL1        0.0707
      3 N          -7.0893  -18.6289   22.7469 N.3     1  UNL1       -0.2974
      4 C          -5.9340  -18.8757   21.8226 C.3     1  UNL1        0.0689
      5 C          -6.1847  -19.2832   20.4010 C.3     1  UNL1        0.0212
      6 C          -7.5907  -19.4439   19.9037 C.3     1  UNL1        0.0234
      7 C          -8.9967  -19.6046   19.4063 C.3     1  UNL1        0.0078
      8 H          -6.9798  -19.2699   23.5327 H       1  UNL1        0.1232
      9 C          -8.1129  -19.0661   21.2581 C.ar    1  UNL1       -0.0218
     10 C          -8.1411  -17.6258   21.6761 C.ar    1  UNL1       -0.0034
     11 C          -8.6633  -17.2480   23.0306 C.ar    1  UNL1        0.0119
     12 C          -9.1574  -18.3105   23.9670 C.ar    1  UNL1        0.0682
     13 CL         -9.6796  -17.9327   25.3215 Cl      1  UNL1       -0.0814
     14 C          -9.1292  -19.7508   23.5490 C.ar    1  UNL1        0.0679
     15 CL         -9.6232  -20.8134   24.4855 Cl      1  UNL1       -0.0814
     16 C          -8.6069  -20.1286   22.1945 C.ar    1  UNL1        0.0080
     17 C         -10.2247  -19.1474   21.0745 C.3     1  UNL1        0.1286
     18 C         -12.6780  -17.8819   22.8151 C.3     1  UNL1        0.0518
     19 C         -12.1283  -17.3280   21.5340 C.ar    1  UNL1        0.0575
     20 C         -12.6098  -16.0951   20.8282 C.ar    1  UNL1        0.0368
     21 C         -11.7797  -15.9148   19.5919 C.ar    1  UNL1        0.1213
     22 N         -10.7852  -17.0363   19.5336 N.ar    1  UNL1       -0.1680
     23 N         -11.0006  -17.9097   20.7340 N.ar    1  UNL1       -0.2548
@<TRIPOS>BOND
     1    18    19    1
     2    19    20   ar
     3    20    21   ar
     4    21    22   ar
     5    22    23   ar
     6    23    17    1
     7    17     1    1
     8     1     2    1
     9     2     3    1
    10     3     4    1
    11     4     5    1
    12     5     6    1
    13     6     9    1
    14     9    10   ar
    15    10    11   ar
    16    11    12   ar
    17    12    13    1
    18    12    14   ar
    19    14    15    1
    20    14    16   ar
    21     6     7    1
    22    23    19   ar
    23     6     1    1
    24    16     9   ar
    25     7     1    1
    26     3     8    1
@<TRIPOS>MOLECULE
*****
 23 26 0 0 0
SMALL
GASTEIGER

@<TRIPOS>ATOM
      1 C          -8.1825  -17.2266   22.8274 C.3     1  UNL1        0.0409
      2 C          -9.6353  -17.3816   22.4877 C.3     1  UNL1        0.0707
      3 N         -10.0683  -18.4299   21.5061 N.3     1  UNL1       -0.2974
      4 C          -9.0485  -19.3232   20.8642 C.3     1  UNL1        0.0689
      5 C          -7.5957  -19.1682   21.2038 C.3     1  UNL1        0.0212
      6 C          -7.1627  -18.1199   22.1854 C.3     1  UNL1        0.0234
      7 C          -6.7297  -17.0716   23.1670 C.3     1  UNL1        0.0078
      8 H         -10.5515  -17.9441   20.7506 H       1  UNL1        0.1232
      9 C          -8.5902  -17.6937   22.3599 C.ar    1  UNL1       -0.0218
     10 C          -9.1495  -16.5834   21.5205 C.ar    1  UNL1       -0.0034
     11 C         -10.5770  -16.1572   21.6951 C.ar    1  UNL1        0.0119
     12 C         -11.4453  -16.8413   22.7090 C.ar    1  UNL1        0.0682
     13 CL        -12.8729  -16.4150   22.8835 Cl      1  UNL1       -0.0814
     14 C         -10.8862  -17.9515   23.5483 C.ar    1  UNL1        0.0679
     15 CL        -11.7545  -18.6356   24.5623 Cl      1  UNL1       -0.0814
     16 C          -9.4586  -18.3778   23.3738 C.ar    1  UNL1        0.0080
     17 C          -8.5212  -16.1057   23.7647 C.3     1  UNL1        0.1286
     18 C          -8.8911  -17.0922   26.8534 C.3     1  UNL1        0.0518
     19 C          -7.7768  -16.2361   26.3287 C.ar    1  UNL1        0.0575
     20 C          -6.6368  -15.6831   27.1316 C.ar    1  UNL1        0.0368
     21 C          -5.7623  -14.8879   26.2082 C.ar    1  UNL1        0.1213
     22 N          -6.3617  -14.9493   24.8345 N.ar    1  UNL1       -0.1680
     23 N          -7.6068  -15.7826   24.9090 N.ar    1  UNL1       -0.2548
@<TRIPOS>BOND
     1    18    19    1
     2    19    20   ar
     3    20    21   ar
     4    21    22   ar
     5    22    23   ar
     6    23    17    1
     7    17     1    1
     8     1     2    1
     9     2     3    1
    10     3     4    1
    11     4     5    1
    12     5     6    1
    13     6     9    1
    14     9    10   ar
    15    10    11   ar
    16    11    12   ar
    17    12    13    1
    18    12    14   ar
    19    14    15    1
    20    14    16   ar
    21     6     7    1
    22    23    19   ar
    23     6     1    1
    24    16     9   ar
    25     7     1    1
    26     3     8    1
