@<TRIPOS>MOLECULE
*****
 17 18 0 0 0
SMALL
GASTEIGER

@<TRIPOS>ATOM
      1 C          -9.1057  -18.0290   22.1906 C.ar    1  UNL1        0.0609
      2 C          -7.9794  -18.1990   21.2147 C.ar    1  UNL1        0.1071
      3 N          -8.1803  -19.0153   19.9723 N.ar    1  UNL1       -0.2417
      4 C          -9.5075  -19.6615   19.7059 C.ar    1  UNL1        0.0989
      5 C         -10.6338  -19.4914   20.6819 C.ar    1  UNL1        0.0214
      6 C         -10.4329  -18.6751   21.9242 C.ar    1  UNL1        0.0138
      7 C         -11.5593  -18.5051   22.9002 C.ar    1  UNL1        0.0414
      8 C         -12.8356  -17.7573   22.6519 C.ar    1  UNL1        0.0438
      9 C         -13.6722  -17.8430   23.8940 C.ar    1  UNL1        0.1798
     10 O         -12.9128  -18.6438   24.9100 O.2     1  UNL1       -0.4473
     11 C         -11.6069  -19.0530   24.2957 C.ar    1  UNL1        0.1797
     12 C          -8.7039  -16.3965   24.6752 C.1     1  UNL1       -0.0689
     13 C          -8.9048  -17.2127   23.4329 C.1     1  UNL1       -0.0614
     14 N          -7.1317  -15.0933   26.2815 N.3     1  UNL1       -0.3102
     15 C          -8.5030  -15.5802   25.9176 C.3     1  UNL1        0.1432
     16 H          -7.1798  -14.5589   27.1490 H       1  UNL1        0.1198
     17 H          -6.7730  -14.4981   25.5349 H       1  UNL1        0.1198
@<TRIPOS>BOND
     1    14    15    1
     2    15    12    1
     3    12    13    3
     4    13     1    1
     5     1     2   ar
     6     2     3   ar
     7     3     4   ar
     8     4     5   ar
     9     5     6   ar
    10     6     7    1
    11     7     8   ar
    12     8     9   ar
    13     9    10   ar
    14    10    11   ar
    15     6     1   ar
    16    11     7   ar
    17    14    16    1
    18    14    17    1
@<TRIPOS>MOLECULE
*****
 17 18 0 0 0
SMALL
GASTEIGER

@<TRIPOS>ATOM
      1 C          -9.7762  -17.9517   21.6655 C.ar    1  UNL1        0.0609
      2 C         -10.4584  -18.0711   20.3350 C.ar    1  UNL1        0.1071
      3 N         -11.8897  -17.6482   20.1854 N.ar    1  UNL1       -0.2417
      4 C         -12.6389  -17.1059   21.3664 C.ar    1  UNL1        0.0989
      5 C         -11.9567  -16.9865   22.6969 C.ar    1  UNL1        0.0214
      6 C         -10.5253  -17.4094   22.8464 C.ar    1  UNL1        0.0138
      7 C          -9.8431  -17.2900   24.1771 C.ar    1  UNL1        0.0414
      8 C          -9.0733  -16.1006   24.6696 C.ar    1  UNL1        0.0438
      9 C          -8.5654  -16.4146   26.0456 C.ar    1  UNL1        0.1798
     10 O          -9.0214  -17.7981   26.4035 O.2     1  UNL1       -0.4473
     11 C          -9.8110  -18.3391   25.2487 C.ar    1  UNL1        0.1797
     12 C          -6.9135  -18.7975   21.9647 C.1     1  UNL1       -0.0689
     13 C          -8.3448  -18.3746   21.8151 C.1     1  UNL1       -0.0614
     14 N          -4.4048  -18.1858   22.2513 N.3     1  UNL1       -0.3102
     15 C          -5.4821  -19.2204   22.1143 C.3     1  UNL1        0.1432
     16 H          -3.4997  -18.6473   22.3424 H       1  UNL1        0.1198
     17 H          -4.5819  -17.6182   23.0801 H       1  UNL1        0.1198
@<TRIPOS>BOND
     1    14    15    1
     2    15    12    1
     3    12    13    3
     4    13     1    1
     5     1     2   ar
     6     2     3   ar
     7     3     4   ar
     8     4     5   ar
     9     5     6   ar
    10     6     7    1
    11     7     8   ar
    12     8     9   ar
    13     9    10   ar
    14    10    11   ar
    15     6     1   ar
    16    11     7   ar
    17    14    16    1
    18    14    17    1
@<TRIPOS>MOLECULE
*****
 17 18 0 0 0
SMALL
GASTEIGER

@<TRIPOS>ATOM
      1 C          -7.3203  -16.7716   23.5798 C.ar    1  UNL1        0.0609
      2 C          -6.0678  -15.9835   23.8248 C.ar    1  UNL1        0.1071
      3 N          -5.9792  -15.0644   25.0070 N.ar    1  UNL1       -0.2417
      4 C          -7.1430  -14.9334   25.9441 C.ar    1  UNL1        0.0989
      5 C          -8.3955  -15.7215   25.6990 C.ar    1  UNL1        0.0214
      6 C          -8.4842  -16.6406   24.5169 C.ar    1  UNL1        0.0138
      7 C          -9.7368  -17.4287   24.2719 C.ar    1  UNL1        0.0414
      8 C         -10.8521  -17.0460   23.3448 C.ar    1  UNL1        0.0438
      9 C         -11.8985  -18.1186   23.4109 C.ar    1  UNL1        0.1798
     10 O         -11.4299  -19.1644   24.3789 O.2     1  UNL1       -0.4473
     11 C         -10.0939  -18.7379   24.9110 C.ar    1  UNL1        0.1797
     12 C          -7.4976  -18.6098   21.2156 C.1     1  UNL1       -0.0689
     13 C          -7.4089  -17.6907   22.3977 C.1     1  UNL1       -0.0614
     14 N          -8.6657  -19.3332   19.0105 N.3     1  UNL1       -0.3102
     15 C          -7.5862  -19.5289   20.0334 C.3     1  UNL1        0.1432
     16 H          -8.5764  -20.0416   18.2822 H       1  UNL1        0.1198
     17 H          -8.5766  -18.4057   18.5954 H       1  UNL1        0.1198
@<TRIPOS>BOND
     1    14    15    1
     2    15    12    1
     3    12    13    3
     4    13     1    1
     5     1     2   ar
     6     2     3   ar
     7     3     4   ar
     8     4     5   ar
     9     5     6   ar
    10     6     7    1
    11     7     8   ar
    12     8     9   ar
    13     9    10   ar
    14    10    11   ar
    15     6     1   ar
    16    11     7   ar
    17    14    16    1
    18    14    17    1
@<TRIPOS>MOLECULE
*****
 17 18 0 0 0
SMALL
GASTEIGER

@<TRIPOS>ATOM
      1 C          -9.6019  -19.1547   22.7386 C.ar    1  UNL1        0.0609
      2 C          -9.5482  -20.1411   23.8673 C.ar    1  UNL1        0.1071
      3 N         -10.6008  -20.1165   24.9357 N.ar    1  UNL1       -0.2417
      4 C         -11.7072  -19.1054   24.8753 C.ar    1  UNL1        0.0989
      5 C         -11.7609  -18.1190   23.7465 C.ar    1  UNL1        0.0214
      6 C         -10.7082  -18.1436   22.6782 C.ar    1  UNL1        0.0138
      7 C         -10.7619  -17.1571   21.5494 C.ar    1  UNL1        0.0414
      8 C         -11.6566  -17.2395   20.3483 C.ar    1  UNL1        0.0438
      9 C         -11.3781  -16.0484   19.4802 C.ar    1  UNL1        0.1798
     10 O         -10.3111  -15.2298   20.1449 O.2     1  UNL1       -0.4473
     11 C          -9.9304  -15.9151   21.4237 C.ar    1  UNL1        0.1797
     12 C          -7.4965  -19.2040   20.6020 C.1     1  UNL1       -0.0689
     13 C          -8.5492  -19.1793   21.6703 C.1     1  UNL1       -0.0614
     14 N          -5.1638  -18.4705   19.7244 N.3     1  UNL1       -0.3102
     15 C          -6.4439  -19.2286   19.5337 C.3     1  UNL1        0.1432
     16 H          -4.5682  -18.5975   18.9062 H       1  UNL1        0.1198
     17 H          -4.6821  -18.8195   20.5530 H       1  UNL1        0.1198
@<TRIPOS>BOND
     1    14    15    1
     2    15    12    1
     3    12    13    3
     4    13     1    1
     5     1     2   ar
     6     2     3   ar
     7     3     4   ar
     8     4     5   ar
     9     5     6   ar
    10     6     7    1
    11     7     8   ar
    12     8     9   ar
    13     9    10   ar
    14    10    11   ar
    15     6     1   ar
    16    11     7   ar
    17    14    16    1
    18    14    17    1
@<TRIPOS>MOLECULE
*****
 17 18 0 0 0
SMALL
GASTEIGER

@<TRIPOS>ATOM
      1 C         -12.9285   -4.3123   18.9474 C.ar    1  UNL1        0.0609
      2 C         -13.4827   -2.9407   19.1955 C.ar    1  UNL1        0.1071
      3 N         -12.5961   -1.7381   19.0622 N.ar    1  UNL1       -0.2417
      4 C         -11.1553   -1.9072   18.6807 C.ar    1  UNL1        0.0989
      5 C         -10.6012   -3.2788   18.4326 C.ar    1  UNL1        0.0214
      6 C         -11.4878   -4.4813   18.5659 C.ar    1  UNL1        0.0138
      7 C         -10.9335   -5.8530   18.3177 C.ar    1  UNL1        0.0414
      8 C          -9.8177   -6.5042   19.0798 C.ar    1  UNL1        0.0438
      9 C          -9.5925   -7.8679   18.4970 C.ar    1  UNL1        0.1798
     10 O         -10.5691   -8.0594   17.3746 O.2     1  UNL1       -0.4473
     11 C         -11.3979   -6.8141   17.2638 C.ar    1  UNL1        0.1797
     12 C         -14.7018   -6.7174   19.2140 C.1     1  UNL1       -0.0689
     13 C         -13.8152   -5.5148   19.0807 C.1     1  UNL1       -0.0614
     14 N         -15.0052   -9.2976   19.2380 N.3     1  UNL1       -0.3102
     15 C         -15.5884   -7.9199   19.3473 C.3     1  UNL1        0.1432
     16 H         -15.7452   -9.9901   19.3524 H       1  UNL1        0.1198
     17 H         -14.3022   -9.4279   19.9655 H       1  UNL1        0.1198
@<TRIPOS>BOND
     1    14    15    1
     2    15    12    1
     3    12    13    3
     4    13     1    1
     5     1     2   ar
     6     2     3   ar
     7     3     4   ar
     8     4     5   ar
     9     5     6   ar
    10     6     7    1
    11     7     8   ar
    12     8     9   ar
    13     9    10   ar
    14    10    11   ar
    15     6     1   ar
    16    11     7   ar
    17    14    16    1
    18    14    17    1
@<TRIPOS>MOLECULE
*****
 17 18 0 0 0
SMALL
GASTEIGER

@<TRIPOS>ATOM
      1 C          -8.1695  -17.8084   22.5499 C.ar    1  UNL1        0.0609
      2 C          -9.2270  -18.4689   21.7160 C.ar    1  UNL1        0.1071
      3 N         -10.6546  -18.0209   21.8225 N.ar    1  UNL1       -0.2417
      4 C         -11.0247  -16.9125   22.7629 C.ar    1  UNL1        0.0989
      5 C          -9.9672  -16.2520   23.5968 C.ar    1  UNL1        0.0214
      6 C          -8.5396  -16.7000   23.4903 C.ar    1  UNL1        0.0138
      7 C          -7.4821  -16.0394   24.3243 C.ar    1  UNL1        0.0414
      8 C          -7.4225  -16.0248   25.8230 C.ar    1  UNL1        0.0438
      9 C          -6.2021  -15.2539   26.2308 C.ar    1  UNL1        0.1798
     10 O          -5.5074  -14.7920   24.9841 O.2     1  UNL1       -0.4473
     11 C          -6.2985  -15.2775   23.8058 C.ar    1  UNL1        0.1797
     12 C          -5.3144  -18.7043   22.3369 C.1     1  UNL1       -0.0689
     13 C          -6.7420  -18.2564   22.4434 C.1     1  UNL1       -0.0614
     14 N          -3.4287  -19.9171   21.0241 N.3     1  UNL1       -0.3102
     15 C          -3.8868  -19.1523   22.2304 C.3     1  UNL1        0.1432
     16 H          -2.4376  -20.1390   21.1184 H       1  UNL1        0.1198
     17 H          -3.5724  -19.3509   20.1879 H       1  UNL1        0.1198
@<TRIPOS>BOND
     1    14    15    1
     2    15    12    1
     3    12    13    3
     4    13     1    1
     5     1     2   ar
     6     2     3   ar
     7     3     4   ar
     8     4     5   ar
     9     5     6   ar
    10     6     7    1
    11     7     8   ar
    12     8     9   ar
    13     9    10   ar
    14    10    11   ar
    15     6     1   ar
    16    11     7   ar
    17    14    16    1
    18    14    17    1
@<TRIPOS>MOLECULE
*****
 17 18 0 0 0
SMALL
GASTEIGER

@<TRIPOS>ATOM
      1 C          -9.6608  -17.0514   23.7555 C.ar    1  UNL1        0.0609
      2 C          -9.0178  -16.3289   24.9020 C.ar    1  UNL1        0.1071
      3 N          -7.5718  -15.9374   24.8256 N.ar    1  UNL1       -0.2417
      4 C          -6.7688  -16.2685   23.6027 C.ar    1  UNL1        0.0989
      5 C          -7.4117  -16.9910   22.4562 C.ar    1  UNL1        0.0214
      6 C          -8.8577  -17.3824   22.5326 C.ar    1  UNL1        0.0138
      7 C          -9.5007  -18.1050   21.3860 C.ar    1  UNL1        0.0414
      8 C         -10.6440  -17.6010   20.5560 C.ar    1  UNL1        0.0438
      9 C         -10.9631  -18.6429   19.5252 C.ar    1  UNL1        0.1798
     10 O         -10.0170  -19.7909   19.7180 O.2     1  UNL1       -0.4473
     11 C          -9.1132  -19.4584   20.8681 C.ar    1  UNL1        0.1797
     12 C         -12.5528  -17.8344   23.9082 C.1     1  UNL1       -0.0689
     13 C         -11.1068  -17.4429   23.8318 C.1     1  UNL1       -0.0614
     14 N         -14.6352  -18.4886   25.3172 N.3     1  UNL1       -0.3102
     15 C         -13.9988  -18.2258   23.9846 C.3     1  UNL1        0.1432
     16 H         -15.6144  -18.7407   25.1825 H       1  UNL1        0.1198
     17 H         -14.5765  -17.6491   25.8935 H       1  UNL1        0.1198
@<TRIPOS>BOND
     1    14    15    1
     2    15    12    1
     3    12    13    3
     4    13     1    1
     5     1     2   ar
     6     2     3   ar
     7     3     4   ar
     8     4     5   ar
     9     5     6   ar
    10     6     7    1
    11     7     8   ar
    12     8     9   ar
    13     9    10   ar
    14    10    11   ar
    15     6     1   ar
    16    11     7   ar
    17    14    16    1
    18    14    17    1
@<TRIPOS>MOLECULE
*****
 17 18 0 0 0
SMALL
GASTEIGER

@<TRIPOS>ATOM
      1 C         -12.1217   -6.6620   18.6657 C.ar    1  UNL1        0.0609
      2 C         -10.7041   -7.1467   18.5937 C.ar    1  UNL1        0.1071
      3 N          -9.5709   -6.1795   18.7679 N.ar    1  UNL1       -0.2417
      4 C          -9.8554   -4.7274   19.0141 C.ar    1  UNL1        0.0989
      5 C         -11.2731   -4.2427   19.0861 C.ar    1  UNL1        0.0214
      6 C         -12.4062   -5.2100   18.9119 C.ar    1  UNL1        0.0138
      7 C         -13.8239   -4.7251   18.9839 C.ar    1  UNL1        0.0414
      8 C         -14.6499   -4.5975   20.2295 C.ar    1  UNL1        0.0438
      9 C         -16.0010   -4.0764   19.8384 C.ar    1  UNL1        0.1798
     10 O         -16.0100   -3.8818   18.3510 O.2     1  UNL1       -0.4473
     11 C         -14.6645   -4.2828   17.8230 C.ar    1  UNL1        0.1797
     12 C         -14.3881   -8.5965   18.3172 C.1     1  UNL1       -0.0689
     13 C         -13.2549   -7.6292   18.4915 C.1     1  UNL1       -0.0614
     14 N         -15.2503  -11.0387   18.1123 N.3     1  UNL1       -0.3102
     15 C         -15.5212   -9.5638   18.1430 C.3     1  UNL1        0.1432
     16 H         -16.1280  -11.5431   17.9877 H       1  UNL1        0.1198
     17 H         -14.8164  -11.3231   18.9905 H       1  UNL1        0.1198
@<TRIPOS>BOND
     1    14    15    1
     2    15    12    1
     3    12    13    3
     4    13     1    1
     5     1     2   ar
     6     2     3   ar
     7     3     4   ar
     8     4     5   ar
     9     5     6   ar
    10     6     7    1
    11     7     8   ar
    12     8     9   ar
    13     9    10   ar
    14    10    11   ar
    15     6     1   ar
    16    11     7   ar
    17    14    16    1
    18    14    17    1
@<TRIPOS>MOLECULE
*****
 17 18 0 0 0
SMALL
GASTEIGER

@<TRIPOS>ATOM
      1 C          -5.9772  -18.4606   22.1668 C.ar    1  UNL1        0.0609
      2 C          -4.4988  -18.5238   21.9211 C.ar    1  UNL1        0.1071
      3 N          -3.9226  -19.6356   21.0954 N.ar    1  UNL1       -0.2417
      4 C          -4.8247  -20.6843   20.5154 C.ar    1  UNL1        0.0989
      5 C          -6.3031  -20.6210   20.7611 C.ar    1  UNL1        0.0214
      6 C          -6.8793  -19.5092   21.5868 C.ar    1  UNL1        0.0138
      7 C          -8.3578  -19.4460   21.8325 C.ar    1  UNL1        0.0414
      8 C          -9.0730  -19.9643   23.0447 C.ar    1  UNL1        0.0438
      9 C         -10.5378  -19.6921   22.8705 C.ar    1  UNL1        0.1798
     10 O         -10.7278  -19.0054   21.5504 O.2     1  UNL1       -0.4473
     11 C          -9.3805  -18.8534   20.9089 C.ar    1  UNL1        0.1797
     12 C          -7.1296  -16.2368   23.8182 C.1     1  UNL1       -0.0689
     13 C          -6.5534  -17.3487   22.9925 C.1     1  UNL1       -0.0614
     14 N          -7.4550  -15.0809   26.1220 N.3     1  UNL1       -0.3102
     15 C          -7.7058  -15.1250   24.6438 C.3     1  UNL1        0.1432
     16 H          -7.9175  -14.2641   26.5212 H       1  UNL1        0.1198
     17 H          -6.4515  -15.0217   26.2950 H       1  UNL1        0.1198
@<TRIPOS>BOND
     1    14    15    1
     2    15    12    1
     3    12    13    3
     4    13     1    1
     5     1     2   ar
     6     2     3   ar
     7     3     4   ar
     8     4     5   ar
     9     5     6   ar
    10     6     7    1
    11     7     8   ar
    12     8     9   ar
    13     9    10   ar
    14    10    11   ar
    15     6     1   ar
    16    11     7   ar
    17    14    16    1
    18    14    17    1
