@<TRIPOS>MOLECULE
*****
 32 36 0 0 0
SMALL
GASTEIGER

@<TRIPOS>ATOM
      1 C          -1.2292    3.9812   19.8889 C.ar    1  UNL1        0.1646
      2 N          -0.4035    2.8634   20.4536 N.ar    1  UNL1       -0.2224
      3 C           0.3247    2.2060   19.3189 C.ar    1  UNL1        0.1074
      4 C          -0.0509    2.9175   18.0530 C.ar    1  UNL1        0.0588
      5 S          -1.0113    4.0146   18.4052 S.2     1  UNL1       -0.0508
      6 C           1.2636    1.0416   19.4305 C.ar    1  UNL1        0.1026
      7 C           1.2862    0.2135   20.6810 C.ar    1  UNL1        0.0224
      8 C           2.2252   -0.9509   20.7926 C.ar    1  UNL1        0.0239
      9 C           3.1416   -1.2872   19.6537 C.ar    1  UNL1        0.1189
     10 C           3.1190   -0.4592   18.4032 C.ar    1  UNL1        0.2416
     11 N           2.1800    0.7053   18.2915 N.ar    1  UNL1       -0.2089
     12 N           4.0805   -2.4517   19.7653 N.ar    1  UNL1       -0.2826
     13 C           3.8148   -3.8477   19.2854 C.ar    1  UNL1        0.1826
     14 N           5.0201   -4.6833   19.6000 N.ar    1  UNL1       -0.2280
     15 C           6.0308   -3.8037   20.2743 C.ar    1  UNL1        0.0786
     16 C           7.3846   -4.2287   20.7609 C.3     1  UNL1        0.0538
     17 C           5.4501   -2.4244   20.3764 C.ar    1  UNL1        0.0963
     18 O           4.0354   -0.7956   17.2643 O.3     1  UNL1       -0.4551
     19 C           5.3524   -0.0907   17.1280 C.3     1  UNL1        0.2543
     20 N          -2.1169    4.9036   20.6707 N.pl3   1  UNL1       -0.2786
     21 H          -1.9435    5.8727   20.6688 H       1  UNL1        0.1555
     22 N          -4.5210    3.7543   20.8826 N.ar    1  UNL1       -0.2383
     23 N          -5.3969    3.3302   22.0240 N.ar    1  UNL1       -0.1729
     24 C          -4.6863    3.6632   23.3023 C.ar    1  UNL1        0.0773
     25 C          -3.3711    4.2931   22.9509 C.ar    1  UNL1        0.0244
     26 C          -3.2689    4.3494   21.4555 C.ar    1  UNL1        0.1275
     27 C          -2.4364    4.7340   24.0381 C.3     1  UNL1        0.0305
     28 C          -2.8170    4.5450   25.4766 C.3     1  UNL1        0.0052
     29 C          -4.1322    3.9151   25.8280 C.3     1  UNL1        0.0067
     30 C          -5.0668    3.4742   24.7408 C.3     1  UNL1        0.0474
     31 C          -6.2297    3.2399   18.9943 C.3     1  UNL1        0.0285
     32 C          -4.8409    3.6089   19.4243 C.3     1  UNL1        0.1289
@<TRIPOS>BOND
     1    31    32    1
     2    32    22    1
     3    22    23   ar
     4    23    24   ar
     5    24    25   ar
     6    25    26   ar
     7    26    20    1
     8    20     1    1
     9     1     2   ar
    10     2     3   ar
    11     3     6    1
    12     6     7   ar
    13     7     8   ar
    14     8     9   ar
    15     9    12    1
    16    12    13   ar
    17    13    14   ar
    18    14    15   ar
    19    15    16    1
    20    15    17   ar
    21     9    10   ar
    22    10    18    1
    23    18    19    1
    24    10    11   ar
    25     3     4   ar
    26     4     5   ar
    27    25    27    1
    28    27    28    1
    29    28    29    1
    30    29    30    1
    31    26    22   ar
    32     5     1   ar
    33    30    24    1
    34    11     6   ar
    35    17    12   ar
    36    20    21    1
@<TRIPOS>MOLECULE
*****
 32 36 0 0 0
SMALL
GASTEIGER

@<TRIPOS>ATOM
      1 C           2.7295   -0.8061   21.6213 C.ar    1  UNL1        0.1646
      2 N           3.5592   -1.6695   22.5247 N.ar    1  UNL1       -0.2224
      3 C           3.6180   -1.0100   23.8706 C.ar    1  UNL1        0.1074
      4 C           2.8246    0.2609   23.7991 C.ar    1  UNL1        0.0588
      5 S           2.2755    0.3870   22.4089 S.2     1  UNL1       -0.0508
      6 C           4.3429   -1.5302   25.0764 C.ar    1  UNL1        0.1026
      7 C           3.8684   -1.1657   26.4519 C.ar    1  UNL1        0.0224
      8 C           4.5933   -1.6859   27.6577 C.ar    1  UNL1        0.0239
      9 C           5.7927   -2.5707   27.4879 C.ar    1  UNL1        0.1189
     10 C           6.2671   -2.9351   26.1125 C.ar    1  UNL1        0.2416
     11 N           5.5423   -2.4149   24.9067 N.ar    1  UNL1       -0.2089
     12 N           6.5176   -3.0908   28.6937 N.ar    1  UNL1       -0.2826
     13 C           7.3868   -2.2871   29.6147 C.ar    1  UNL1        0.1826
     14 N           7.9070   -3.2056   30.6804 N.ar    1  UNL1       -0.2280
     15 C           7.3591   -4.5771   30.4181 C.ar    1  UNL1        0.0786
     16 C           7.6236   -5.8041   31.2395 C.3     1  UNL1        0.0538
     17 C           6.5004   -4.5062   29.1903 C.ar    1  UNL1        0.0963
     18 O           7.4665   -3.8198   25.9428 O.3     1  UNL1       -0.4551
     19 C           7.2905   -5.2503   25.5270 C.3     1  UNL1        0.2543
     20 N           2.4099   -1.0865   20.1827 N.pl3   1  UNL1       -0.2786
     21 H           1.4733   -1.1908   19.8978 H       1  UNL1        0.1555
     22 N           4.0620   -2.4881   18.6171 N.ar    1  UNL1       -0.2383
     23 N           5.1558   -2.1421   17.6507 N.ar    1  UNL1       -0.1729
     24 C           5.2872   -0.6483   17.6147 C.ar    1  UNL1        0.0773
     25 C           4.2746   -0.0711   18.5589 C.ar    1  UNL1        0.0244
     26 C           3.5174   -1.2081   19.1783 C.ar    1  UNL1        0.1275
     27 C           4.1728    1.4153   18.7325 C.3     1  UNL1        0.0305
     28 C           5.0837    2.3245   17.9620 C.3     1  UNL1        0.0052
     29 C           6.0963    1.7473   17.0179 C.3     1  UNL1        0.0067
     30 C           6.1981    0.2609   16.8443 C.3     1  UNL1        0.0474
     31 C           4.5444   -5.0286   18.8681 C.3     1  UNL1        0.0285
     32 C           3.5948   -3.8713   18.9617 C.3     1  UNL1        0.1289
@<TRIPOS>BOND
     1    31    32    1
     2    32    22    1
     3    22    23   ar
     4    23    24   ar
     5    24    25   ar
     6    25    26   ar
     7    26    20    1
     8    20     1    1
     9     1     2   ar
    10     2     3   ar
    11     3     6    1
    12     6     7   ar
    13     7     8   ar
    14     8     9   ar
    15     9    12    1
    16    12    13   ar
    17    13    14   ar
    18    14    15   ar
    19    15    16    1
    20    15    17   ar
    21     9    10   ar
    22    10    18    1
    23    18    19    1
    24    10    11   ar
    25     3     4   ar
    26     4     5   ar
    27    25    27    1
    28    27    28    1
    29    28    29    1
    30    29    30    1
    31    26    22   ar
    32     5     1   ar
    33    30    24    1
    34    11     6   ar
    35    17    12   ar
    36    20    21    1
@<TRIPOS>MOLECULE
*****
 32 36 0 0 0
SMALL
GASTEIGER

@<TRIPOS>ATOM
      1 C          -1.4968    3.8622   22.9936 C.ar    1  UNL1        0.1646
      2 N          -0.8839    3.0558   21.8873 N.ar    1  UNL1       -0.2224
      3 C           0.1217    2.1236   22.4954 C.ar    1  UNL1        0.1074
      4 C           0.1301    2.3537   23.9775 C.ar    1  UNL1        0.0588
      5 S          -0.8701    3.4282   24.2855 S.2     1  UNL1       -0.0508
      6 C           0.9698    1.1347   21.7518 C.ar    1  UNL1        0.1026
      7 C           0.4182    0.4282   20.5491 C.ar    1  UNL1        0.0224
      8 C           1.2664   -0.5606   19.8055 C.ar    1  UNL1        0.0239
      9 C           2.6662   -0.8429   20.2648 C.ar    1  UNL1        0.1189
     10 C           3.2178   -0.1364   21.4675 C.ar    1  UNL1        0.2416
     11 N           2.3696    0.8524   22.2110 N.ar    1  UNL1       -0.2089
     12 N           3.5143   -1.8317   19.5212 N.ar    1  UNL1       -0.2826
     13 C           4.5075   -1.5079   18.4448 C.ar    1  UNL1        0.1826
     14 N           5.1252   -2.7940   17.9818 N.ar    1  UNL1       -0.2280
     15 C           4.5137   -3.9127   18.7721 C.ar    1  UNL1        0.0786
     16 C           4.8406   -5.3703   18.6351 C.3     1  UNL1        0.0538
     17 C           3.5182   -3.3180   19.7235 C.ar    1  UNL1        0.0963
     18 O           4.6176   -0.4187   21.9266 O.3     1  UNL1       -0.4551
     19 C           4.9377   -0.4332   23.3920 C.3     1  UNL1        0.2543
     20 N          -2.5514    4.9173   22.8359 N.pl3   1  UNL1       -0.2786
     21 H          -2.3642    5.8448   23.1076 H       1  UNL1        0.1555
     22 N          -5.1726    4.4323   23.0333 N.ar    1  UNL1       -0.2383
     23 N          -6.2580    4.0595   22.0674 N.ar    1  UNL1       -0.1729
     24 C          -5.6473    3.9559   20.7013 C.ar    1  UNL1        0.0773
     25 C          -4.1845    4.2646   20.8229 C.ar    1  UNL1        0.0244
     26 C          -3.8911    4.5590   22.2642 C.ar    1  UNL1        0.1275
     27 C          -3.3085    4.2378   19.6055 C.3     1  UNL1        0.0305
     28 C          -3.8955    3.9023   18.2665 C.3     1  UNL1        0.0052
     29 C          -5.3583    3.5936   18.1449 C.3     1  UNL1        0.0067
     30 C          -6.2342    3.6204   19.3623 C.3     1  UNL1        0.0474
     31 C          -4.6309    3.7429   25.4790 C.3     1  UNL1        0.0285
     32 C          -5.3395    4.6415   24.5093 C.3     1  UNL1        0.1289
@<TRIPOS>BOND
     1    31    32    1
     2    32    22    1
     3    22    23   ar
     4    23    24   ar
     5    24    25   ar
     6    25    26   ar
     7    26    20    1
     8    20     1    1
     9     1     2   ar
    10     2     3   ar
    11     3     6    1
    12     6     7   ar
    13     7     8   ar
    14     8     9   ar
    15     9    12    1
    16    12    13   ar
    17    13    14   ar
    18    14    15   ar
    19    15    16    1
    20    15    17   ar
    21     9    10   ar
    22    10    18    1
    23    18    19    1
    24    10    11   ar
    25     3     4   ar
    26     4     5   ar
    27    25    27    1
    28    27    28    1
    29    28    29    1
    30    29    30    1
    31    26    22   ar
    32     5     1   ar
    33    30    24    1
    34    11     6   ar
    35    17    12   ar
    36    20    21    1
@<TRIPOS>MOLECULE
*****
 32 36 0 0 0
SMALL
GASTEIGER

@<TRIPOS>ATOM
      1 C           5.0321   -2.6275   22.1780 C.ar    1  UNL1        0.1646
      2 N           3.9598   -1.9952   23.0149 N.ar    1  UNL1       -0.2224
      3 C           4.5440   -1.6874   24.3617 C.ar    1  UNL1        0.1074
      4 C           5.9773   -2.1295   24.3572 C.ar    1  UNL1        0.0588
      5 S           6.2790   -2.7105   23.0076 S.2     1  UNL1       -0.0508
      6 C           3.8217   -1.0495   25.5112 C.ar    1  UNL1        0.1026
      7 C           4.0260   -1.5656   26.9047 C.ar    1  UNL1        0.0224
      8 C           3.3037   -0.9277   28.0542 C.ar    1  UNL1        0.0239
      9 C           2.3770    0.2263   27.8101 C.ar    1  UNL1        0.1189
     10 C           2.1727    0.7423   26.4166 C.ar    1  UNL1        0.2416
     11 N           2.8950    0.1045   25.2671 N.ar    1  UNL1       -0.2089
     12 N           1.6547    0.8642   28.9596 N.ar    1  UNL1       -0.2826
     13 C           0.3043    0.4701   29.4803 C.ar    1  UNL1        0.1826
     14 N          -0.0291    1.3704   30.6328 N.ar    1  UNL1       -0.2280
     15 C           1.1153    2.3211   30.8243 C.ar    1  UNL1        0.0786
     16 C           1.2035    3.3960   31.8670 C.3     1  UNL1        0.0538
     17 C           2.1559    2.0082   29.7903 C.ar    1  UNL1        0.0963
     18 O           1.2459    1.8963   26.1727 O.3     1  UNL1       -0.4551
     19 C          -0.1515    1.6466   25.6881 C.3     1  UNL1        0.2543
     20 N           4.8836   -3.0948   20.7603 N.pl3   1  UNL1       -0.2786
     21 H           4.9771   -4.0508   20.5448 H       1  UNL1        0.1555
     22 N           5.4986   -1.7632   18.5257 N.ar    1  UNL1       -0.2383
     23 N           4.8103   -0.7308   17.6828 N.ar    1  UNL1       -0.1729
     24 C           3.4790   -0.4349   18.3073 C.ar    1  UNL1        0.0773
     25 C           3.3444   -1.2844   19.5362 C.ar    1  UNL1        0.0244
     26 C           4.5925   -2.1054   19.6711 C.ar    1  UNL1        0.1275
     27 C           2.1027   -1.2007   20.3735 C.3     1  UNL1        0.0305
     28 C           0.9956   -0.2675   19.9819 C.3     1  UNL1        0.0052
     29 C           1.1302    0.5821   18.7531 C.3     1  UNL1        0.0067
     30 C           2.3719    0.4984   17.9157 C.3     1  UNL1        0.0474
     31 C           7.9989   -2.0239   19.1816 C.3     1  UNL1        0.0285
     32 C           6.8547   -2.3504   18.2683 C.3     1  UNL1        0.1289
@<TRIPOS>BOND
     1    31    32    1
     2    32    22    1
     3    22    23   ar
     4    23    24   ar
     5    24    25   ar
     6    25    26   ar
     7    26    20    1
     8    20     1    1
     9     1     2   ar
    10     2     3   ar
    11     3     6    1
    12     6     7   ar
    13     7     8   ar
    14     8     9   ar
    15     9    12    1
    16    12    13   ar
    17    13    14   ar
    18    14    15   ar
    19    15    16    1
    20    15    17   ar
    21     9    10   ar
    22    10    18    1
    23    18    19    1
    24    10    11   ar
    25     3     4   ar
    26     4     5   ar
    27    25    27    1
    28    27    28    1
    29    28    29    1
    30    29    30    1
    31    26    22   ar
    32     5     1   ar
    33    30    24    1
    34    11     6   ar
    35    17    12   ar
    36    20    21    1
@<TRIPOS>MOLECULE
*****
 32 36 0 0 0
SMALL
GASTEIGER

@<TRIPOS>ATOM
      1 C           4.8476   -2.9666   20.0168 C.ar    1  UNL1        0.1646
      2 N           4.7418   -2.9665   21.5131 N.ar    1  UNL1       -0.2224
      3 C           6.0228   -3.5151   22.0683 C.ar    1  UNL1        0.1074
      4 C           6.9201   -3.8541   20.9152 C.ar    1  UNL1        0.0588
      5 S           6.1939   -3.5152   19.6473 S.2     1  UNL1       -0.0508
      6 C           6.3491   -3.6932   23.5215 C.ar    1  UNL1        0.1026
      7 C           5.9285   -2.6536   24.5176 C.ar    1  UNL1        0.0224
      8 C           6.2547   -2.8317   25.9708 C.ar    1  UNL1        0.0239
      9 C           7.0017   -4.0496   26.4279 C.ar    1  UNL1        0.1189
     10 C           7.4223   -5.0892   25.4318 C.ar    1  UNL1        0.2416
     11 N           7.0960   -4.9111   23.9786 N.ar    1  UNL1       -0.2089
     12 N           7.3279   -4.2277   27.8811 N.ar    1  UNL1       -0.2826
     13 C           8.3981   -3.5006   28.6401 C.ar    1  UNL1        0.1826
     14 N           8.3729   -3.9878   30.0585 N.ar    1  UNL1       -0.2280
     15 C           7.2871   -5.0160   30.1762 C.ar    1  UNL1        0.0786
     16 C           6.9129   -5.7645   31.4212 C.3     1  UNL1        0.0538
     17 C           6.6413   -5.1643   28.8305 C.ar    1  UNL1        0.0963
     18 O           8.1692   -6.3071   25.8890 O.3     1  UNL1       -0.4551
     19 C           7.4534   -7.6180   26.0271 C.3     1  UNL1        0.2543
     20 N           3.7922   -2.5001   19.0583 N.pl3   1  UNL1       -0.2786
     21 H           3.2618   -3.1571   18.5521 H       1  UNL1        0.1555
     22 N           4.4326   -0.0763   18.1308 N.ar    1  UNL1       -0.2383
     23 N           3.8030    1.2837   18.1935 N.ar    1  UNL1       -0.1729
     24 C           2.5264    1.1681   18.9725 C.ar    1  UNL1        0.0773
     25 C           2.3669   -0.2634   19.3912 C.ar    1  UNL1        0.0244
     26 C           3.5451   -1.0325   18.8711 C.ar    1  UNL1        0.1275
     27 C           1.1696   -0.6817   20.1921 C.3     1  UNL1        0.0305
     28 C           0.1317    0.3316   20.5742 C.3     1  UNL1        0.0052
     29 C           0.2912    1.7631   20.1555 C.3     1  UNL1        0.0067
     30 C           1.4885    2.1814   19.3546 C.3     1  UNL1        0.0474
     31 C           6.4107    0.5986   16.5875 C.3     1  UNL1        0.0285
     32 C           5.7232   -0.4198   17.4478 C.3     1  UNL1        0.1289
@<TRIPOS>BOND
     1    31    32    1
     2    32    22    1
     3    22    23   ar
     4    23    24   ar
     5    24    25   ar
     6    25    26   ar
     7    26    20    1
     8    20     1    1
     9     1     2   ar
    10     2     3   ar
    11     3     6    1
    12     6     7   ar
    13     7     8   ar
    14     8     9   ar
    15     9    12    1
    16    12    13   ar
    17    13    14   ar
    18    14    15   ar
    19    15    16    1
    20    15    17   ar
    21     9    10   ar
    22    10    18    1
    23    18    19    1
    24    10    11   ar
    25     3     4   ar
    26     4     5   ar
    27    25    27    1
    28    27    28    1
    29    28    29    1
    30    29    30    1
    31    26    22   ar
    32     5     1   ar
    33    30    24    1
    34    11     6   ar
    35    17    12   ar
    36    20    21    1
@<TRIPOS>MOLECULE
*****
 32 36 0 0 0
SMALL
GASTEIGER

@<TRIPOS>ATOM
      1 C         -17.0890    1.3720   20.0214 C.ar    1  UNL1        0.1646
      2 N         -15.7228    0.7711   19.8720 N.ar    1  UNL1       -0.2224
      3 C         -15.8847   -0.7090   19.6899 C.ar    1  UNL1        0.1074
      4 C         -17.3511   -1.0228   19.7268 C.ar    1  UNL1        0.0588
      5 S         -18.0953    0.2633   19.9317 S.2     1  UNL1       -0.0508
      6 C         -14.7752   -1.7010   19.5036 C.ar    1  UNL1        0.1026
      7 C         -14.5791   -2.8033   20.5019 C.ar    1  UNL1        0.0224
      8 C         -13.4696   -3.7953   20.3156 C.ar    1  UNL1        0.0239
      9 C         -12.5560   -3.6851   19.1309 C.ar    1  UNL1        0.1189
     10 C         -12.7521   -2.5828   18.1327 C.ar    1  UNL1        0.2416
     11 N         -13.8617   -1.5908   18.3190 N.ar    1  UNL1       -0.2089
     12 N         -11.4465   -4.6771   18.9446 N.ar    1  UNL1       -0.2826
     13 C          -9.9789   -4.3911   19.0634 C.ar    1  UNL1        0.1826
     14 N          -9.2351   -5.6665   18.7990 N.ar    1  UNL1       -0.2280
     15 C         -10.2431   -6.7409   18.5169 C.ar    1  UNL1        0.0786
     16 C          -9.9378   -8.1751   18.2003 C.3     1  UNL1        0.0538
     17 C         -11.6098   -6.1294   18.6069 C.ar    1  UNL1        0.0963
     18 O         -11.8386   -2.4726   16.9481 O.3     1  UNL1       -0.4551
     19 C         -10.7935   -1.3975   16.9043 C.3     1  UNL1        0.2543
     20 N         -17.3952    2.8263   20.2249 N.pl3   1  UNL1       -0.2786
     21 H         -18.3201    3.1518   20.1361 H       1  UNL1        0.1555
     22 N         -15.4115    4.4984   19.5813 N.ar    1  UNL1       -0.2383
     23 N         -14.4512    5.3524   20.3548 N.ar    1  UNL1       -0.1729
     24 C         -14.7384    5.1666   21.8153 C.ar    1  UNL1        0.0773
     25 C         -15.8761    4.1977   21.9444 C.ar    1  UNL1        0.0244
     26 C         -16.2921    3.7847   20.5637 C.ar    1  UNL1        0.1275
     27 C         -16.3864    3.8167   23.3025 C.3     1  UNL1        0.0305
     28 C         -15.7588    4.4047   24.5315 C.3     1  UNL1        0.0052
     29 C         -14.6210    5.3736   24.4024 C.3     1  UNL1        0.0067
     30 C         -14.1108    5.7546   23.0443 C.3     1  UNL1        0.0474
     31 C         -14.7345    3.2805   17.3885 C.3     1  UNL1        0.0285
     32 C         -15.4792    4.3789   18.0876 C.3     1  UNL1        0.1289
@<TRIPOS>BOND
     1    31    32    1
     2    32    22    1
     3    22    23   ar
     4    23    24   ar
     5    24    25   ar
     6    25    26   ar
     7    26    20    1
     8    20     1    1
     9     1     2   ar
    10     2     3   ar
    11     3     6    1
    12     6     7   ar
    13     7     8   ar
    14     8     9   ar
    15     9    12    1
    16    12    13   ar
    17    13    14   ar
    18    14    15   ar
    19    15    16    1
    20    15    17   ar
    21     9    10   ar
    22    10    18    1
    23    18    19    1
    24    10    11   ar
    25     3     4   ar
    26     4     5   ar
    27    25    27    1
    28    27    28    1
    29    28    29    1
    30    29    30    1
    31    26    22   ar
    32     5     1   ar
    33    30    24    1
    34    11     6   ar
    35    17    12   ar
    36    20    21    1
@<TRIPOS>MOLECULE
*****
 32 36 0 0 0
SMALL
GASTEIGER

@<TRIPOS>ATOM
      1 C           1.3943    0.7774   20.0158 C.ar    1  UNL1        0.1646
      2 N           1.7937    0.4092   21.4139 N.ar    1  UNL1       -0.2224
      3 C           0.9696    1.2284   22.3624 C.ar    1  UNL1        0.1074
      4 C           0.0608    2.1029   21.5504 C.ar    1  UNL1        0.0588
      5 S           0.3233    1.8242   20.1001 S.2     1  UNL1       -0.0508
      6 C           1.0416    1.1814   23.8599 C.ar    1  UNL1        0.1026
      7 C          -0.1417    1.6000   24.6813 C.ar    1  UNL1        0.0224
      8 C          -0.0697    1.5530   26.1788 C.ar    1  UNL1        0.0239
      9 C           1.1857    1.0874   26.8550 C.ar    1  UNL1        0.1189
     10 C           2.3690    0.6688   26.0337 C.ar    1  UNL1        0.2416
     11 N           2.2970    0.7158   24.5361 N.ar    1  UNL1       -0.2089
     12 N           1.2577    1.0403   28.3525 N.ar    1  UNL1       -0.2826
     13 C           1.3630   -0.1984   29.1917 C.ar    1  UNL1        0.1826
     14 N           1.4075    0.2195   30.6316 N.ar    1  UNL1       -0.2280
     15 C           1.3296    1.7166   30.6823 C.ar    1  UNL1        0.0786
     16 C           1.3421    2.5585   31.9238 C.3     1  UNL1        0.0538
     17 C           1.2371    2.2239   29.2738 C.ar    1  UNL1        0.0963
     18 O           3.6243    0.2032   26.7099 O.3     1  UNL1       -0.4551
     19 C           3.9487   -1.2603   26.7638 C.3     1  UNL1        0.2543
     20 N           1.9655    0.2001   18.7546 N.pl3   1  UNL1       -0.2786
     21 H           1.4065    0.1319   17.9471 H       1  UNL1        0.1555
     22 N           4.5925    0.5713   18.4286 N.ar    1  UNL1       -0.2383
     23 N           5.8054   -0.3079   18.5052 N.ar    1  UNL1       -0.1729
     24 C           5.3511   -1.6958   18.8477 C.ar    1  UNL1        0.0773
     25 C           3.8574   -1.6744   18.9828 C.ar    1  UNL1        0.0244
     26 C           3.3886   -0.2733   18.7238 C.ar    1  UNL1        0.1275
     27 C           3.1171   -2.9336   19.3241 C.3     1  UNL1        0.0305
     28 C           3.8706   -4.2140   19.5304 C.3     1  UNL1        0.0052
     29 C           5.3643   -4.2354   19.3953 C.3     1  UNL1        0.0067
     30 C           6.1046   -2.9763   19.0539 C.3     1  UNL1        0.0474
     31 C           5.7491    2.6567   17.3975 C.3     1  UNL1        0.0285
     32 C           4.5849    2.0375   18.1124 C.3     1  UNL1        0.1289
@<TRIPOS>BOND
     1    31    32    1
     2    32    22    1
     3    22    23   ar
     4    23    24   ar
     5    24    25   ar
     6    25    26   ar
     7    26    20    1
     8    20     1    1
     9     1     2   ar
    10     2     3   ar
    11     3     6    1
    12     6     7   ar
    13     7     8   ar
    14     8     9   ar
    15     9    12    1
    16    12    13   ar
    17    13    14   ar
    18    14    15   ar
    19    15    16    1
    20    15    17   ar
    21     9    10   ar
    22    10    18    1
    23    18    19    1
    24    10    11   ar
    25     3     4   ar
    26     4     5   ar
    27    25    27    1
    28    27    28    1
    29    28    29    1
    30    29    30    1
    31    26    22   ar
    32     5     1   ar
    33    30    24    1
    34    11     6   ar
    35    17    12   ar
    36    20    21    1
@<TRIPOS>MOLECULE
*****
 32 36 0 0 0
SMALL
GASTEIGER

@<TRIPOS>ATOM
      1 C           4.9191   -2.9685   21.8655 C.ar    1  UNL1        0.1646
      2 N           4.1773   -2.4784   23.0736 N.ar    1  UNL1       -0.2224
      3 C           5.1598   -2.3478   24.1995 C.ar    1  UNL1        0.1074
      4 C           6.5088   -2.7573   23.6872 C.ar    1  UNL1        0.0588
      5 S           6.3601   -3.1409   22.2448 S.2     1  UNL1       -0.0508
      6 C           4.8480   -1.8885   25.5930 C.ar    1  UNL1        0.1026
      7 C           3.6534   -1.0174   25.8459 C.ar    1  UNL1        0.0224
      8 C           3.3417   -0.5580   27.2394 C.ar    1  UNL1        0.0239
      9 C           4.2246   -0.9699   28.3800 C.ar    1  UNL1        0.1189
     10 C           5.4192   -1.8410   28.1270 C.ar    1  UNL1        0.2416
     11 N           5.7310   -2.3003   26.7335 N.ar    1  UNL1       -0.2089
     12 N           3.9128   -0.5105   29.7734 N.ar    1  UNL1       -0.2826
     13 C           2.6492   -0.7898   30.5319 C.ar    1  UNL1        0.1826
     14 N           2.7653   -0.1432   31.8803 N.ar    1  UNL1       -0.2280
     15 C           4.1007    0.5359   31.9552 C.ar    1  UNL1        0.0786
     16 C           4.6334    1.3066   33.1267 C.3     1  UNL1        0.0538
     17 C           4.8099    0.3088   30.6532 C.ar    1  UNL1        0.0963
     18 O           6.3020   -2.2528   29.2676 O.3     1  UNL1       -0.4551
     19 C           6.6305   -3.7013   29.4767 C.3     1  UNL1        0.2543
     20 N           4.3244   -3.2388   20.5152 N.pl3   1  UNL1       -0.2786
     21 H           4.0694   -4.1560   20.2643 H       1  UNL1        0.1555
     22 N           5.0335   -1.7403   18.4183 N.ar    1  UNL1       -0.2383
     23 N           4.4414   -0.5571   17.7116 N.ar    1  UNL1       -0.1729
     24 C           3.1602   -0.1971   18.4037 C.ar    1  UNL1        0.0773
     25 C           2.9605   -1.1579   19.5382 C.ar    1  UNL1        0.0244
     26 C           4.1182   -2.1116   19.5472 C.ar    1  UNL1        0.1275
     27 C           1.7502   -1.0402   20.4164 C.3     1  UNL1        0.0305
     28 C           0.7397    0.0383   20.1602 C.3     1  UNL1        0.0052
     29 C           0.9395    0.9991   19.0257 C.3     1  UNL1        0.0067
     30 C           2.1497    0.8814   18.1475 C.3     1  UNL1        0.0474
     31 C           7.5937   -2.0420   18.7413 C.3     1  UNL1        0.0285
     32 C           6.3157   -2.4310   18.0592 C.3     1  UNL1        0.1289
@<TRIPOS>BOND
     1    31    32    1
     2    32    22    1
     3    22    23   ar
     4    23    24   ar
     5    24    25   ar
     6    25    26   ar
     7    26    20    1
     8    20     1    1
     9     1     2   ar
    10     2     3   ar
    11     3     6    1
    12     6     7   ar
    13     7     8   ar
    14     8     9   ar
    15     9    12    1
    16    12    13   ar
    17    13    14   ar
    18    14    15   ar
    19    15    16    1
    20    15    17   ar
    21     9    10   ar
    22    10    18    1
    23    18    19    1
    24    10    11   ar
    25     3     4   ar
    26     4     5   ar
    27    25    27    1
    28    27    28    1
    29    28    29    1
    30    29    30    1
    31    26    22   ar
    32     5     1   ar
    33    30    24    1
    34    11     6   ar
    35    17    12   ar
    36    20    21    1
@<TRIPOS>MOLECULE
*****
 32 36 0 0 0
SMALL
GASTEIGER

@<TRIPOS>ATOM
      1 C           0.9268    0.2636   19.8103 C.ar    1  UNL1        0.1646
      2 N          -0.1470    0.7133   20.7562 N.ar    1  UNL1       -0.2224
      3 C          -0.5245    2.1192   20.3943 C.ar    1  UNL1        0.1074
      4 C           0.3159    2.5384   19.2248 C.ar    1  UNL1        0.0588
      5 S           1.2129    1.3916   18.8638 S.2     1  UNL1       -0.0508
      6 C          -1.5606    2.9585   21.0813 C.ar    1  UNL1        0.1026
      7 C          -1.1721    3.8332   22.2363 C.ar    1  UNL1        0.0224
      8 C          -2.2082    4.6725   22.9233 C.ar    1  UNL1        0.0239
      9 C          -3.6329    4.6371   22.4554 C.ar    1  UNL1        0.1189
     10 C          -4.0215    3.7624   21.3004 C.ar    1  UNL1        0.2416
     11 N          -2.9854    2.9231   20.6134 N.ar    1  UNL1       -0.2089
     12 N          -4.6690    5.4764   23.1424 N.ar    1  UNL1       -0.2826
     13 C          -4.8623    6.9540   22.9709 C.ar    1  UNL1        0.1826
     14 N          -6.0065    7.3763   23.8441 N.ar    1  UNL1       -0.2280
     15 C          -6.5204    6.1597   24.5553 C.ar    1  UNL1        0.0786
     16 C          -7.6608    6.1236   25.5292 C.3     1  UNL1        0.0538
     17 C          -5.6938    4.9855   24.1216 C.ar    1  UNL1        0.0963
     18 O          -5.4462    3.7271   20.8325 O.3     1  UNL1       -0.4551
     19 C          -5.7585    3.3899   19.4046 C.3     1  UNL1        0.2543
     20 N           1.5969   -1.0784   19.8107 N.pl3   1  UNL1       -0.2786
     21 H           1.1103   -1.8717   19.4893 H       1  UNL1        0.1555
     22 N           4.2023   -1.5651   19.4646 N.ar    1  UNL1       -0.2383
     23 N           5.4053   -1.5870   20.3603 N.ar    1  UNL1       -0.1729
     24 C           4.9548   -1.2473   21.7501 C.ar    1  UNL1        0.0773
     25 C           3.4733   -1.0155   21.7134 C.ar    1  UNL1        0.0244
     26 C           3.0082   -1.2119   20.3009 C.ar    1  UNL1        0.1275
     27 C           2.7391   -0.6554   22.9709 C.3     1  UNL1        0.0305
     28 C           3.4865   -0.5273   24.2651 C.3     1  UNL1        0.0052
     29 C           4.9680   -0.7591   24.3018 C.3     1  UNL1        0.0067
     30 C           5.7021   -1.1192   23.0443 C.3     1  UNL1        0.0474
     31 C           3.8212   -0.7645   17.0225 C.3     1  UNL1        0.0285
     32 C           4.1947   -1.8470   17.9913 C.3     1  UNL1        0.1289
@<TRIPOS>BOND
     1    31    32    1
     2    32    22    1
     3    22    23   ar
     4    23    24   ar
     5    24    25   ar
     6    25    26   ar
     7    26    20    1
     8    20     1    1
     9     1     2   ar
    10     2     3   ar
    11     3     6    1
    12     6     7   ar
    13     7     8   ar
    14     8     9   ar
    15     9    12    1
    16    12    13   ar
    17    13    14   ar
    18    14    15   ar
    19    15    16    1
    20    15    17   ar
    21     9    10   ar
    22    10    18    1
    23    18    19    1
    24    10    11   ar
    25     3     4   ar
    26     4     5   ar
    27    25    27    1
    28    27    28    1
    29    28    29    1
    30    29    30    1
    31    26    22   ar
    32     5     1   ar
    33    30    24    1
    34    11     6   ar
    35    17    12   ar
    36    20    21    1
