@<TRIPOS>MOLECULE
*****
 32 34 0 0 0
SMALL
GASTEIGER

@<TRIPOS>ATOM
      1 C          -5.0213    4.0537   22.1845 C.2     1  UNL1        0.2571
      2 O          -5.4062    3.2936   20.9500 O.2     1  UNL1       -0.2695
      3 N          -3.5772    4.1733   22.5720 N.am    1  UNL1       -0.2357
      4 C          -2.5179    3.5327   21.7249 C.2     1  UNL1        0.3104
      5 O          -2.9027    2.7726   20.4904 O.2     1  UNL1       -0.2521
      6 N          -1.0737    3.6523   22.1124 N.am    1  UNL1       -0.2680
      7 H          -3.3246    4.6722   23.3823 H       1  UNL1        0.1594
      8 H          -0.8211    4.1513   22.9227 H       1  UNL1        0.1564
      9 C          -5.8949    4.7939   24.5168 C.ar    1  UNL1        0.1461
     10 C          -6.9542    5.4345   25.3638 C.ar    1  UNL1        0.0577
     11 C          -8.1992    5.9755   24.7257 C.ar    1  UNL1        0.1020
     12 N          -8.3850    5.8759   23.2407 N.ar    1  UNL1       -0.2420
     13 C          -7.3257    5.2353   22.3936 C.ar    1  UNL1        0.1064
     14 C          -6.0807    4.6943   23.0317 C.ar    1  UNL1        0.1068
     15 C          -4.4772    4.3258   26.6430 C.3     1  UNL1        0.2525
     16 O          -4.6498    4.2529   25.1548 O.3     1  UNL1       -0.4712
     17 C          -0.0144    3.0117   21.2653 C.ar    1  UNL1        0.0515
     18 C           0.4643    3.6954   20.0189 C.ar    1  UNL1        0.0147
     19 C           1.5235    3.0548   19.1718 C.ar    1  UNL1        0.0012
     20 C           2.1041    1.7307   19.5710 C.ar    1  UNL1        0.0040
     21 C           1.6254    1.0470   20.8174 C.ar    1  UNL1        0.0727
     22 C           0.5662    1.6876   21.6645 C.ar    1  UNL1        0.0186
     23 C           3.1634    1.0901   18.7239 C.ar    1  UNL1       -0.0000
     24 C           4.5805    1.5759   18.8006 C.ar    1  UNL1       -0.0000
     25 C           5.6398    0.9354   17.9535 C.ar    1  UNL1       -0.0000
     26 C           5.2820   -0.1910   17.0298 C.ar    1  UNL1       -0.0000
     27 C           3.8649   -0.6768   16.9532 C.ar    1  UNL1       -0.0000
     28 C           2.8056   -0.0363   17.8002 C.ar    1  UNL1       -0.0000
     29 C           2.2060   -0.2772   21.2167 C.3     1  UNL1        0.4186
     30 F           2.7866   -1.6014   21.6159 F       1  UNL1       -0.1659
     31 F           1.1222   -0.9818   20.4559 F       1  UNL1       -0.1659
     32 F           3.2899    0.4273   21.9775 F       1  UNL1       -0.1659
@<TRIPOS>BOND
     1    15    16    1
     2    16     9    1
     3     9    10   ar
     4    10    11   ar
     5    11    12   ar
     6    12    13   ar
     7    13    14   ar
     8    14     1    1
     9     1     2    2
    10     1     3   am
    11     3     4   am
    12     4     5    2
    13     4     6   am
    14     6    17    1
    15    17    18   ar
    16    18    19   ar
    17    19    20   ar
    18    20    23    1
    19    23    24   ar
    20    24    25   ar
    21    25    26   ar
    22    26    27   ar
    23    27    28   ar
    24    20    21   ar
    25    21    29    1
    26    29    30    1
    27    29    31    1
    28    29    32    1
    29    21    22   ar
    30    14     9   ar
    31    22    17   ar
    32    28    23   ar
    33     3     7    1
    34     6     8    1
@<TRIPOS>MOLECULE
*****
 32 34 0 0 0
SMALL
GASTEIGER

@<TRIPOS>ATOM
      1 C          -1.6461    3.7478   20.0810 C.2     1  UNL1        0.2571
      2 O          -0.4690    4.6352   20.3580 O.2     1  UNL1       -0.2695
      3 N          -1.4913    2.2569   20.1382 N.am    1  UNL1       -0.2357
      4 C          -0.1594    1.6534   20.4723 C.2     1  UNL1        0.3104
      5 O           1.0178    2.5408   20.7494 O.2     1  UNL1       -0.2521
      6 N          -0.0046    0.1625   20.5295 N.am    1  UNL1       -0.2680
      7 H          -2.2640    1.6744   19.9564 H       1  UNL1        0.1594
      8 H          -0.7772   -0.4200   20.3477 H       1  UNL1        0.1564
      9 C          -4.2099    3.8993   20.4739 C.ar    1  UNL1        0.1461
     10 C          -5.5418    4.5028   20.1397 C.ar    1  UNL1        0.0577
     11 C          -5.6420    5.5581   19.0785 C.ar    1  UNL1        0.1020
     12 N          -4.4103    6.0100   18.3514 N.ar    1  UNL1       -0.2420
     13 C          -3.0784    5.4065   18.6856 C.ar    1  UNL1        0.1064
     14 C          -2.9782    4.3512   19.7468 C.ar    1  UNL1        0.1068
     15 C          -4.9028    2.9760   22.8014 C.3     1  UNL1        0.2525
     16 O          -4.1097    2.8440   21.5351 O.3     1  UNL1       -0.4712
     17 C           1.3274   -0.4410   20.8637 C.ar    1  UNL1        0.0515
     18 C           1.9587   -0.1730   22.1977 C.ar    1  UNL1        0.0147
     19 C           3.2907   -0.7764   22.5319 C.ar    1  UNL1        0.0012
     20 C           3.9914   -1.6478   21.5321 C.ar    1  UNL1        0.0040
     21 C           3.3601   -1.9158   20.1981 C.ar    1  UNL1        0.0727
     22 C           2.0281   -1.3124   19.8639 C.ar    1  UNL1        0.0186
     23 C           5.3234   -2.2512   21.8663 C.ar    1  UNL1       -0.0000
     24 C           5.3920   -3.5664   22.5844 C.ar    1  UNL1       -0.0000
     25 C           6.7239   -4.1699   22.9186 C.ar    1  UNL1       -0.0000
     26 C           7.9873   -3.4582   22.5346 C.ar    1  UNL1       -0.0000
     27 C           7.9187   -2.1430   21.8165 C.ar    1  UNL1       -0.0000
     28 C           6.5867   -1.5396   21.4824 C.ar    1  UNL1       -0.0000
     29 C           4.0608   -2.7872   19.1982 C.3     1  UNL1        0.4186
     30 F           4.7615   -3.6586   18.1984 F       1  UNL1       -0.1659
     31 F           3.3637   -3.9911   19.7590 F       1  UNL1       -0.1659
     32 F           4.7580   -1.5833   18.6374 F       1  UNL1       -0.1659
@<TRIPOS>BOND
     1    15    16    1
     2    16     9    1
     3     9    10   ar
     4    10    11   ar
     5    11    12   ar
     6    12    13   ar
     7    13    14   ar
     8    14     1    1
     9     1     2    2
    10     1     3   am
    11     3     4   am
    12     4     5    2
    13     4     6   am
    14     6    17    1
    15    17    18   ar
    16    18    19   ar
    17    19    20   ar
    18    20    23    1
    19    23    24   ar
    20    24    25   ar
    21    25    26   ar
    22    26    27   ar
    23    27    28   ar
    24    20    21   ar
    25    21    29    1
    26    29    30    1
    27    29    31    1
    28    29    32    1
    29    21    22   ar
    30    14     9   ar
    31    22    17   ar
    32    28    23   ar
    33     3     7    1
    34     6     8    1
@<TRIPOS>MOLECULE
*****
 32 34 0 0 0
SMALL
GASTEIGER

@<TRIPOS>ATOM
      1 C           0.1042    3.0747   18.5191 C.2     1  UNL1        0.2571
      2 O           1.3808    3.7026   18.0438 O.2     1  UNL1       -0.2695
      3 N           0.1340    1.7395   19.2021 N.am    1  UNL1       -0.2357
      4 C           1.4404    1.0323   19.4099 C.2     1  UNL1        0.3104
      5 O           2.7171    1.6602   18.9346 O.2     1  UNL1       -0.2521
      6 N           1.4701   -0.3028   20.0929 N.am    1  UNL1       -0.2680
      7 H          -0.7039    1.3274   19.5141 H       1  UNL1        0.1594
      8 H           0.6322   -0.7149   20.4048 H       1  UNL1        0.1564
      9 C          -2.2749    3.6981   19.3565 C.ar    1  UNL1        0.1461
     10 C          -3.5813    4.4053   19.1488 C.ar    1  UNL1        0.0577
     11 C          -3.8150    5.1963   17.8959 C.ar    1  UNL1        0.1020
     12 N          -2.7423    5.2801   16.8508 N.ar    1  UNL1       -0.2420
     13 C          -1.4359    4.5729   17.0585 C.ar    1  UNL1        0.1064
     14 C          -1.2022    3.7819   18.3114 C.ar    1  UNL1        0.1068
     15 C          -2.4056    3.4892   21.9429 C.3     1  UNL1        0.2525
     16 O          -2.0412    2.9071   20.6094 O.3     1  UNL1       -0.4712
     17 C           2.7766   -1.0100   20.3006 C.ar    1  UNL1        0.0515
     18 C           3.8212   -0.4088   21.1935 C.ar    1  UNL1        0.0147
     19 C           5.1276   -1.1159   21.4012 C.ar    1  UNL1        0.0012
     20 C           5.3894   -2.4243   20.7161 C.ar    1  UNL1        0.0040
     21 C           4.3448   -3.0256   19.8232 C.ar    1  UNL1        0.0727
     22 C           3.0384   -2.3184   19.6155 C.ar    1  UNL1        0.0186
     23 C           6.6959   -3.1316   20.9238 C.ar    1  UNL1       -0.0000
     24 C           7.8391   -2.8864   19.9841 C.ar    1  UNL1       -0.0000
     25 C           9.1455   -3.5936   20.1918 C.ar    1  UNL1       -0.0000
     26 C           9.3087   -4.5459   21.3391 C.ar    1  UNL1       -0.0000
     27 C           8.1655   -4.7910   22.2788 C.ar    1  UNL1       -0.0000
     28 C           6.8590   -4.0839   22.0711 C.ar    1  UNL1       -0.0000
     29 C           4.6066   -4.3341   19.1380 C.3     1  UNL1        0.4186
     30 F           4.8685   -5.6425   18.4529 F       1  UNL1       -0.1659
     31 F           5.2831   -3.6093   18.0124 F       1  UNL1       -0.1659
     32 F           3.9302   -5.0589   20.2636 F       1  UNL1       -0.1659
@<TRIPOS>BOND
     1    15    16    1
     2    16     9    1
     3     9    10   ar
     4    10    11   ar
     5    11    12   ar
     6    12    13   ar
     7    13    14   ar
     8    14     1    1
     9     1     2    2
    10     1     3   am
    11     3     4   am
    12     4     5    2
    13     4     6   am
    14     6    17    1
    15    17    18   ar
    16    18    19   ar
    17    19    20   ar
    18    20    23    1
    19    23    24   ar
    20    24    25   ar
    21    25    26   ar
    22    26    27   ar
    23    27    28   ar
    24    20    21   ar
    25    21    29    1
    26    29    30    1
    27    29    31    1
    28    29    32    1
    29    21    22   ar
    30    14     9   ar
    31    22    17   ar
    32    28    23   ar
    33     3     7    1
    34     6     8    1
@<TRIPOS>MOLECULE
*****
 32 34 0 0 0
SMALL
GASTEIGER

@<TRIPOS>ATOM
      1 C           6.9014   -4.4959   27.4305 C.2     1  UNL1        0.2571
      2 O           6.2649   -3.2322   26.9327 O.2     1  UNL1       -0.2695
      3 N           7.0617   -4.7248   28.9042 N.am    1  UNL1       -0.2357
      4 C           6.5855   -3.6901   29.8801 C.2     1  UNL1        0.3104
      5 O           5.9489   -2.4263   29.3823 O.2     1  UNL1       -0.2521
      6 N           6.7458   -3.9190   31.3539 N.am    1  UNL1       -0.2680
      7 H           7.4795   -5.5543   29.2309 H       1  UNL1        0.1594
      8 H           7.1636   -4.7485   31.6806 H       1  UNL1        0.1564
      9 C           7.8716   -6.8576   26.9498 C.ar    1  UNL1        0.1461
     10 C           8.3478   -7.8924   25.9739 C.ar    1  UNL1        0.0577
     11 C           8.3301   -7.6002   24.5027 C.ar    1  UNL1        0.1020
     12 N           7.8363   -6.2733   24.0075 N.ar    1  UNL1       -0.2420
     13 C           7.3600   -5.2385   24.9834 C.ar    1  UNL1        0.1064
     14 C           7.3777   -5.5307   26.4546 C.ar    1  UNL1        0.1068
     15 C           9.1812   -7.4907   29.1024 C.3     1  UNL1        0.2525
     16 O           7.8892   -7.1498   28.4210 O.3     1  UNL1       -0.4712
     17 C           6.2695   -2.8842   32.3298 C.ar    1  UNL1        0.0515
     18 C           4.8686   -2.9443   32.8626 C.ar    1  UNL1        0.0147
     19 C           4.3924   -1.9096   33.8385 C.ar    1  UNL1        0.0012
     20 C           5.3170   -0.8147   34.2816 C.ar    1  UNL1        0.0040
     21 C           6.7178   -0.7546   33.7487 C.ar    1  UNL1        0.0727
     22 C           7.1941   -1.7893   32.7729 C.ar    1  UNL1        0.0186
     23 C           4.8407    0.2201   35.2575 C.ar    1  UNL1       -0.0000
     24 C           5.0734    0.0286   36.7269 C.ar    1  UNL1       -0.0000
     25 C           4.5972    1.0633   37.7028 C.ar    1  UNL1       -0.0000
     26 C           3.8883    2.2896   37.2093 C.ar    1  UNL1       -0.0000
     27 C           3.6556    2.4812   35.7399 C.ar    1  UNL1       -0.0000
     28 C           4.1318    1.4464   34.7640 C.ar    1  UNL1       -0.0000
     29 C           7.6425    0.3404   34.1918 C.3     1  UNL1        0.4186
     30 F           8.5670    1.4353   34.6349 F       1  UNL1       -0.1659
     31 F           7.1607    1.2036   33.0637 F       1  UNL1       -0.1659
     32 F           8.1242   -0.5229   35.3199 F       1  UNL1       -0.1659
@<TRIPOS>BOND
     1    15    16    1
     2    16     9    1
     3     9    10   ar
     4    10    11   ar
     5    11    12   ar
     6    12    13   ar
     7    13    14   ar
     8    14     1    1
     9     1     2    2
    10     1     3   am
    11     3     4   am
    12     4     5    2
    13     4     6   am
    14     6    17    1
    15    17    18   ar
    16    18    19   ar
    17    19    20   ar
    18    20    23    1
    19    23    24   ar
    20    24    25   ar
    21    25    26   ar
    22    26    27   ar
    23    27    28   ar
    24    20    21   ar
    25    21    29    1
    26    29    30    1
    27    29    31    1
    28    29    32    1
    29    21    22   ar
    30    14     9   ar
    31    22    17   ar
    32    28    23   ar
    33     3     7    1
    34     6     8    1
@<TRIPOS>MOLECULE
*****
 32 34 0 0 0
SMALL
GASTEIGER

@<TRIPOS>ATOM
      1 C          -2.6337    4.1146   21.5621 C.2     1  UNL1        0.2571
      2 O          -1.5113    5.0190   21.9771 O.2     1  UNL1       -0.2695
      3 N          -2.3333    2.7881   20.9295 N.am    1  UNL1       -0.2357
      4 C          -0.9105    2.3660   20.7118 C.2     1  UNL1        0.3104
      5 O           0.2120    3.2704   21.1268 O.2     1  UNL1       -0.2521
      6 N          -0.6101    1.0396   20.0792 N.am    1  UNL1       -0.2680
      7 H          -3.0700    2.1945   20.6572 H       1  UNL1        0.1594
      8 H          -1.3468    0.4460   19.8068 H       1  UNL1        0.1564
      9 C          -5.1187    4.1250   20.8038 C.ar    1  UNL1        0.1461
     10 C          -6.5415    4.5471   21.0215 C.ar    1  UNL1        0.0577
     11 C          -6.9022    5.3808   22.2152 C.ar    1  UNL1        0.1020
     12 N          -5.8402    5.7924   23.1911 N.ar    1  UNL1       -0.2420
     13 C          -4.4174    5.3704   22.9735 C.ar    1  UNL1        0.1064
     14 C          -4.0566    4.5367   21.7798 C.ar    1  UNL1        0.1068
     15 C          -5.0775    3.7812   18.2290 C.3     1  UNL1        0.2525
     16 O          -4.7580    3.2913   19.6102 O.3     1  UNL1       -0.4712
     17 C           0.8128    0.6175   19.8615 C.ar    1  UNL1        0.0515
     18 C           1.5947    1.1809   18.7121 C.ar    1  UNL1        0.0147
     19 C           3.0175    0.7589   18.4944 C.ar    1  UNL1        0.0012
     20 C           3.6584   -0.2265   19.4262 C.ar    1  UNL1        0.0040
     21 C           2.8765   -0.7900   20.5756 C.ar    1  UNL1        0.0727
     22 C           1.4536   -0.3680   20.7932 C.ar    1  UNL1        0.0186
     23 C           5.0813   -0.6486   19.2085 C.ar    1  UNL1       -0.0000
     24 C           6.1898    0.0432   19.9450 C.ar    1  UNL1       -0.0000
     25 C           7.6127   -0.3788   19.7274 C.ar    1  UNL1       -0.0000
     26 C           7.9270   -1.4926   18.7732 C.ar    1  UNL1       -0.0000
     27 C           6.8184   -2.1845   18.0367 C.ar    1  UNL1       -0.0000
     28 C           5.3956   -1.7624   18.2543 C.ar    1  UNL1       -0.0000
     29 C           3.5174   -1.7755   21.5073 C.3     1  UNL1        0.4186
     30 F           4.1583   -2.7609   22.4389 F       1  UNL1       -0.1659
     31 F           3.2529   -2.8770   20.5241 F       1  UNL1       -0.1659
     32 F           3.7819   -0.6740   22.4905 F       1  UNL1       -0.1659
@<TRIPOS>BOND
     1    15    16    1
     2    16     9    1
     3     9    10   ar
     4    10    11   ar
     5    11    12   ar
     6    12    13   ar
     7    13    14   ar
     8    14     1    1
     9     1     2    2
    10     1     3   am
    11     3     4   am
    12     4     5    2
    13     4     6   am
    14     6    17    1
    15    17    18   ar
    16    18    19   ar
    17    19    20   ar
    18    20    23    1
    19    23    24   ar
    20    24    25   ar
    21    25    26   ar
    22    26    27   ar
    23    27    28   ar
    24    20    21   ar
    25    21    29    1
    26    29    30    1
    27    29    31    1
    28    29    32    1
    29    21    22   ar
    30    14     9   ar
    31    22    17   ar
    32    28    23   ar
    33     3     7    1
    34     6     8    1
@<TRIPOS>MOLECULE
*****
 32 34 0 0 0
SMALL
GASTEIGER

@<TRIPOS>ATOM
      1 C           4.1282   -2.2701   22.4458 C.2     1  UNL1        0.2571
      2 O           4.7099   -2.9261   23.6629 O.2     1  UNL1       -0.2695
      3 N           3.2597   -1.0558   22.5909 N.am    1  UNL1       -0.2357
      4 C           2.9729   -0.4974   23.9532 C.2     1  UNL1        0.3104
      5 O           3.5545   -1.1533   25.1704 O.2     1  UNL1       -0.2521
      6 N           2.1043    0.7169   24.0984 N.am    1  UNL1       -0.2680
      7 H           2.8780   -0.6253   21.7921 H       1  UNL1        0.1594
      8 H           1.7226    1.1474   23.2996 H       1  UNL1        0.1564
      9 C           4.7553   -1.9056   19.9510 C.ar    1  UNL1        0.1461
     10 C           5.0421   -2.4640   18.5887 C.ar    1  UNL1        0.0577
     11 C           4.9887   -3.9454   18.3588 C.ar    1  UNL1        0.1020
     12 N           4.6485   -4.8683   19.4912 N.ar    1  UNL1       -0.2420
     13 C           4.3617   -4.3099   20.8535 C.ar    1  UNL1        0.1064
     14 C           4.4151   -2.8285   21.0834 C.ar    1  UNL1        0.1068
     15 C           4.0077    0.4989   19.3114 C.3     1  UNL1        0.2525
     16 O           4.8087   -0.4243   20.1808 O.3     1  UNL1       -0.4712
     17 C           1.8175    1.2753   25.4608 C.ar    1  UNL1        0.0515
     18 C           2.7445    2.2867   26.0672 C.ar    1  UNL1        0.0147
     19 C           2.4577    2.8451   27.4295 C.ar    1  UNL1        0.0012
     20 C           1.2439    2.3921   28.1854 C.ar    1  UNL1        0.0040
     21 C           0.3169    1.3807   27.5790 C.ar    1  UNL1        0.0727
     22 C           0.6037    0.8223   26.2167 C.ar    1  UNL1        0.0186
     23 C           0.9571    2.9505   29.5478 C.ar    1  UNL1       -0.0000
     24 C           0.4571    4.3574   29.6916 C.ar    1  UNL1       -0.0000
     25 C           0.1703    4.9158   31.0539 C.ar    1  UNL1       -0.0000
     26 C           0.3834    4.0673   32.2723 C.ar    1  UNL1       -0.0000
     27 C           0.8834    2.6604   32.1285 C.ar    1  UNL1       -0.0000
     28 C           1.1702    2.1020   30.7662 C.ar    1  UNL1       -0.0000
     29 C          -0.8970    0.9277   28.3349 C.3     1  UNL1        0.4186
     30 F          -2.1107    0.4747   29.0909 F       1  UNL1       -0.1659
     31 F          -0.1079   -0.2038   28.9239 F       1  UNL1       -0.1659
     32 F          -1.6861    2.0592   27.7459 F       1  UNL1       -0.1659
@<TRIPOS>BOND
     1    15    16    1
     2    16     9    1
     3     9    10   ar
     4    10    11   ar
     5    11    12   ar
     6    12    13   ar
     7    13    14   ar
     8    14     1    1
     9     1     2    2
    10     1     3   am
    11     3     4   am
    12     4     5    2
    13     4     6   am
    14     6    17    1
    15    17    18   ar
    16    18    19   ar
    17    19    20   ar
    18    20    23    1
    19    23    24   ar
    20    24    25   ar
    21    25    26   ar
    22    26    27   ar
    23    27    28   ar
    24    20    21   ar
    25    21    29    1
    26    29    30    1
    27    29    31    1
    28    29    32    1
    29    21    22   ar
    30    14     9   ar
    31    22    17   ar
    32    28    23   ar
    33     3     7    1
    34     6     8    1
@<TRIPOS>MOLECULE
*****
 32 34 0 0 0
SMALL
GASTEIGER

@<TRIPOS>ATOM
      1 C           5.6507   -1.4547   28.9572 C.2     1  UNL1        0.2571
      2 O           6.9915   -0.9874   28.4737 O.2     1  UNL1       -0.2695
      3 N           4.5342   -1.6705   27.9790 N.am    1  UNL1       -0.2357
      4 C           4.7585   -1.4189   26.5174 C.2     1  UNL1        0.3104
      5 O           6.0994   -0.9515   26.0339 O.2     1  UNL1       -0.2521
      6 N           3.6420   -1.6347   25.5392 N.am    1  UNL1       -0.2680
      7 H           3.6542   -1.9773   28.2963 H       1  UNL1        0.1594
      8 H           2.7619   -1.9414   25.8565 H       1  UNL1        0.1564
      9 C           4.3587   -0.9522   31.1545 C.ar    1  UNL1        0.1461
     10 C           4.1344   -1.2038   32.6161 C.ar    1  UNL1        0.0577
     11 C           4.9778   -2.2096   33.3421 C.ar    1  UNL1        0.1020
     12 N           6.0455   -2.9638   32.6064 N.ar    1  UNL1       -0.2420
     13 C           6.2698   -2.7122   31.1448 C.ar    1  UNL1        0.1064
     14 C           5.4264   -1.7064   30.4189 C.ar    1  UNL1        0.1068
     15 C           2.0783   -0.2515   30.1257 C.3     1  UNL1        0.2525
     16 O           3.5153    0.0536   30.4285 O.3     1  UNL1       -0.4712
     17 C           3.8663   -1.3831   24.0776 C.ar    1  UNL1        0.0515
     18 C           3.4951   -0.0587   23.4789 C.ar    1  UNL1        0.0147
     19 C           3.7194    0.1929   22.0173 C.ar    1  UNL1        0.0012
     20 C           4.3149   -0.8798   21.1544 C.ar    1  UNL1        0.0040
     21 C           4.6861   -2.2041   21.7530 C.ar    1  UNL1        0.0727
     22 C           4.4618   -2.4557   23.2146 C.ar    1  UNL1        0.0186
     23 C           4.5393   -0.6282   19.6927 C.ar    1  UNL1       -0.0000
     24 C           3.4531   -0.9326   18.7039 C.ar    1  UNL1       -0.0000
     25 C           3.6774   -0.6810   17.2423 C.ar    1  UNL1       -0.0000
     26 C           4.9878   -0.1250   16.7695 C.ar    1  UNL1       -0.0000
     27 C           6.0739    0.1794   17.7582 C.ar    1  UNL1       -0.0000
     28 C           5.8497   -0.0722   19.2198 C.ar    1  UNL1       -0.0000
     29 C           5.2816   -3.2768   20.8900 C.3     1  UNL1        0.4186
     30 F           5.8770   -4.3495   20.0270 F       1  UNL1       -0.1659
     31 F           3.9082   -3.8045   20.5983 F       1  UNL1       -0.1659
     32 F           6.6550   -2.7491   21.1817 F       1  UNL1       -0.1659
@<TRIPOS>BOND
     1    15    16    1
     2    16     9    1
     3     9    10   ar
     4    10    11   ar
     5    11    12   ar
     6    12    13   ar
     7    13    14   ar
     8    14     1    1
     9     1     2    2
    10     1     3   am
    11     3     4   am
    12     4     5    2
    13     4     6   am
    14     6    17    1
    15    17    18   ar
    16    18    19   ar
    17    19    20   ar
    18    20    23    1
    19    23    24   ar
    20    24    25   ar
    21    25    26   ar
    22    26    27   ar
    23    27    28   ar
    24    20    21   ar
    25    21    29    1
    26    29    30    1
    27    29    31    1
    28    29    32    1
    29    21    22   ar
    30    14     9   ar
    31    22    17   ar
    32    28    23   ar
    33     3     7    1
    34     6     8    1
@<TRIPOS>MOLECULE
*****
 32 34 0 0 0
SMALL
GASTEIGER

@<TRIPOS>ATOM
      1 C           7.1783   -5.4083   30.4964 C.2     1  UNL1        0.2571
      2 O           6.6782   -6.1441   31.7040 O.2     1  UNL1       -0.2695
      3 N           7.1160   -3.9102   30.4518 N.am    1  UNL1       -0.2357
      4 C           6.5536   -3.1480   31.6149 C.2     1  UNL1        0.3104
      5 O           6.0535   -3.8839   32.8226 O.2     1  UNL1       -0.2521
      6 N           6.4912   -1.6500   31.5703 N.am    1  UNL1       -0.2680
      7 H           7.4442   -3.4272   29.6592 H       1  UNL1        0.1594
      8 H           6.8195   -1.1670   30.7777 H       1  UNL1        0.1564
      9 C           7.2661   -5.8732   27.9417 C.ar    1  UNL1        0.1461
     10 C           7.8286   -6.6354   26.7787 C.ar    1  UNL1        0.0577
     11 C           8.8656   -7.6948   27.0072 C.ar    1  UNL1        0.1020
     12 N           9.3402   -7.9920   28.3987 N.ar    1  UNL1       -0.2420
     13 C           8.7778   -7.2298   29.5617 C.ar    1  UNL1        0.1064
     14 C           7.7408   -6.1704   29.3333 C.ar    1  UNL1        0.1068
     15 C           6.5611   -3.6042   26.8907 C.3     1  UNL1        0.2525
     16 O           6.2291   -4.8138   27.7133 O.3     1  UNL1       -0.4712
     17 C           5.9288   -0.8878   32.7335 C.ar    1  UNL1        0.0515
     18 C           4.4906   -0.4619   32.7261 C.ar    1  UNL1        0.0147
     19 C           3.9281    0.3003   33.8891 C.ar    1  UNL1        0.0012
     20 C           4.8039    0.6365   35.0596 C.ar    1  UNL1        0.0040
     21 C           6.2421    0.2106   35.0669 C.ar    1  UNL1        0.0727
     22 C           6.8046   -0.5516   33.9039 C.ar    1  UNL1        0.0186
     23 C           4.2415    1.3987   36.2227 C.ar    1  UNL1       -0.0000
     24 C           4.1950    2.8975   36.1853 C.ar    1  UNL1       -0.0000
     25 C           3.6326    3.6597   37.3483 C.ar    1  UNL1       -0.0000
     26 C           3.1167    2.9230   38.5488 C.ar    1  UNL1       -0.0000
     27 C           3.1632    1.4242   38.5862 C.ar    1  UNL1       -0.0000
     28 C           3.7255    0.6620   37.4232 C.ar    1  UNL1       -0.0000
     29 C           7.1179    0.5468   36.2374 C.3     1  UNL1        0.4186
     30 F           7.9937    0.8830   37.4079 F       1  UNL1       -0.1659
     31 F           6.7045   -0.7271   36.9127 F       1  UNL1       -0.1659
     32 F           7.5314    1.8207   35.5621 F       1  UNL1       -0.1659
@<TRIPOS>BOND
     1    15    16    1
     2    16     9    1
     3     9    10   ar
     4    10    11   ar
     5    11    12   ar
     6    12    13   ar
     7    13    14   ar
     8    14     1    1
     9     1     2    2
    10     1     3   am
    11     3     4   am
    12     4     5    2
    13     4     6   am
    14     6    17    1
    15    17    18   ar
    16    18    19   ar
    17    19    20   ar
    18    20    23    1
    19    23    24   ar
    20    24    25   ar
    21    25    26   ar
    22    26    27   ar
    23    27    28   ar
    24    20    21   ar
    25    21    29    1
    26    29    30    1
    27    29    31    1
    28    29    32    1
    29    21    22   ar
    30    14     9   ar
    31    22    17   ar
    32    28    23   ar
    33     3     7    1
    34     6     8    1
@<TRIPOS>MOLECULE
*****
 32 34 0 0 0
SMALL
GASTEIGER

@<TRIPOS>ATOM
      1 C           5.1481   -0.8994   29.2922 C.2     1  UNL1        0.2571
      2 O           6.3263   -0.0681   28.8792 O.2     1  UNL1       -0.2695
      3 N           4.2202   -1.4541   28.2524 N.am    1  UNL1       -0.2357
      4 C           4.4705   -1.1776   26.7995 C.2     1  UNL1        0.3104
      5 O           5.6488   -0.3462   26.3865 O.2     1  UNL1       -0.2521
      6 N           3.5426   -1.7323   25.7597 N.am    1  UNL1       -0.2680
      7 H           3.4469   -1.9998   28.5235 H       1  UNL1        0.1594
      8 H           2.7693   -2.2780   26.0308 H       1  UNL1        0.1564
      9 C           5.6742   -2.2492   31.4489 C.ar    1  UNL1        0.1461
     10 C           5.4238   -2.5257   32.9018 C.ar    1  UNL1        0.0577
     11 C           4.3969   -1.7291   33.6508 C.ar    1  UNL1        0.1020
     12 N           3.6205   -0.6560   32.9470 N.ar    1  UNL1       -0.2420
     13 C           3.8709   -0.3794   31.4941 C.ar    1  UNL1        0.1064
     14 C           4.8977   -1.1760   30.7451 C.ar    1  UNL1        0.1068
     15 C           6.9349   -4.4855   31.0497 C.3     1  UNL1        0.2525
     16 O           6.7010   -3.0458   30.6999 O.3     1  UNL1       -0.4712
     17 C           3.7930   -1.4557   24.3068 C.ar    1  UNL1        0.0515
     18 C           3.3141   -0.1730   23.6942 C.ar    1  UNL1        0.0147
     19 C           3.5645    0.1037   22.2414 C.ar    1  UNL1        0.0012
     20 C           4.2937   -0.9024   21.4012 C.ar    1  UNL1        0.0040
     21 C           4.7726   -2.1851   22.0138 C.ar    1  UNL1        0.0727
     22 C           4.5223   -2.4618   23.4666 C.ar    1  UNL1        0.0186
     23 C           4.5441   -0.6258   19.9482 C.ar    1  UNL1       -0.0000
     24 C           5.7978    0.0803   19.5244 C.ar    1  UNL1       -0.0000
     25 C           6.0482    0.3569   18.0716 C.ar    1  UNL1       -0.0000
     26 C           5.0449   -0.0725   17.0426 C.ar    1  UNL1       -0.0000
     27 C           3.7912   -0.7786   17.4664 C.ar    1  UNL1       -0.0000
     28 C           3.5408   -1.0552   18.9193 C.ar    1  UNL1       -0.0000
     29 C           5.5019   -3.1912   21.1735 C.3     1  UNL1        0.4186
     30 F           6.2310   -4.1973   20.3332 F       1  UNL1       -0.1659
     31 F           4.2013   -3.8662   20.8530 F       1  UNL1       -0.1659
     32 F           6.8025   -2.5162   21.4939 F       1  UNL1       -0.1659
@<TRIPOS>BOND
     1    15    16    1
     2    16     9    1
     3     9    10   ar
     4    10    11   ar
     5    11    12   ar
     6    12    13   ar
     7    13    14   ar
     8    14     1    1
     9     1     2    2
    10     1     3   am
    11     3     4   am
    12     4     5    2
    13     4     6   am
    14     6    17    1
    15    17    18   ar
    16    18    19   ar
    17    19    20   ar
    18    20    23    1
    19    23    24   ar
    20    24    25   ar
    21    25    26   ar
    22    26    27   ar
    23    27    28   ar
    24    20    21   ar
    25    21    29    1
    26    29    30    1
    27    29    31    1
    28    29    32    1
    29    21    22   ar
    30    14     9   ar
    31    22    17   ar
    32    28    23   ar
    33     3     7    1
    34     6     8    1
