@<TRIPOS>MOLECULE
*****
 40 43 0 0 0
SMALL
GASTEIGER

@<TRIPOS>ATOM
      1 C           7.6652   -7.2405   25.2648 C.2     1  UNL1        0.4050
      2 O           8.0832   -7.4967   23.8472 O.2     1  UNL1       -0.2262
      3 N           7.3218   -5.8484   25.7055 N.am    1  UNL1       -0.2459
      4 C           6.9038   -5.5922   27.1231 C.3     1  UNL1        0.0984
      5 C           6.5603   -4.2001   27.5638 C.3     1  UNL1        0.0413
      6 C           6.6348   -3.0643   26.5870 C.3     1  UNL1        0.0777
      7 C           7.0528   -3.3206   25.1694 C.3     1  UNL1        0.0540
      8 C           7.3963   -4.7126   24.7287 C.3     1  UNL1        0.0997
      9 N           6.2914   -1.6723   27.0277 N.am    1  UNL1       -0.2901
     10 C           4.8551   -1.2603   27.1597 C.2     1  UNL1        0.3058
     11 O           3.7623   -2.2404   26.8511 O.2     1  UNL1       -0.2524
     12 N           4.5117    0.1318   27.6004 N.am    1  UNL1       -0.2485
     13 H           7.0086   -1.0290   27.2302 H       1  UNL1        0.1509
     14 H           5.2289    0.7750   27.8030 H       1  UNL1        0.1583
     15 C           3.0753    0.5437   27.7325 C.ar    1  UNL1        0.1664
     16 N           2.2770    1.2983   26.7111 N.ar    1  UNL1       -0.2282
     17 C           0.8935    1.4943   27.2565 C.ar    1  UNL1        0.0701
     18 C          -0.2351    2.1999   26.5648 C.3     1  UNL1        0.0528
     19 C           0.8368    0.8609   28.6151 C.ar    1  UNL1        0.0803
     20 S           2.1852    0.2734   28.9092 S.2     1  UNL1       -0.0488
     21 C          -0.3585    0.8219   29.5204 C.2     1  UNL1        0.1807
     22 C          -1.6124    0.1277   29.0776 C.3     1  UNL1        0.0779
     23 O          -0.3000    1.4769   30.8686 O.2     1  UNL1       -0.2908
     24 C           8.7568   -8.6730   27.1373 C.3     1  UNL1        0.2573
     25 O           7.5907   -8.3763   26.2417 O.3     1  UNL1       -0.4304
     26 C           7.1273   -2.1847   24.1924 C.3     1  UNL1        0.0754
     27 N           6.9364   -2.4420   22.7271 N.3     1  UNL1       -0.2726
     28 C           8.1285   -2.5528   21.8235 C.3     1  UNL1        0.0721
     29 C           7.9375   -2.8102   20.3580 C.3     1  UNL1        0.0174
     30 C           6.5545   -2.9568   19.7963 C.3     1  UNL1        0.0031
     31 C           5.3623   -2.8459   20.6999 C.3     1  UNL1        0.0204
     32 C           5.5533   -2.5886   22.1653 C.3     1  UNL1        0.0724
     33 C           3.9793   -2.9925   20.1382 C.3     1  UNL1        0.0277
     34 C           3.2566   -1.7925   19.6018 C.ar    1  UNL1       -0.0220
     35 C           2.0638   -1.2477   20.3302 C.ar    1  UNL1       -0.0020
     36 C           1.3411   -0.0477   19.7938 C.ar    1  UNL1        0.0293
     37 C           1.8112    0.6075   18.5290 C.ar    1  UNL1        0.1401
     38 F           1.0885    1.8075   17.9925 F       1  UNL1       -0.2042
     39 C           3.0039    0.0627   17.8006 C.ar    1  UNL1        0.0293
     40 C           3.7266   -1.1373   18.3370 C.ar    1  UNL1       -0.0020
@<TRIPOS>BOND
     1    24    25    1
     2    25     1    1
     3     1     2    2
     4     1     3   am
     5     3     4    1
     6     4     5    1
     7     5     6    1
     8     6     9    1
     9     9    10   am
    10    10    11    2
    11    10    12   am
    12    12    15    1
    13    15    16   ar
    14    16    17   ar
    15    17    18    1
    16    17    19   ar
    17    19    21    1
    18    21    22    1
    19    21    23    2
    20    19    20   ar
    21     6     7    1
    22     7    26    1
    23    26    27    1
    24    27    28    1
    25    28    29    1
    26    29    30    1
    27    30    31    1
    28    31    33    1
    29    33    34    1
    30    34    35   ar
    31    35    36   ar
    32    36    37   ar
    33    37    38    1
    34    37    39   ar
    35    39    40   ar
    36    31    32    1
    37     7     8    1
    38     8     3    1
    39    20    15   ar
    40    32    27    1
    41    40    34   ar
    42     9    13    1
    43    12    14    1
@<TRIPOS>MOLECULE
*****
 40 43 0 0 0
SMALL
GASTEIGER

@<TRIPOS>ATOM
      1 C           3.2781    2.1532   38.8327 C.2     1  UNL1        0.4050
      2 O           4.2829    1.3549   39.6093 O.2     1  UNL1       -0.2262
      3 N           3.3994    2.2646   37.3418 N.am    1  UNL1       -0.2459
      4 C           2.3946    3.0629   36.5652 C.3     1  UNL1        0.0984
      5 C           2.5159    3.1742   35.0742 C.3     1  UNL1        0.0413
      6 C           3.6418    2.4873   34.3599 C.3     1  UNL1        0.0777
      7 C           4.6466    1.6890   35.1365 C.3     1  UNL1        0.0540
      8 C           4.5253    1.5776   36.6275 C.3     1  UNL1        0.0997
      9 N           3.7631    2.5987   32.8690 N.am    1  UNL1       -0.2901
     10 C           2.6481    2.1186   31.9879 C.2     1  UNL1        0.3058
     11 O           1.4119    1.5271   32.5977 O.2     1  UNL1       -0.2524
     12 N           2.7694    2.2300   30.4969 N.am    1  UNL1       -0.2485
     13 H           4.5744    2.9869   32.4687 H       1  UNL1        0.1509
     14 H           3.5807    2.6182   30.0967 H       1  UNL1        0.1583
     15 C           1.6543    1.7499   29.6158 C.ar    1  UNL1        0.1664
     16 N           0.7214    0.6139   29.9145 N.ar    1  UNL1       -0.2282
     17 C          -0.2330    0.4834   28.7646 C.ar    1  UNL1        0.0701
     18 C          -1.3367   -0.5253   28.6451 C.3     1  UNL1        0.0528
     19 C           0.1101    1.5387   27.7553 C.ar    1  UNL1        0.0803
     20 S           1.2766    2.3214   28.2814 S.2     1  UNL1       -0.0488
     21 C          -0.5902    1.7706   26.4493 C.2     1  UNL1        0.1807
     22 C          -1.6696    2.8076   26.3509 C.3     1  UNL1        0.0779
     23 O          -0.2112    0.9655   25.2417 O.2     1  UNL1       -0.2908
     24 C           0.8964    2.0853   39.8683 C.3     1  UNL1        0.2573
     25 O           2.1522    2.8401   39.5470 O.3     1  UNL1       -0.4304
     26 C           5.7726    1.0020   34.4222 C.3     1  UNL1        0.0754
     27 N           5.5859   -0.3877   33.8895 N.3     1  UNL1       -0.2726
     28 C           4.3015   -1.1208   34.1402 C.3     1  UNL1        0.0721
     29 C           4.1149   -2.5105   33.6074 C.3     1  UNL1        0.0174
     30 C           5.2126   -3.1671   32.8240 C.3     1  UNL1        0.0031
     31 C           6.4971   -2.4340   32.5733 C.3     1  UNL1        0.0204
     32 C           6.6837   -1.0443   33.1060 C.3     1  UNL1        0.0724
     33 C           7.5948   -3.0906   31.7899 C.3     1  UNL1        0.0277
     34 C           7.2696   -3.8645   30.5467 C.ar    1  UNL1       -0.0220
     35 C           7.6858   -5.3006   30.4268 C.ar    1  UNL1       -0.0020
     36 C           7.3607   -6.0744   29.1836 C.ar    1  UNL1        0.0293
     37 C           6.6193   -5.4121   28.0604 C.ar    1  UNL1        0.1401
     38 F           6.2941   -6.1859   26.8172 F       1  UNL1       -0.2042
     39 C           6.2030   -3.9760   28.1803 C.ar    1  UNL1        0.0293
     40 C           6.5282   -3.2022   29.4235 C.ar    1  UNL1       -0.0020
@<TRIPOS>BOND
     1    24    25    1
     2    25     1    1
     3     1     2    2
     4     1     3   am
     5     3     4    1
     6     4     5    1
     7     5     6    1
     8     6     9    1
     9     9    10   am
    10    10    11    2
    11    10    12   am
    12    12    15    1
    13    15    16   ar
    14    16    17   ar
    15    17    18    1
    16    17    19   ar
    17    19    21    1
    18    21    22    1
    19    21    23    2
    20    19    20   ar
    21     6     7    1
    22     7    26    1
    23    26    27    1
    24    27    28    1
    25    28    29    1
    26    29    30    1
    27    30    31    1
    28    31    33    1
    29    33    34    1
    30    34    35   ar
    31    35    36   ar
    32    36    37   ar
    33    37    38    1
    34    37    39   ar
    35    39    40   ar
    36    31    32    1
    37     7     8    1
    38     8     3    1
    39    20    15   ar
    40    32    27    1
    41    40    34   ar
    42     9    13    1
    43    12    14    1
@<TRIPOS>MOLECULE
*****
 40 43 0 0 0
SMALL
GASTEIGER

@<TRIPOS>ATOM
      1 C           5.0162   -2.1736   20.2802 C.2     1  UNL1        0.4050
      2 O           5.9860   -2.1805   21.4244 O.2     1  UNL1       -0.2262
      3 N           4.1115   -0.9956   20.0710 N.am    1  UNL1       -0.2459
      4 C           3.1417   -0.9886   18.9267 C.3     1  UNL1        0.0984
      5 C           2.2369    0.1894   18.7175 C.3     1  UNL1        0.0413
      6 C           2.3019    1.3604   19.6526 C.3     1  UNL1        0.0777
      7 C           3.2717    1.3534   20.7969 C.3     1  UNL1        0.0540
      8 C           4.1765    0.1754   21.0061 C.3     1  UNL1        0.0997
      9 N           1.3972    2.5384   19.4434 N.am    1  UNL1       -0.2901
     10 C          -0.0134    2.5003   19.9520 C.2     1  UNL1        0.3058
     11 O          -0.5194    1.2841   20.6697 O.2     1  UNL1       -0.2524
     12 N          -0.9182    3.6783   19.7428 N.am    1  UNL1       -0.2485
     13 H           1.7292    3.3366   18.9724 H       1  UNL1        0.1509
     14 H          -0.5862    4.4764   19.2717 H       1  UNL1        0.1583
     15 C          -2.3289    3.6401   20.2514 C.ar    1  UNL1        0.1664
     16 N          -2.7525    3.3122   21.6524 N.ar    1  UNL1       -0.2282
     17 C          -4.2490    3.3926   21.7151 C.ar    1  UNL1        0.0701
     18 C          -5.0956    3.1398   22.9273 C.3     1  UNL1        0.0528
     19 C          -4.7504    3.7702   20.3527 C.ar    1  UNL1        0.0803
     20 S          -3.5637    3.9231   19.4481 S.2     1  UNL1       -0.0488
     21 C          -6.1863    3.9612   19.9633 C.2     1  UNL1        0.1807
     22 C          -6.7261    3.2896   18.7354 C.3     1  UNL1        0.0779
     23 O          -7.0824    4.8238   20.8017 O.2     1  UNL1       -0.2908
     24 C           4.0225   -4.4861   19.6360 C.3     1  UNL1        0.2573
     25 O           4.9512   -3.3446   19.3451 O.3     1  UNL1       -0.4304
     26 C           3.3368    2.5245   21.7321 C.3     1  UNL1        0.0754
     27 N           2.1566    2.8626   22.5938 N.3     1  UNL1       -0.2726
     28 C           1.5227    4.2188   22.4991 C.3     1  UNL1        0.0721
     29 C           0.3424    4.5569   23.3609 C.3     1  UNL1        0.0174
     30 C          -0.2040    3.5388   24.3174 C.3     1  UNL1        0.0031
     31 C           0.4298    2.1826   24.4121 C.3     1  UNL1        0.0204
     32 C           1.6101    1.8445   23.5504 C.3     1  UNL1        0.0724
     33 C          -0.1166    1.1646   25.3686 C.3     1  UNL1        0.0277
     34 C           0.1365    1.3063   26.8403 C.ar    1  UNL1       -0.0220
     35 C          -0.7588    0.6149   27.8253 C.ar    1  UNL1       -0.0020
     36 C          -0.5058    0.7567   29.2970 C.ar    1  UNL1        0.0293
     37 C           0.6427    1.5898   29.7836 C.ar    1  UNL1        0.1401
     38 F           0.8958    1.7316   31.2553 F       1  UNL1       -0.2042
     39 C           1.5381    2.2812   28.7986 C.ar    1  UNL1        0.0293
     40 C           1.2850    2.1395   27.3269 C.ar    1  UNL1       -0.0020
@<TRIPOS>BOND
     1    24    25    1
     2    25     1    1
     3     1     2    2
     4     1     3   am
     5     3     4    1
     6     4     5    1
     7     5     6    1
     8     6     9    1
     9     9    10   am
    10    10    11    2
    11    10    12   am
    12    12    15    1
    13    15    16   ar
    14    16    17   ar
    15    17    18    1
    16    17    19   ar
    17    19    21    1
    18    21    22    1
    19    21    23    2
    20    19    20   ar
    21     6     7    1
    22     7    26    1
    23    26    27    1
    24    27    28    1
    25    28    29    1
    26    29    30    1
    27    30    31    1
    28    31    33    1
    29    33    34    1
    30    34    35   ar
    31    35    36   ar
    32    36    37   ar
    33    37    38    1
    34    37    39   ar
    35    39    40   ar
    36    31    32    1
    37     7     8    1
    38     8     3    1
    39    20    15   ar
    40    32    27    1
    41    40    34   ar
    42     9    13    1
    43    12    14    1
@<TRIPOS>MOLECULE
*****
 40 43 0 0 0
SMALL
GASTEIGER

@<TRIPOS>ATOM
      1 C           1.8446    2.0244   38.4523 C.2     1  UNL1        0.4050
      2 O           0.7469    3.0140   38.1961 O.2     1  UNL1       -0.2262
      3 N           2.8856    1.7704   37.4026 N.am    1  UNL1       -0.2459
      4 C           3.9833    0.7808   37.6589 C.3     1  UNL1        0.0984
      5 C           5.0243    0.5269   36.6091 C.3     1  UNL1        0.0413
      6 C           4.9675    1.2626   35.3032 C.3     1  UNL1        0.0777
      7 C           3.8699    2.2522   35.0470 C.3     1  UNL1        0.0540
      8 C           2.8289    2.5061   36.0967 C.3     1  UNL1        0.0997
      9 N           6.0085    1.0086   34.2535 N.am    1  UNL1       -0.2901
     10 C           5.9632   -0.2518   33.4417 C.2     1  UNL1        0.3058
     11 O           4.8768   -1.2585   33.6796 O.2     1  UNL1       -0.2524
     12 N           7.0041   -0.5058   32.3920 N.am    1  UNL1       -0.2485
     13 H           6.7215    1.6693   34.0974 H       1  UNL1        0.1509
     14 H           7.7171    0.1549   32.2358 H       1  UNL1        0.1583
     15 C           6.9587   -1.7663   31.5802 C.ar    1  UNL1        0.1664
     16 N           6.5318   -1.8768   30.1465 N.ar    1  UNL1       -0.2282
     17 C           6.6415   -3.3165   29.7398 C.ar    1  UNL1        0.0701
     18 C           6.3140   -3.8782   28.3880 C.3     1  UNL1        0.0528
     19 C           7.1362   -4.0958   30.9222 C.ar    1  UNL1        0.0803
     20 S           7.3322   -3.1377   32.0596 S.2     1  UNL1       -0.0488
     21 C           7.3902   -5.5736   30.9605 C.2     1  UNL1        0.1807
     22 C           8.3490   -6.1952   29.9887 C.3     1  UNL1        0.0779
     23 O           6.6854   -6.4299   31.9705 O.2     1  UNL1       -0.2908
     24 C           1.2393   -0.0504   39.8941 C.3     1  UNL1        0.2573
     25 O           1.9013    1.2887   39.7583 O.3     1  UNL1       -0.4304
     26 C           3.8131    2.9879   33.7410 C.3     1  UNL1        0.0754
     27 N           2.8794    2.5278   32.6610 N.3     1  UNL1       -0.2726
     28 C           1.6261    3.3003   32.3737 C.3     1  UNL1        0.0721
     29 C           0.6924    2.8402   31.2936 C.3     1  UNL1        0.0174
     30 C           1.0121    1.6076   30.5008 C.3     1  UNL1        0.0031
     31 C           2.2654    0.8352   30.7880 C.3     1  UNL1        0.0204
     32 C           3.1991    1.2952   31.8681 C.3     1  UNL1        0.0724
     33 C           2.5850   -0.3974   29.9952 C.3     1  UNL1        0.0277
     34 C           3.4754   -0.3050   28.7915 C.ar    1  UNL1       -0.0220
     35 C           4.5118    0.7761   28.7065 C.ar    1  UNL1       -0.0020
     36 C           5.4021    0.8685   27.5029 C.ar    1  UNL1        0.0293
     37 C           5.2561   -0.1201   26.3843 C.ar    1  UNL1        0.1401
     38 F           6.1464   -0.0277   25.1806 F       1  UNL1       -0.2042
     39 C           4.2197   -1.2011   26.4693 C.ar    1  UNL1        0.0293
     40 C           3.3294   -1.2936   27.6729 C.ar    1  UNL1       -0.0020
@<TRIPOS>BOND
     1    24    25    1
     2    25     1    1
     3     1     2    2
     4     1     3   am
     5     3     4    1
     6     4     5    1
     7     5     6    1
     8     6     9    1
     9     9    10   am
    10    10    11    2
    11    10    12   am
    12    12    15    1
    13    15    16   ar
    14    16    17   ar
    15    17    18    1
    16    17    19   ar
    17    19    21    1
    18    21    22    1
    19    21    23    2
    20    19    20   ar
    21     6     7    1
    22     7    26    1
    23    26    27    1
    24    27    28    1
    25    28    29    1
    26    29    30    1
    27    30    31    1
    28    31    33    1
    29    33    34    1
    30    34    35   ar
    31    35    36   ar
    32    36    37   ar
    33    37    38    1
    34    37    39   ar
    35    39    40   ar
    36    31    32    1
    37     7     8    1
    38     8     3    1
    39    20    15   ar
    40    32    27    1
    41    40    34   ar
    42     9    13    1
    43    12    14    1
@<TRIPOS>MOLECULE
*****
 40 43 0 0 0
SMALL
GASTEIGER

@<TRIPOS>ATOM
      1 C           1.8470    0.0018   29.9660 C.2     1  UNL1        0.4050
      2 O           2.2525   -0.9845   31.0208 O.2     1  UNL1       -0.2262
      3 N           2.7282    0.2295   28.7737 N.am    1  UNL1       -0.2459
      4 C           2.3227    1.2158   27.7188 C.3     1  UNL1        0.0984
      5 C           3.2039    1.4435   26.5265 C.3     1  UNL1        0.0413
      6 C           4.4905    0.6849   26.3890 C.3     1  UNL1        0.0777
      7 C           4.8960   -0.3014   27.4438 C.3     1  UNL1        0.0540
      8 C           4.0148   -0.5291   28.6362 C.3     1  UNL1        0.0997
      9 N           5.3717    0.9126   25.1966 N.am    1  UNL1       -0.2901
     10 C           4.9909    0.3420   23.8627 C.2     1  UNL1        0.3058
     11 O           3.7289   -0.4564   23.7211 O.2     1  UNL1       -0.2524
     12 N           5.8721    0.5697   22.6704 N.am    1  UNL1       -0.2485
     13 H           6.2000    1.4366   25.2896 H       1  UNL1        0.1509
     14 H           6.7004    1.0936   22.7633 H       1  UNL1        0.1583
     15 C           5.4912   -0.0010   21.3364 C.ar    1  UNL1        0.1664
     16 N           4.4528    0.5509   20.4054 N.ar    1  UNL1       -0.2282
     17 C           4.4017   -0.3308   19.1929 C.ar    1  UNL1        0.0701
     18 C           3.5017   -0.1477   18.0069 C.3     1  UNL1        0.0528
     19 C           5.4087   -1.4276   19.3746 C.ar    1  UNL1        0.0803
     20 S           6.0821   -1.2238   20.6994 S.2     1  UNL1       -0.0488
     21 C           5.6925   -2.5339   18.4023 C.2     1  UNL1        0.1807
     22 C           4.9544   -3.8352   18.5106 C.3     1  UNL1        0.0779
     23 O           6.7145   -2.3390   17.3217 O.2     1  UNL1       -0.2908
     24 C           0.5308    2.0565   30.8580 C.3     1  UNL1        0.2573
     25 O           0.5603    0.7604   30.1035 O.3     1  UNL1       -0.4304
     26 C           6.1827   -1.0601   27.3063 C.3     1  UNL1        0.0754
     27 N           6.3713   -2.3558   28.0382 N.3     1  UNL1       -0.2726
     28 C           6.2841   -3.6562   27.2957 C.3     1  UNL1        0.0721
     29 C           6.4726   -4.9519   28.0276 C.3     1  UNL1        0.0174
     30 C           6.7484   -4.9471   29.5020 C.3     1  UNL1        0.0031
     31 C           6.8357   -3.6467   30.2445 C.3     1  UNL1        0.0204
     32 C           6.6471   -2.3511   29.5127 C.3     1  UNL1        0.0724
     33 C           7.1115   -3.6420   31.7189 C.3     1  UNL1        0.0277
     34 C           6.4532   -2.6235   32.6018 C.ar    1  UNL1       -0.0220
     35 C           7.2391   -1.4510   33.1093 C.ar    1  UNL1       -0.0020
     36 C           6.5810   -0.4325   33.9922 C.ar    1  UNL1        0.0293
     37 C           5.1369   -0.5865   34.3675 C.ar    1  UNL1        0.1401
     38 F           4.4787    0.4320   35.2504 F       1  UNL1       -0.2042
     39 C           4.3510   -1.7591   33.8600 C.ar    1  UNL1        0.0293
     40 C           5.0092   -2.7776   32.9772 C.ar    1  UNL1       -0.0020
@<TRIPOS>BOND
     1    24    25    1
     2    25     1    1
     3     1     2    2
     4     1     3   am
     5     3     4    1
     6     4     5    1
     7     5     6    1
     8     6     9    1
     9     9    10   am
    10    10    11    2
    11    10    12   am
    12    12    15    1
    13    15    16   ar
    14    16    17   ar
    15    17    18    1
    16    17    19   ar
    17    19    21    1
    18    21    22    1
    19    21    23    2
    20    19    20   ar
    21     6     7    1
    22     7    26    1
    23    26    27    1
    24    27    28    1
    25    28    29    1
    26    29    30    1
    27    30    31    1
    28    31    33    1
    29    33    34    1
    30    34    35   ar
    31    35    36   ar
    32    36    37   ar
    33    37    38    1
    34    37    39   ar
    35    39    40   ar
    36    31    32    1
    37     7     8    1
    38     8     3    1
    39    20    15   ar
    40    32    27    1
    41    40    34   ar
    42     9    13    1
    43    12    14    1
@<TRIPOS>MOLECULE
*****
 40 43 0 0 0
SMALL
GASTEIGER

@<TRIPOS>ATOM
      1 C          -3.6680    3.5585   23.6301 C.2     1  UNL1        0.4050
      2 O          -4.1883    4.0683   22.3188 O.2     1  UNL1       -0.2262
      3 N          -2.1921    3.3865   23.8356 N.am    1  UNL1       -0.2459
      4 C          -1.6719    2.8768   25.1468 C.3     1  UNL1        0.0984
      5 C          -0.1960    2.7047   25.3523 C.3     1  UNL1        0.0413
      6 C           0.7596    3.0425   24.2466 C.3     1  UNL1        0.0777
      7 C           0.2393    3.5522   22.9353 C.3     1  UNL1        0.0540
      8 C          -1.2365    3.7243   22.7298 C.3     1  UNL1        0.0997
      9 N           2.2355    2.8705   24.4521 N.am    1  UNL1       -0.2901
     10 C           2.8702    1.5275   24.2436 C.2     1  UNL1        0.3058
     11 O           2.0291    0.3565   23.8295 O.2     1  UNL1       -0.2524
     12 N           4.3461    1.3555   24.4491 N.am    1  UNL1       -0.2485
     13 H           2.7875    3.6390   24.7238 H       1  UNL1        0.1509
     14 H           4.8981    2.1240   24.7208 H       1  UNL1        0.1583
     15 C           4.9809    0.0125   24.2406 C.ar    1  UNL1        0.1664
     16 N           5.3150   -0.9810   25.3136 N.ar    1  UNL1       -0.2282
     17 C           5.9335   -2.1803   24.6586 C.ar    1  UNL1        0.0701
     18 C           6.4187   -3.4151   25.3585 C.3     1  UNL1        0.0528
     19 C           5.9817   -1.9280   23.1806 C.ar    1  UNL1        0.0803
     20 S           5.3929   -0.5728   22.9224 S.2     1  UNL1       -0.0488
     21 C           6.5236   -2.8662   22.1433 C.2     1  UNL1        0.1807
     22 C           7.6234   -2.4174   21.2274 C.3     1  UNL1        0.0779
     23 O           5.9656   -4.2533   22.0218 O.2     1  UNL1       -0.2908
     24 C          -5.1474    4.3041   25.6314 C.3     1  UNL1        0.2573
     25 O          -4.6236    3.2208   24.7358 O.3     1  UNL1       -0.4304
     26 C           1.1950    3.8900   21.8295 C.3     1  UNL1        0.0754
     27 N           1.4667    2.8929   20.7424 N.3     1  UNL1       -0.2726
     28 C           0.4086    2.5861   19.7245 C.3     1  UNL1        0.0721
     29 C           0.6804    1.5889   18.6373 C.3     1  UNL1        0.0174
     30 C           2.0102    0.8986   18.5682 C.3     1  UNL1        0.0031
     31 C           3.0684    1.2054   19.5861 C.3     1  UNL1        0.0204
     32 C           2.7966    2.2025   20.6732 C.3     1  UNL1        0.0724
     33 C           4.3983    0.5150   19.5170 C.3     1  UNL1        0.0277
     34 C           4.4646   -0.9606   19.2556 C.ar    1  UNL1       -0.0220
     35 C           3.4816   -1.8836   19.9128 C.ar    1  UNL1       -0.0020
     36 C           3.5480   -3.3591   19.6515 C.ar    1  UNL1        0.0293
     37 C           4.5974   -3.9117   18.7331 C.ar    1  UNL1        0.1401
     38 F           4.6638   -5.3873   18.4718 F       1  UNL1       -0.2042
     39 C           5.5804   -2.9887   18.0760 C.ar    1  UNL1        0.0293
     40 C           5.5140   -1.5131   18.3373 C.ar    1  UNL1       -0.0020
@<TRIPOS>BOND
     1    24    25    1
     2    25     1    1
     3     1     2    2
     4     1     3   am
     5     3     4    1
     6     4     5    1
     7     5     6    1
     8     6     9    1
     9     9    10   am
    10    10    11    2
    11    10    12   am
    12    12    15    1
    13    15    16   ar
    14    16    17   ar
    15    17    18    1
    16    17    19   ar
    17    19    21    1
    18    21    22    1
    19    21    23    2
    20    19    20   ar
    21     6     7    1
    22     7    26    1
    23    26    27    1
    24    27    28    1
    25    28    29    1
    26    29    30    1
    27    30    31    1
    28    31    33    1
    29    33    34    1
    30    34    35   ar
    31    35    36   ar
    32    36    37   ar
    33    37    38    1
    34    37    39   ar
    35    39    40   ar
    36    31    32    1
    37     7     8    1
    38     8     3    1
    39    20    15   ar
    40    32    27    1
    41    40    34   ar
    42     9    13    1
    43    12    14    1
@<TRIPOS>MOLECULE
*****
 40 43 0 0 0
SMALL
GASTEIGER

@<TRIPOS>ATOM
      1 C           5.2959   -2.2072   32.4690 C.2     1  UNL1        0.4050
      2 O           4.3662   -2.4155   33.6275 O.2     1  UNL1       -0.2262
      3 N           4.9585   -1.2021   31.4078 N.am    1  UNL1       -0.2459
      4 C           5.8882   -0.9938   30.2493 C.3     1  UNL1        0.0984
      5 C           5.5508    0.0113   29.1882 C.3     1  UNL1        0.0413
      6 C           4.2837    0.8080   29.2856 C.3     1  UNL1        0.0777
      7 C           3.3540    0.5997   30.4441 C.3     1  UNL1        0.0540
      8 C           3.6914   -0.4053   31.5052 C.3     1  UNL1        0.0997
      9 N           3.9463    1.8131   28.2245 N.am    1  UNL1       -0.2901
     10 C           3.4959    1.3515   26.8702 C.2     1  UNL1        0.3058
     11 O           3.3830   -0.1153   26.5770 O.2     1  UNL1       -0.2524
     12 N           3.1585    2.3566   25.8091 N.am    1  UNL1       -0.2485
     13 H           4.0204    2.7758   28.4169 H       1  UNL1        0.1509
     14 H           3.2327    3.3192   26.0015 H       1  UNL1        0.1583
     15 C           2.7081    1.8949   24.4548 C.ar    1  UNL1        0.1664
     16 N           3.5327    1.1242   23.4667 N.ar    1  UNL1       -0.2282
     17 C           2.6883    0.8758   22.2521 C.ar    1  UNL1        0.0701
     18 C           3.1153    0.1396   21.0170 C.3     1  UNL1        0.0528
     19 C           1.3418    1.4930   22.4895 C.ar    1  UNL1        0.0803
     20 S           1.3541    2.1228   23.8508 S.2     1  UNL1       -0.0488
     21 C           0.1861    1.4822   21.5334 C.2     1  UNL1        0.1807
     22 C          -0.5696    2.7479   21.2561 C.3     1  UNL1        0.0779
     23 O          -0.2140    0.2058   20.8547 O.2     1  UNL1       -0.2908
     24 C           6.5371   -4.3859   31.7889 C.3     1  UNL1        0.2573
     25 O           6.5631   -3.0039   32.3716 O.3     1  UNL1       -0.4304
     26 C           2.0868    1.3965   30.5416 C.3     1  UNL1        0.0754
     27 N           1.0649    1.3172   29.4464 N.3     1  UNL1       -0.2726
     28 C           0.4634   -0.0061   29.0763 C.3     1  UNL1        0.0721
     29 C          -0.5586   -0.0854   27.9811 C.3     1  UNL1        0.0174
     30 C          -0.9789    1.1586   27.2560 C.3     1  UNL1        0.0031
     31 C          -0.3774    2.4820   27.6262 C.3     1  UNL1        0.0204
     32 C           0.6445    2.5613   28.7213 C.3     1  UNL1        0.0724
     33 C          -0.7978    3.7260   26.9012 C.3     1  UNL1        0.0277
     34 C          -2.0875    3.7483   26.1355 C.ar    1  UNL1       -0.0220
     35 C          -3.3846    3.9639   26.8574 C.ar    1  UNL1       -0.0020
     36 C          -4.6743    3.9863   26.0918 C.ar    1  UNL1        0.0293
     37 C          -4.6669    3.7929   24.6044 C.ar    1  UNL1        0.1401
     38 F          -5.9567    3.8152   23.8388 F       1  UNL1       -0.2042
     39 C          -3.3699    3.5773   23.8825 C.ar    1  UNL1        0.0293
     40 C          -2.0802    3.5549   24.6481 C.ar    1  UNL1       -0.0020
@<TRIPOS>BOND
     1    24    25    1
     2    25     1    1
     3     1     2    2
     4     1     3   am
     5     3     4    1
     6     4     5    1
     7     5     6    1
     8     6     9    1
     9     9    10   am
    10    10    11    2
    11    10    12   am
    12    12    15    1
    13    15    16   ar
    14    16    17   ar
    15    17    18    1
    16    17    19   ar
    17    19    21    1
    18    21    22    1
    19    21    23    2
    20    19    20   ar
    21     6     7    1
    22     7    26    1
    23    26    27    1
    24    27    28    1
    25    28    29    1
    26    29    30    1
    27    30    31    1
    28    31    33    1
    29    33    34    1
    30    34    35   ar
    31    35    36   ar
    32    36    37   ar
    33    37    38    1
    34    37    39   ar
    35    39    40   ar
    36    31    32    1
    37     7     8    1
    38     8     3    1
    39    20    15   ar
    40    32    27    1
    41    40    34   ar
    42     9    13    1
    43    12    14    1
@<TRIPOS>MOLECULE
*****
 40 43 0 0 0
SMALL
GASTEIGER

@<TRIPOS>ATOM
      1 C          -0.8935    4.1033   23.3766 C.2     1  UNL1        0.4050
      2 O          -0.0264    4.7104   22.3139 O.2     1  UNL1       -0.2262
      3 N          -0.3080    3.1314   24.3578 N.am    1  UNL1       -0.2459
      4 C          -1.1752    2.5243   25.4205 C.3     1  UNL1        0.0984
      5 C          -0.5897    1.5525   26.4017 C.3     1  UNL1        0.0413
      6 C           0.8630    1.1877   26.3201 C.3     1  UNL1        0.0777
      7 C           1.7301    1.7948   25.2574 C.3     1  UNL1        0.0540
      8 C           1.1446    2.7667   24.2762 C.3     1  UNL1        0.0997
      9 N           1.4485    0.2159   27.3012 N.am    1  UNL1       -0.2901
     10 C           1.8279    0.6763   28.6775 C.2     1  UNL1        0.3058
     11 O           1.6218    2.1086   29.0726 O.2     1  UNL1       -0.2524
     12 N           2.4134   -0.2956   29.6586 N.am    1  UNL1       -0.2485
     13 H           1.5838   -0.7242   27.0419 H       1  UNL1        0.1509
     14 H           2.5487   -1.2357   29.3993 H       1  UNL1        0.1583
     15 C           2.7928    0.1649   31.0349 C.ar    1  UNL1        0.1664
     16 N           2.0297    1.1418   31.8794 N.ar    1  UNL1       -0.2282
     17 C           2.7672    1.3100   33.1747 C.ar    1  UNL1        0.0701
     18 C           2.3577    2.1957   34.3139 C.3     1  UNL1        0.0528
     19 C           3.9862    0.4368   33.1308 C.ar    1  UNL1        0.0803
     20 S           4.0020   -0.2708   31.8083 S.2     1  UNL1       -0.0488
     21 C           5.0096    0.2961   34.2183 C.2     1  UNL1        0.1807
     22 C           4.6734   -0.4560   35.4718 C.3     1  UNL1        0.0779
     23 O           6.3693    0.9076   34.0524 O.2     1  UNL1       -0.2908
     24 C          -3.3588    3.6968   22.6646 C.3     1  UNL1        0.2573
     25 O          -2.3462    4.4680   23.4582 O.3     1  UNL1       -0.4304
     26 C           3.1829    1.4300   25.1757 C.3     1  UNL1        0.0754
     27 N           3.5952    0.1256   24.5606 N.3     1  UNL1       -0.2726
     28 C           4.3478   -0.8835   25.3762 C.3     1  UNL1        0.0721
     29 C           4.7602   -2.1880   24.7610 C.3     1  UNL1        0.0174
     30 C           4.4199   -2.4833   23.3303 C.3     1  UNL1        0.0031
     31 C           3.6673   -1.4741   22.5147 C.3     1  UNL1        0.0204
     32 C           3.2549   -0.1697   23.1298 C.3     1  UNL1        0.0724
     33 C           3.3270   -1.7694   21.0840 C.3     1  UNL1        0.0277
     34 C           2.5496   -0.7723   20.2768 C.ar    1  UNL1       -0.0220
     35 C           1.1257   -0.4647   20.6343 C.ar    1  UNL1       -0.0020
     36 C           0.3484    0.5323   19.8271 C.ar    1  UNL1        0.0293
     37 C           0.9949    1.2218   18.6624 C.ar    1  UNL1        0.1401
     38 F           0.2176    2.2189   17.8552 F       1  UNL1       -0.2042
     39 C           2.4189    0.9142   18.3049 C.ar    1  UNL1        0.0293
     40 C           3.1962   -0.0828   19.1121 C.ar    1  UNL1       -0.0020
@<TRIPOS>BOND
     1    24    25    1
     2    25     1    1
     3     1     2    2
     4     1     3   am
     5     3     4    1
     6     4     5    1
     7     5     6    1
     8     6     9    1
     9     9    10   am
    10    10    11    2
    11    10    12   am
    12    12    15    1
    13    15    16   ar
    14    16    17   ar
    15    17    18    1
    16    17    19   ar
    17    19    21    1
    18    21    22    1
    19    21    23    2
    20    19    20   ar
    21     6     7    1
    22     7    26    1
    23    26    27    1
    24    27    28    1
    25    28    29    1
    26    29    30    1
    27    30    31    1
    28    31    33    1
    29    33    34    1
    30    34    35   ar
    31    35    36   ar
    32    36    37   ar
    33    37    38    1
    34    37    39   ar
    35    39    40   ar
    36    31    32    1
    37     7     8    1
    38     8     3    1
    39    20    15   ar
    40    32    27    1
    41    40    34   ar
    42     9    13    1
    43    12    14    1
@<TRIPOS>MOLECULE
*****
 40 43 0 0 0
SMALL
GASTEIGER

@<TRIPOS>ATOM
      1 C          -2.8831    4.4218   18.1940 C.2     1  UNL1        0.4050
      2 O          -1.9757    4.0367   17.0634 O.2     1  UNL1       -0.2262
      3 N          -2.3368    4.5450   19.5855 N.am    1  UNL1       -0.2459
      4 C          -3.2442    4.9301   20.7161 C.3     1  UNL1        0.0984
      5 C          -2.6979    5.0533   22.1076 C.3     1  UNL1        0.0413
      6 C          -1.2442    4.7915   22.3686 C.3     1  UNL1        0.0777
      7 C          -0.3368    4.4065   21.2380 C.3     1  UNL1        0.0540
      8 C          -0.8831    4.2833   19.8465 C.3     1  UNL1        0.0997
      9 N          -0.6980    4.9148   23.7601 N.am    1  UNL1       -0.2901
     10 C          -0.6282    3.7079   24.6481 C.2     1  UNL1        0.3058
     11 O          -1.1048    2.3777   24.1446 O.2     1  UNL1       -0.2524
     12 N          -0.0819    3.8312   26.0397 N.am    1  UNL1       -0.2485
     13 H          -0.3852    5.7878   24.0906 H       1  UNL1        0.1509
     14 H           0.2308    4.7042   26.3702 H       1  UNL1        0.1583
     15 C          -0.0122    2.6242   26.9277 C.ar    1  UNL1        0.1664
     16 N          -1.1834    1.8710   27.4851 N.ar    1  UNL1       -0.2282
     17 C          -0.6541    0.7399   28.3161 C.ar    1  UNL1        0.0701
     18 C          -1.4784   -0.2684   29.0603 C.3     1  UNL1        0.0528
     19 C           0.8443    0.7941   28.2721 C.ar    1  UNL1        0.0803
     20 S           1.2410    1.9587   27.4141 S.2     1  UNL1       -0.0488
     21 C           1.7814   -0.1504   28.9647 C.2     1  UNL1        0.1807
     22 C           2.8660   -0.8354   28.1872 C.3     1  UNL1        0.0779
     23 O           1.6340   -0.4100   30.4347 O.2     1  UNL1       -0.2908
     24 C          -5.3398    3.5814   18.1041 C.3     1  UNL1        0.2573
     25 O          -4.3368    4.6835   17.9330 O.3     1  UNL1       -0.4304
     26 C           1.1170    4.1447   21.4989 C.3     1  UNL1        0.0754
     27 N           1.5714    2.7736   21.9033 N.3     1  UNL1       -0.2726
     28 C           2.1279    2.5427   23.2769 C.3     1  UNL1        0.0721
     29 C           2.5823    1.1714   23.6813 C.3     1  UNL1        0.0174
     30 C           2.4801    0.0313   22.7120 C.3     1  UNL1        0.0031
     31 C           1.9236    0.2623   21.3383 C.3     1  UNL1        0.0204
     32 C           1.4692    1.6334   20.9340 C.3     1  UNL1        0.0724
     33 C           1.8214   -0.8779   20.3690 C.3     1  UNL1        0.0277
     34 C           3.0414   -1.3499   19.6349 C.ar    1  UNL1       -0.0220
     35 C           3.9175   -0.3619   18.9232 C.ar    1  UNL1       -0.0020
     36 C           5.1374   -0.8338   18.1891 C.ar    1  UNL1        0.0293
     37 C           5.4814   -2.2936   18.1667 C.ar    1  UNL1        0.1401
     38 F           6.7014   -2.7656   17.4326 F       1  UNL1       -0.2042
     39 C           4.6054   -3.2816   18.8785 C.ar    1  UNL1        0.0293
     40 C           3.3854   -2.8097   19.6126 C.ar    1  UNL1       -0.0020
@<TRIPOS>BOND
     1    24    25    1
     2    25     1    1
     3     1     2    2
     4     1     3   am
     5     3     4    1
     6     4     5    1
     7     5     6    1
     8     6     9    1
     9     9    10   am
    10    10    11    2
    11    10    12   am
    12    12    15    1
    13    15    16   ar
    14    16    17   ar
    15    17    18    1
    16    17    19   ar
    17    19    21    1
    18    21    22    1
    19    21    23    2
    20    19    20   ar
    21     6     7    1
    22     7    26    1
    23    26    27    1
    24    27    28    1
    25    28    29    1
    26    29    30    1
    27    30    31    1
    28    31    33    1
    29    33    34    1
    30    34    35   ar
    31    35    36   ar
    32    36    37   ar
    33    37    38    1
    34    37    39   ar
    35    39    40   ar
    36    31    32    1
    37     7     8    1
    38     8     3    1
    39    20    15   ar
    40    32    27    1
    41    40    34   ar
    42     9    13    1
    43    12    14    1
