@<TRIPOS>MOLECULE
*****
 21 22 0 0 0
SMALL
GASTEIGER

@<TRIPOS>ATOM
      1 C          -8.4290  -17.5074   21.9647 C.2     1  UNL1        0.1855
      2 O          -7.3203  -17.7845   20.9931 O.2     1  UNL1       -0.2900
      3 C          -8.1290  -16.8422   23.2753 C.ar    1  UNL1        0.0369
      4 C          -9.2169  -16.6642   24.2924 C.ar    1  UNL1        0.0042
      5 C          -8.9169  -15.9990   25.6029 C.ar    1  UNL1        0.0150
      6 C          -7.5288  -15.5119   25.8963 C.ar    1  UNL1        0.0522
      7 N          -7.2288  -14.8467   27.2069 N.pl3   1  UNL1       -0.3563
      8 C          -6.4409  -15.6900   24.8792 C.ar    1  UNL1        0.0706
      9 CL         -5.0528  -15.2028   25.1726 Cl      1  UNL1       -0.0810
     10 C          -6.7409  -16.3551   23.5687 C.ar    1  UNL1        0.0155
     11 H          -7.9429  -14.7298   27.8745 H       1  UNL1        0.1424
     12 H          -6.3178  -14.5270   27.3995 H       1  UNL1        0.1424
     13 C          -9.8377  -17.8955   21.6257 C.3     1  UNL1        0.0981
     14 C         -11.1580  -18.5668   21.3885 C.3     1  UNL1        0.0233
     15 C         -12.1026  -17.5461   20.8263 C.3     1  UNL1        0.0189
     16 C         -11.3660  -16.2440   20.7162 C.3     1  UNL1        0.0689
     17 N          -9.9663  -16.4600   21.2103 N.3     1  UNL1       -0.2938
     18 H          -9.7829  -15.8511   22.0078 H       1  UNL1        0.1235
     19 C          -9.4146  -19.2499   22.1121 C.3     1  UNL1        0.0219
     20 C          -9.8095  -20.3982   24.4090 C.3     1  UNL1        0.0001
     21 C         -10.3013  -20.0235   23.0423 C.3     1  UNL1        0.0018
@<TRIPOS>BOND
     1    20    21    1
     2    21    19    1
     3    19    13    1
     4    13     1    1
     5     1     2    2
     6     1     3    1
     7     3     4   ar
     8     4     5   ar
     9     5     6   ar
    10     6     7    1
    11     6     8   ar
    12     8     9    1
    13     8    10   ar
    14    13    14    1
    15    14    15    1
    16    15    16    1
    17    16    17    1
    18    17    13    1
    19    10     3   ar
    20     7    11    1
    21     7    12    1
    22    17    18    1
@<TRIPOS>MOLECULE
*****
 21 22 0 0 0
SMALL
GASTEIGER

@<TRIPOS>ATOM
      1 C          -9.1163  -17.2524   22.3227 C.2     1  UNL1        0.1855
      2 O          -8.3339  -17.5273   21.0727 O.2     1  UNL1       -0.2900
      3 C          -8.4455  -16.6121   23.5017 C.ar    1  UNL1        0.0369
      4 C          -7.3104  -15.6546   23.2902 C.ar    1  UNL1        0.0042
      5 C          -6.6397  -15.0144   24.4693 C.ar    1  UNL1        0.0150
      6 C          -7.1041  -15.3316   25.8598 C.ar    1  UNL1        0.0522
      7 N          -6.4333  -14.6913   27.0389 N.pl3   1  UNL1       -0.3563
      8 C          -8.2392  -16.2891   26.0714 C.ar    1  UNL1        0.0706
      9 CL         -8.7036  -16.6063   27.4620 Cl      1  UNL1       -0.0810
     10 C          -8.9099  -16.9293   24.8923 C.ar    1  UNL1        0.0155
     11 H          -5.6884  -14.0629   26.9001 H       1  UNL1        0.1424
     12 H          -6.7381  -14.8995   27.9516 H       1  UNL1        0.1424
     13 C         -10.5693  -17.6178   22.3935 C.3     1  UNL1        0.0981
     14 C         -11.9159  -18.2771   22.4388 C.3     1  UNL1        0.0233
     15 C         -12.9537  -17.2025   22.5746 C.3     1  UNL1        0.0189
     16 C         -12.2485  -15.8792   22.6132 C.3     1  UNL1        0.0689
     17 N         -10.7748  -16.1359   22.5013 N.3     1  UNL1       -0.2938
     18 H         -10.2976  -15.7796   23.3294 H       1  UNL1        0.1235
     19 C         -10.0600  -19.0233   22.2709 C.3     1  UNL1        0.0219
     20 C          -9.6563  -20.4565   24.4001 C.3     1  UNL1        0.0001
     21 C         -10.5215  -20.0751   23.2356 C.3     1  UNL1        0.0018
@<TRIPOS>BOND
     1    20    21    1
     2    21    19    1
     3    19    13    1
     4    13     1    1
     5     1     2    2
     6     1     3    1
     7     3     4   ar
     8     4     5   ar
     9     5     6   ar
    10     6     7    1
    11     6     8   ar
    12     8     9    1
    13     8    10   ar
    14    13    14    1
    15    14    15    1
    16    15    16    1
    17    16    17    1
    18    17    13    1
    19    10     3   ar
    20     7    11    1
    21     7    12    1
    22    17    18    1
@<TRIPOS>MOLECULE
*****
 21 22 0 0 0
SMALL
GASTEIGER

@<TRIPOS>ATOM
      1 C          -9.6162  -17.2103   22.3788 C.2     1  UNL1        0.1855
      2 O          -9.0742  -17.8132   21.1168 O.2     1  UNL1       -0.2900
      3 C          -8.6814  -16.5946   23.3775 C.ar    1  UNL1        0.0369
      4 C          -9.2249  -15.9754   24.6309 C.ar    1  UNL1        0.0042
      5 C          -8.2902  -15.3597   25.6295 C.ar    1  UNL1        0.0150
      6 C          -6.8120  -15.3633   25.3747 C.ar    1  UNL1        0.0522
      7 N          -5.8773  -14.7476   26.3734 N.pl3   1  UNL1       -0.3563
      8 C          -6.2685  -15.9825   24.1213 C.ar    1  UNL1        0.0706
      9 CL         -4.7904  -15.9861   23.8665 Cl      1  UNL1       -0.0810
     10 C          -7.2033  -16.5982   23.1227 C.ar    1  UNL1        0.0155
     11 H          -6.2340  -14.3412   27.1961 H       1  UNL1        0.1424
     12 H          -4.9071  -14.7500   26.2062 H       1  UNL1        0.1424
     13 C         -11.0928  -17.2230   22.6422 C.3     1  UNL1        0.0981
     14 C         -12.5764  -17.0076   22.6905 C.3     1  UNL1        0.0233
     15 C         -13.1511  -17.9631   23.6940 C.3     1  UNL1        0.0189
     16 C         -12.0226  -18.7689   24.2658 C.3     1  UNL1        0.0689
     17 N         -10.7505  -18.3115   23.6158 N.3     1  UNL1       -0.2938
     18 H         -10.3134  -19.0910   23.1239 H       1  UNL1        0.1235
     19 C         -11.1264  -16.1318   21.6136 C.3     1  UNL1        0.0219
     20 C         -11.6456  -15.5983   19.1244 C.3     1  UNL1        0.0001
     21 C         -12.0247  -16.2549   20.4186 C.3     1  UNL1        0.0018
@<TRIPOS>BOND
     1    20    21    1
     2    21    19    1
     3    19    13    1
     4    13     1    1
     5     1     2    2
     6     1     3    1
     7     3     4   ar
     8     4     5   ar
     9     5     6   ar
    10     6     7    1
    11     6     8   ar
    12     8     9    1
    13     8    10   ar
    14    13    14    1
    15    14    15    1
    16    15    16    1
    17    16    17    1
    18    17    13    1
    19    10     3   ar
    20     7    11    1
    21     7    12    1
    22    17    18    1
@<TRIPOS>MOLECULE
*****
 21 22 0 0 0
SMALL
GASTEIGER

@<TRIPOS>ATOM
      1 C          -9.5942  -19.2753   20.0798 C.2     1  UNL1        0.1855
      2 O          -9.7903  -20.0469   18.8085 O.2     1  UNL1       -0.2900
      3 C          -8.2256  -19.1585   20.6827 C.ar    1  UNL1        0.0369
      4 C          -7.9900  -18.2254   21.8332 C.ar    1  UNL1        0.0042
      5 C          -6.6215  -18.1087   22.4360 C.ar    1  UNL1        0.0150
      6 C          -5.4885  -18.9251   21.8884 C.ar    1  UNL1        0.0522
      7 N          -4.1199  -18.8083   22.4912 N.pl3   1  UNL1       -0.3563
      8 C          -5.7241  -19.8582   20.7379 C.ar    1  UNL1        0.0706
      9 CL         -4.5912  -20.6746   20.1902 Cl      1  UNL1       -0.0810
     10 C          -7.0927  -19.9749   20.1350 C.ar    1  UNL1        0.0155
     11 H          -3.9653  -18.1958   23.2464 H       1  UNL1        0.1424
     12 H          -3.3764  -19.3441   22.1318 H       1  UNL1        0.1424
     13 C         -10.7665  -18.6205   20.7482 C.3     1  UNL1        0.0981
     14 C         -11.9523  -18.2324   21.5809 C.3     1  UNL1        0.0233
     15 C         -12.3759  -16.8533   21.1700 C.3     1  UNL1        0.0189
     16 C         -11.4519  -16.3891   20.0834 C.3     1  UNL1        0.0689
     17 N         -10.4572  -17.4813   19.8227 N.3     1  UNL1       -0.2938
     18 H          -9.5128  -17.1387   19.9991 H       1  UNL1        0.1235
     19 C         -10.8307  -19.8966   21.5339 C.3     1  UNL1        0.0219
     20 C          -9.9575  -20.3462   23.9392 C.3     1  UNL1        0.0001
     21 C         -11.0349  -19.8533   23.0193 C.3     1  UNL1        0.0018
@<TRIPOS>BOND
     1    20    21    1
     2    21    19    1
     3    19    13    1
     4    13     1    1
     5     1     2    2
     6     1     3    1
     7     3     4   ar
     8     4     5   ar
     9     5     6   ar
    10     6     7    1
    11     6     8   ar
    12     8     9    1
    13     8    10   ar
    14    13    14    1
    15    14    15    1
    16    15    16    1
    17    16    17    1
    18    17    13    1
    19    10     3   ar
    20     7    11    1
    21     7    12    1
    22    17    18    1
@<TRIPOS>MOLECULE
*****
 21 22 0 0 0
SMALL
GASTEIGER

@<TRIPOS>ATOM
      1 C          -7.8029  -18.6977   21.1596 C.2     1  UNL1        0.1855
      2 O          -8.5909  -18.9129   19.9015 O.2     1  UNL1       -0.2900
      3 C          -6.3501  -19.0682   21.2073 C.ar    1  UNL1        0.0369
      4 C          -5.7971  -20.0622   20.2295 C.ar    1  UNL1        0.0042
      5 C          -4.3444  -20.4327   20.2771 C.ar    1  UNL1        0.0150
      6 C          -3.4446  -19.8091   21.3026 C.ar    1  UNL1        0.0522
      7 N          -1.9918  -20.1796   21.3502 N.pl3   1  UNL1       -0.3563
      8 C          -3.9976  -18.8151   22.2804 C.ar    1  UNL1        0.0706
      9 CL         -3.0978  -18.1915   23.3058 Cl      1  UNL1       -0.0810
     10 C          -5.4503  -18.4446   22.2327 C.ar    1  UNL1        0.0155
     11 H          -1.6289  -20.8320   20.7085 H       1  UNL1        0.1424
     12 H          -1.4013  -19.7704   22.0233 H       1  UNL1        0.1424
     13 C          -8.4676  -18.1120   22.3700 C.3     1  UNL1        0.0981
     14 C          -9.2007  -17.8251   23.6468 C.3     1  UNL1        0.0233
     15 C          -9.1876  -16.3411   23.8654 C.3     1  UNL1        0.0189
     16 C          -8.4464  -15.7110   22.7237 C.3     1  UNL1        0.0689
     17 N          -8.0014  -16.8054   21.7995 N.3     1  UNL1       -0.2938
     18 H          -6.9841  -16.8035   21.7252 H       1  UNL1        0.1235
     19 C          -8.7947  -19.5411   22.6875 C.3     1  UNL1        0.0219
     20 C         -11.1457  -20.2318   21.8237 C.3     1  UNL1        0.0001
     21 C         -10.2136  -19.9422   22.9628 C.3     1  UNL1        0.0018
@<TRIPOS>BOND
     1    20    21    1
     2    21    19    1
     3    19    13    1
     4    13     1    1
     5     1     2    2
     6     1     3    1
     7     3     4   ar
     8     4     5   ar
     9     5     6   ar
    10     6     7    1
    11     6     8   ar
    12     8     9    1
    13     8    10   ar
    14    13    14    1
    15    14    15    1
    16    15    16    1
    17    16    17    1
    18    17    13    1
    19    10     3   ar
    20     7    11    1
    21     7    12    1
    22    17    18    1
@<TRIPOS>MOLECULE
*****
 21 22 0 0 0
SMALL
GASTEIGER

@<TRIPOS>ATOM
      1 C         -10.2233  -18.8218   23.5881 C.2     1  UNL1        0.1855
      2 O         -10.1957  -20.2903   23.8928 O.2     1  UNL1       -0.2900
      3 C          -9.4913  -17.8580   24.4743 C.ar    1  UNL1        0.0369
      4 C          -9.5149  -18.0415   25.9628 C.ar    1  UNL1        0.0042
      5 C          -8.7829  -17.0778   26.8490 C.ar    1  UNL1        0.0150
      6 C          -8.0273  -15.9305   26.2466 C.ar    1  UNL1        0.0522
      7 N          -7.2953  -14.9667   27.1329 N.pl3   1  UNL1       -0.3563
      8 C          -8.0036  -15.7470   24.7581 C.ar    1  UNL1        0.0706
      9 CL         -7.2480  -14.5998   24.1558 Cl      1  UNL1       -0.0810
     10 C          -8.7356  -16.7108   23.8720 C.ar    1  UNL1        0.0155
     11 H          -7.3108  -15.0872   28.1099 H       1  UNL1        0.1424
     12 H          -6.7993  -14.2137   26.7376 H       1  UNL1        0.1424
     13 C         -10.9828  -18.3172   22.3971 C.3     1  UNL1        0.0981
     14 C         -11.9378  -17.6956   21.4217 C.3     1  UNL1        0.0233
     15 C         -11.4340  -17.9760   20.0369 C.3     1  UNL1        0.0189
     16 C         -10.1676  -18.7709   20.1566 C.3     1  UNL1        0.0689
     17 N          -9.8887  -18.9817   21.6153 N.3     1  UNL1       -0.2938
     18 H          -8.9888  -18.5681   21.8589 H       1  UNL1        0.1235
     19 C         -11.9180  -17.7581   23.4280 C.3     1  UNL1        0.0219
     20 C         -14.2716  -18.2250   24.4244 C.3     1  UNL1        0.0001
     21 C         -13.4009  -17.8953   23.2484 C.3     1  UNL1        0.0018
@<TRIPOS>BOND
     1    20    21    1
     2    21    19    1
     3    19    13    1
     4    13     1    1
     5     1     2    2
     6     1     3    1
     7     3     4   ar
     8     4     5   ar
     9     5     6   ar
    10     6     7    1
    11     6     8   ar
    12     8     9    1
    13     8    10   ar
    14    13    14    1
    15    14    15    1
    16    15    16    1
    17    16    17    1
    18    17    13    1
    19    10     3   ar
    20     7    11    1
    21     7    12    1
    22    17    18    1
@<TRIPOS>MOLECULE
*****
 21 22 0 0 0
SMALL
GASTEIGER

@<TRIPOS>ATOM
      1 C          -9.7939  -16.3814   21.8406 C.2     1  UNL1        0.1855
      2 O         -10.0582  -15.3269   20.8071 O.2     1  UNL1       -0.2900
      3 C          -8.9073  -16.0780   23.0119 C.ar    1  UNL1        0.0369
      4 C          -9.4819  -16.0373   24.3968 C.ar    1  UNL1        0.0042
      5 C          -8.5952  -15.7340   25.5680 C.ar    1  UNL1        0.0150
      6 C          -7.1339  -15.4713   25.3543 C.ar    1  UNL1        0.0522
      7 N          -6.2473  -15.1680   26.5256 N.pl3   1  UNL1       -0.3563
      8 C          -6.5593  -15.5120   23.9693 C.ar    1  UNL1        0.0706
      9 CL         -5.0981  -15.2494   23.7556 Cl      1  UNL1       -0.0810
     10 C          -7.4460  -15.8154   22.7981 C.ar    1  UNL1        0.0155
     11 H          -6.6244  -15.1413   27.4346 H       1  UNL1        0.1424
     12 H          -5.2882  -14.9956   26.3853 H       1  UNL1        0.1424
     13 C         -10.4163  -17.7392   21.7029 C.3     1  UNL1        0.0981
     14 C         -11.2549  -18.9815   21.7608 C.3     1  UNL1        0.0233
     15 C         -10.6089  -20.0178   20.8896 C.3     1  UNL1        0.0189
     16 C          -9.3711  -19.4159   20.2933 C.3     1  UNL1        0.0689
     17 N          -9.2521  -18.0076   20.7960 N.3     1  UNL1       -0.2938
     18 H          -9.2681  -17.3572   20.0104 H       1  UNL1        0.1235
     19 C         -11.4504  -17.1868   22.6386 C.3     1  UNL1        0.0219
     20 C         -13.6192  -17.8115   23.9255 C.3     1  UNL1        0.0001
     21 C         -12.8367  -17.7596   22.6469 C.3     1  UNL1        0.0018
@<TRIPOS>BOND
     1    20    21    1
     2    21    19    1
     3    19    13    1
     4    13     1    1
     5     1     2    2
     6     1     3    1
     7     3     4   ar
     8     4     5   ar
     9     5     6   ar
    10     6     7    1
    11     6     8   ar
    12     8     9    1
    13     8    10   ar
    14    13    14    1
    15    14    15    1
    16    15    16    1
    17    16    17    1
    18    17    13    1
    19    10     3   ar
    20     7    11    1
    21     7    12    1
    22    17    18    1
@<TRIPOS>MOLECULE
*****
 21 22 0 0 0
SMALL
GASTEIGER

@<TRIPOS>ATOM
      1 C          -8.3146  -18.6691   21.5550 C.2     1  UNL1        0.1855
      2 O          -9.0922  -18.4375   20.2933 O.2     1  UNL1       -0.2900
      3 C          -6.8597  -19.0274   21.4842 C.ar    1  UNL1        0.0369
      4 C          -6.3792  -20.0147   20.4623 C.ar    1  UNL1        0.0042
      5 C          -4.9244  -20.3729   20.3916 C.ar    1  UNL1        0.0150
      6 C          -3.9500  -19.7438   21.3428 C.ar    1  UNL1        0.0522
      7 N          -2.4951  -20.1021   21.2721 N.pl3   1  UNL1       -0.3563
      8 C          -4.4304  -18.7566   22.3648 C.ar    1  UNL1        0.0706
      9 CL         -3.4560  -18.1275   23.3160 Cl      1  UNL1       -0.0810
     10 C          -5.8853  -18.3983   22.4355 C.ar    1  UNL1        0.0155
     11 H          -2.1797  -20.7501   20.6013 H       1  UNL1        0.1424
     12 H          -1.8555  -19.6893   21.8964 H       1  UNL1        0.1424
     13 C          -8.9919  -18.5424   22.8873 C.3     1  UNL1        0.0981
     14 C          -9.6583  -18.1082   24.1590 C.3     1  UNL1        0.0233
     15 C          -9.9804  -19.3372   24.9566 C.3     1  UNL1        0.0189
     16 C          -9.5130  -20.5308   24.1777 C.3     1  UNL1        0.0689
     17 N          -8.9020  -20.0396   22.8988 N.3     1  UNL1       -0.2938
     18 H          -9.4110  -20.4231   22.1024 H       1  UNL1        0.1235
     19 C          -8.9401  -17.0716   22.5972 C.3     1  UNL1        0.0219
     20 C          -7.4285  -15.2095   23.5961 C.3     1  UNL1        0.0001
     21 C          -8.6309  -16.1006   23.6979 C.3     1  UNL1        0.0018
@<TRIPOS>BOND
     1    20    21    1
     2    21    19    1
     3    19    13    1
     4    13     1    1
     5     1     2    2
     6     1     3    1
     7     3     4   ar
     8     4     5   ar
     9     5     6   ar
    10     6     7    1
    11     6     8   ar
    12     8     9    1
    13     8    10   ar
    14    13    14    1
    15    14    15    1
    16    15    16    1
    17    16    17    1
    18    17    13    1
    19    10     3   ar
    20     7    11    1
    21     7    12    1
    22    17    18    1
@<TRIPOS>MOLECULE
*****
 21 22 0 0 0
SMALL
GASTEIGER

@<TRIPOS>ATOM
      1 C          -8.0428  -18.0779   22.1812 C.2     1  UNL1        0.1855
      2 O          -8.2268  -16.7018   22.7490 O.2     1  UNL1       -0.2900
      3 C          -6.6623  -18.6008   21.9145 C.ar    1  UNL1        0.0369
      4 C          -6.4497  -19.6606   20.8746 C.ar    1  UNL1        0.0042
      5 C          -5.0693  -20.1834   20.6079 C.ar    1  UNL1        0.0150
      6 C          -3.9016  -19.6464   21.3812 C.ar    1  UNL1        0.0522
      7 N          -2.5211  -20.1693   21.1145 N.pl3   1  UNL1       -0.3563
      8 C          -4.1142  -18.5866   22.4211 C.ar    1  UNL1        0.0706
      9 CL         -2.9465  -18.0495   23.1944 Cl      1  UNL1       -0.0810
     10 C          -5.4946  -18.0638   22.6877 C.ar    1  UNL1        0.0155
     11 H          -2.3816  -20.8649   20.4320 H       1  UNL1        0.1424
     12 H          -1.7547  -19.8168   21.6220 H       1  UNL1        0.1424
     13 C          -9.2391  -18.9311   21.8800 C.3     1  UNL1        0.0981
     14 C         -10.3504  -19.9378   21.8387 C.3     1  UNL1        0.0233
     15 C         -11.1942  -19.6476   20.6329 C.3     1  UNL1        0.0189
     16 C         -10.6044  -18.4615   19.9291 C.3     1  UNL1        0.0689
     17 N          -9.3961  -18.0187   20.6998 N.3     1  UNL1       -0.2938
     18 H          -9.5221  -17.0582   21.0192 H       1  UNL1        0.1235
     19 C          -8.8320  -19.6651   23.1231 C.3     1  UNL1        0.0219
     20 C          -9.9287  -18.6776   25.2614 C.3     1  UNL1        0.0001
     21 C          -9.7933  -19.7928   24.2675 C.3     1  UNL1        0.0018
@<TRIPOS>BOND
     1    20    21    1
     2    21    19    1
     3    19    13    1
     4    13     1    1
     5     1     2    2
     6     1     3    1
     7     3     4   ar
     8     4     5   ar
     9     5     6   ar
    10     6     7    1
    11     6     8   ar
    12     8     9    1
    13     8    10   ar
    14    13    14    1
    15    14    15    1
    16    15    16    1
    17    16    17    1
    18    17    13    1
    19    10     3   ar
    20     7    11    1
    21     7    12    1
    22    17    18    1
