@<TRIPOS>MOLECULE
*****
 31 33 0 0 0
SMALL
GASTEIGER

@<TRIPOS>ATOM
      1 C         -11.0874  -18.3716   23.2665 C.ar    1  UNL1        0.0696
      2 C         -10.6247  -19.6916   22.7249 C.ar    1  UNL1        0.0057
      3 C          -9.1987  -19.8672   22.2940 C.ar    1  UNL1       -0.0041
      4 C          -8.2354  -18.7227   22.4046 C.ar    1  UNL1       -0.0185
      5 C          -8.6982  -17.4027   22.9462 C.ar    1  UNL1        0.0677
      6 C         -10.1242  -17.2271   23.3772 C.ar    1  UNL1        0.0095
      7 C          -6.8094  -18.8983   21.9737 C.3     1  UNL1        0.0257
      8 C          -6.2521  -18.0564   20.8644 C.3     1  UNL1        0.0259
      9 C          -4.8261  -18.2319   20.4335 C.3     1  UNL1        0.0937
     10 N          -3.9574  -19.2494   21.1118 N.am    1  UNL1       -0.2795
     11 C          -2.5314  -19.4249   20.6809 C.2     1  UNL1        0.2251
     12 O          -1.6628  -20.4423   21.3593 O.2     1  UNL1       -0.2749
     13 C          -4.5148  -20.0912   22.2211 C.3     1  UNL1        0.0937
     14 C          -5.9408  -19.9157   22.6521 C.3     1  UNL1        0.0259
     15 C          -1.9741  -18.5830   19.5716 C.3     1  UNL1        0.0767
     16 C          -2.1288  -17.9401   18.2253 C.3     1  UNL1        0.0096
     17 C          -0.8540  -17.7678   18.9966 C.3     1  UNL1        0.0096
     18 N         -12.9796  -18.7739   25.0008 N.am    1  UNL1       -0.1708
     19 C         -12.5134  -18.1960   23.6974 C.2     1  UNL1        0.3078
     20 O         -13.4733  -17.4426   22.8250 O.2     1  UNL1       -0.2516
     21 H         -12.3497  -19.2684   25.5734 H       1  UNL1        0.2545
     22 N         -14.7389  -18.4738   26.8889 N.pl3   1  UNL1       -0.1313
     23 C         -14.4056  -18.5983   25.4317 C.2     1  UNL1        0.3751
     24 N         -15.4984  -18.5473   24.4054 N.pl3   1  UNL1       -0.2906
     25 H         -15.6748  -18.3585   27.1717 H       1  UNL1        0.3060
     26 H         -16.4344  -18.4321   24.6882 H       1  UNL1        0.2545
     27 H         -15.2797  -18.6291   23.4490 H       1  UNL1        0.2545
     28 C          -7.7349  -16.2581   23.0569 C.3     1  UNL1        0.4183
     29 F          -6.7717  -15.1137   23.1677 F       1  UNL1       -0.1659
     30 F          -8.2276  -15.7168   21.7477 F       1  UNL1       -0.1659
     31 F          -7.2422  -16.7995   24.3662 F       1  UNL1       -0.1659
@<TRIPOS>BOND
     1    22    23    2
     2    23    24    1
     3    23    18    1
     4    18    19   am
     5    19    20    2
     6    19     1    1
     7     1     2   ar
     8     2     3   ar
     9     3     4   ar
    10     4     7    1
    11     7     8    1
    12     8     9    1
    13     9    10    1
    14    10    11   am
    15    11    12    2
    16    11    15    1
    17    15    16    1
    18    16    17    1
    19    10    13    1
    20    13    14    1
    21     4     5   ar
    22     5    28    1
    23    28    29    1
    24    28    30    1
    25    28    31    1
    26     5     6   ar
    27     6     1   ar
    28    14     7    1
    29    17    15    1
    30    22    25    1
    31    24    26    1
    32    24    27    1
    33    18    21    1
@<TRIPOS>MOLECULE
*****
 31 33 0 0 0
SMALL
GASTEIGER

@<TRIPOS>ATOM
      1 C          -3.9540  -18.7481   21.2744 C.ar    1  UNL1        0.0696
      2 C          -4.4830  -17.8960   22.3897 C.ar    1  UNL1        0.0057
      3 C          -5.9626  -17.7768   22.6054 C.ar    1  UNL1       -0.0041
      4 C          -6.9132  -18.5098   21.7059 C.ar    1  UNL1       -0.0185
      5 C          -6.3841  -19.3620   20.5907 C.ar    1  UNL1        0.0677
      6 C          -4.9045  -19.4811   20.3749 C.ar    1  UNL1        0.0095
      7 C          -8.3928  -18.3907   21.9217 C.3     1  UNL1        0.0257
      8 C          -8.9728  -18.6219   23.2855 C.3     1  UNL1        0.0259
      9 C         -10.4525  -18.5028   23.5013 C.3     1  UNL1        0.0937
     10 N         -11.3520  -18.1524   22.3533 N.am    1  UNL1       -0.2795
     11 C         -12.8316  -18.0333   22.5690 C.2     1  UNL1        0.2251
     12 O         -13.7312  -17.6829   21.4210 O.2     1  UNL1       -0.2749
     13 C         -10.7719  -17.9212   20.9895 C.3     1  UNL1        0.0937
     14 C          -9.2923  -18.0403   20.7737 C.3     1  UNL1        0.0259
     15 C         -13.4117  -18.2645   23.9328 C.3     1  UNL1        0.0767
     16 C         -13.2362  -18.6591   25.3693 C.3     1  UNL1        0.0096
     17 C         -14.5919  -18.2704   24.8586 C.3     1  UNL1        0.0096
     18 N          -1.7409  -17.8086   20.2898 N.am    1  UNL1       -0.1708
     19 C          -2.4743  -18.8672   21.0586 C.2     1  UNL1        0.3078
     20 O          -1.7282  -20.0450   21.6117 O.2     1  UNL1       -0.2516
     21 H          -2.2306  -17.0355   19.9267 H       1  UNL1        0.2545
     22 N           0.3463  -19.2636   19.7640 N.pl3   1  UNL1       -0.1313
     23 C          -0.2613  -17.9277   20.0740 C.2     1  UNL1        0.3751
     24 N           0.6108  -16.7108   20.1682 N.pl3   1  UNL1       -0.2906
     25 H           1.3174  -19.3418   19.6224 H       1  UNL1        0.3060
     26 H           1.5819  -16.7890   20.0266 H       1  UNL1        0.2545
     27 H           0.2120  -15.8340   20.3717 H       1  UNL1        0.2545
     28 C          -7.3346  -20.0950   19.6911 C.3     1  UNL1        0.4183
     29 F          -8.2851  -20.8280   18.7915 F       1  UNL1       -0.1659
     30 F          -7.2561  -21.2958   20.5866 F       1  UNL1       -0.1659
     31 F          -7.4132  -18.8943   18.7956 F       1  UNL1       -0.1659
@<TRIPOS>BOND
     1    22    23    2
     2    23    24    1
     3    23    18    1
     4    18    19   am
     5    19    20    2
     6    19     1    1
     7     1     2   ar
     8     2     3   ar
     9     3     4   ar
    10     4     7    1
    11     7     8    1
    12     8     9    1
    13     9    10    1
    14    10    11   am
    15    11    12    2
    16    11    15    1
    17    15    16    1
    18    16    17    1
    19    10    13    1
    20    13    14    1
    21     4     5   ar
    22     5    28    1
    23    28    29    1
    24    28    30    1
    25    28    31    1
    26     5     6   ar
    27     6     1   ar
    28    14     7    1
    29    17    15    1
    30    22    25    1
    31    24    26    1
    32    24    27    1
    33    18    21    1
@<TRIPOS>MOLECULE
*****
 31 33 0 0 0
SMALL
GASTEIGER

@<TRIPOS>ATOM
      1 C           7.6157   -5.3054   24.4007 C.ar    1  UNL1        0.0696
      2 C           8.3320   -5.5158   23.0998 C.ar    1  UNL1        0.0057
      3 C           7.9440   -4.7155   21.8919 C.ar    1  UNL1       -0.0041
      4 C           6.8396   -3.7047   21.9850 C.ar    1  UNL1       -0.0185
      5 C           6.1233   -3.4943   23.2860 C.ar    1  UNL1        0.0677
      6 C           6.5113   -4.2947   24.4938 C.ar    1  UNL1        0.0095
      7 C           6.4516   -2.9044   20.7772 C.3     1  UNL1        0.0257
      8 C           7.2079   -1.6565   20.4297 C.3     1  UNL1        0.0259
      9 C           6.8198   -0.8561   19.2219 C.3     1  UNL1        0.0937
     10 N           5.6756   -1.3037   18.3615 N.am    1  UNL1       -0.2795
     11 C           5.2876   -0.5033   17.1536 C.2     1  UNL1        0.2251
     12 O           4.1433   -0.9509   16.2933 O.2     1  UNL1       -0.2749
     13 C           4.9194   -2.5516   18.7089 C.3     1  UNL1        0.0937
     14 C           5.3074   -3.3519   19.9168 C.3     1  UNL1        0.0259
     15 C           6.0438    0.7446   16.8062 C.3     1  UNL1        0.0767
     16 C           6.2028    2.2336   16.8923 C.3     1  UNL1        0.0096
     17 C           7.1947    1.4170   16.1182 C.3     1  UNL1        0.0096
     18 N           7.8197   -7.5944   25.6127 N.am    1  UNL1       -0.1708
     19 C           8.0037   -6.1058   25.6086 C.2     1  UNL1        0.3078
     20 O           8.5757   -5.4175   26.8123 O.2     1  UNL1       -0.2516
     21 H           7.4443   -8.0462   24.8226 H       1  UNL1        0.2545
     22 N           7.2683   -9.4271   27.3696 N.pl3   1  UNL1       -0.1313
     23 C           8.2077   -8.3947   26.8205 C.2     1  UNL1        0.3751
     24 N           9.5353   -8.1627   27.4792 N.pl3   1  UNL1       -0.2906
     25 H           7.5229   -9.9524   28.1624 H       1  UNL1        0.3060
     26 H           9.7900   -8.6880   28.2720 H       1  UNL1        0.2545
     27 H          10.1519   -7.4851   27.1188 H       1  UNL1        0.2545
     28 C           5.0188   -2.4836   23.3791 C.3     1  UNL1        0.4183
     29 F           3.9144   -1.4729   23.4723 F       1  UNL1       -0.1659
     30 F           5.9975   -1.4596   23.8726 F       1  UNL1       -0.1659
     31 F           4.0401   -3.5076   22.8857 F       1  UNL1       -0.1659
@<TRIPOS>BOND
     1    22    23    2
     2    23    24    1
     3    23    18    1
     4    18    19   am
     5    19    20    2
     6    19     1    1
     7     1     2   ar
     8     2     3   ar
     9     3     4   ar
    10     4     7    1
    11     7     8    1
    12     8     9    1
    13     9    10    1
    14    10    11   am
    15    11    12    2
    16    11    15    1
    17    15    16    1
    18    16    17    1
    19    10    13    1
    20    13    14    1
    21     4     5   ar
    22     5    28    1
    23    28    29    1
    24    28    30    1
    25    28    31    1
    26     5     6   ar
    27     6     1   ar
    28    14     7    1
    29    17    15    1
    30    22    25    1
    31    24    26    1
    32    24    27    1
    33    18    21    1
@<TRIPOS>MOLECULE
*****
 31 33 0 0 0
SMALL
GASTEIGER

@<TRIPOS>ATOM
      1 C           6.7142   -2.7814   32.3512 C.ar    1  UNL1        0.0696
      2 C           5.2628   -2.9309   32.6989 C.ar    1  UNL1        0.0057
      3 C           4.6088   -1.9500   33.6263 C.ar    1  UNL1       -0.0041
      4 C           5.4062   -0.8196   34.2060 C.ar    1  UNL1       -0.0185
      5 C           6.8576   -0.6700   33.8583 C.ar    1  UNL1        0.0677
      6 C           7.5116   -1.6509   32.9309 C.ar    1  UNL1        0.0095
      7 C           4.7522    0.1614   35.1334 C.3     1  UNL1        0.0257
      8 C           4.1386    1.4161   34.5866 C.3     1  UNL1        0.0259
      9 C           3.4846    2.3970   35.5140 C.3     1  UNL1        0.0937
     10 N           3.4442    2.1232   36.9882 N.am    1  UNL1       -0.2795
     11 C           2.7902    3.1041   37.9156 C.2     1  UNL1        0.2251
     12 O           2.7498    2.8303   39.3898 O.2     1  UNL1       -0.2749
     13 C           4.0578    0.8684   37.5350 C.3     1  UNL1        0.0937
     14 C           4.7118   -0.1125   36.6076 C.3     1  UNL1        0.0259
     15 C           2.1766    4.3589   37.3688 C.3     1  UNL1        0.0767
     16 C           0.9876    5.0923   36.8227 C.3     1  UNL1        0.0096
     17 C           2.3028    5.7988   36.9679 C.3     1  UNL1        0.0096
     18 N           6.5382   -4.7877   30.7099 N.am    1  UNL1       -0.1708
     19 C           7.3682   -3.7623   31.4238 C.2     1  UNL1        0.3078
     20 O           8.8522   -3.7178   31.2102 O.2     1  UNL1       -0.2516
     21 H           5.5642   -4.8169   30.8501 H       1  UNL1        0.2545
     22 N           8.4341   -6.4925   30.2110 N.pl3   1  UNL1       -0.1313
     23 C           7.1922   -5.7686   29.7825 C.2     1  UNL1        0.3751
     24 N           6.6043   -6.0255   28.4266 N.pl3   1  UNL1       -0.2906
     25 H           8.8633   -7.1363   29.6023 H       1  UNL1        0.3060
     26 H           7.0335   -6.6693   27.8179 H       1  UNL1        0.2545
     27 H           5.7892   -5.5504   28.1454 H       1  UNL1        0.2545
     28 C           7.6552    0.4605   34.4381 C.3     1  UNL1        0.4183
     29 F           8.4526    1.5910   35.0177 F       1  UNL1       -0.1659
     30 F           8.0257   -0.4011   35.6086 F       1  UNL1       -0.1659
     31 F           7.2846    1.3221   33.2675 F       1  UNL1       -0.1659
@<TRIPOS>BOND
     1    22    23    2
     2    23    24    1
     3    23    18    1
     4    18    19   am
     5    19    20    2
     6    19     1    1
     7     1     2   ar
     8     2     3   ar
     9     3     4   ar
    10     4     7    1
    11     7     8    1
    12     8     9    1
    13     9    10    1
    14    10    11   am
    15    11    12    2
    16    11    15    1
    17    15    16    1
    18    16    17    1
    19    10    13    1
    20    13    14    1
    21     4     5   ar
    22     5    28    1
    23    28    29    1
    24    28    30    1
    25    28    31    1
    26     5     6   ar
    27     6     1   ar
    28    14     7    1
    29    17    15    1
    30    22    25    1
    31    24    26    1
    32    24    27    1
    33    18    21    1
@<TRIPOS>MOLECULE
*****
 31 33 0 0 0
SMALL
GASTEIGER

@<TRIPOS>ATOM
      1 C           6.8574   -4.9062   29.3491 C.ar    1  UNL1        0.0696
      2 C           6.9848   -5.3751   30.7682 C.ar    1  UNL1        0.0057
      3 C           6.8189   -4.4019   31.8975 C.ar    1  UNL1       -0.0041
      4 C           6.5255   -2.9597   31.6077 C.ar    1  UNL1       -0.0185
      5 C           6.3981   -2.4908   30.1887 C.ar    1  UNL1        0.0677
      6 C           6.5640   -3.4640   29.0594 C.ar    1  UNL1        0.0095
      7 C           6.3596   -1.9865   32.7370 C.3     1  UNL1        0.0257
      8 C           5.0063   -1.7675   33.3457 C.3     1  UNL1        0.0259
      9 C           4.8404   -0.7943   34.4750 C.3     1  UNL1        0.0937
     10 N           6.0278   -0.0401   34.9956 N.am    1  UNL1       -0.2795
     11 C           5.8619    0.9332   36.1249 C.2     1  UNL1        0.2251
     12 O           7.0493    1.6874   36.6456 O.2     1  UNL1       -0.2749
     13 C           7.3811   -0.2591   34.3870 C.3     1  UNL1        0.0937
     14 C           7.5470   -1.2323   33.2577 C.3     1  UNL1        0.0259
     15 C           4.5085    1.1522   36.7336 C.3     1  UNL1        0.0767
     16 C           3.5327    0.9198   37.8487 C.3     1  UNL1        0.0096
     17 C           3.1403    1.7639   36.6725 C.3     1  UNL1        0.0096
     18 N           7.8099   -7.1399   28.4255 N.am    1  UNL1       -0.1708
     19 C           7.0233   -5.8794   28.2199 C.2     1  UNL1        0.3078
     20 O           6.4026   -5.5921   26.8849 O.2     1  UNL1       -0.2516
     21 H           8.2173   -7.3285   29.3017 H       1  UNL1        0.2545
     22 N           9.3318   -8.6711   26.9801 N.pl3   1  UNL1       -0.1313
     23 C           7.9758   -8.1131   27.2962 C.2     1  UNL1        0.3751
     24 N           6.7857   -8.5283   26.4830 N.pl3   1  UNL1       -0.2906
     25 H           9.4406   -9.3099   26.2390 H       1  UNL1        0.3060
     26 H           6.8946   -9.1671   25.7418 H       1  UNL1        0.2545
     27 H           5.8957   -8.1621   26.6905 H       1  UNL1        0.2545
     28 C           6.1047   -1.0485   29.8988 C.3     1  UNL1        0.4183
     29 F           5.8114    0.3936   29.6090 F       1  UNL1       -0.1659
     30 F           4.6337   -1.3387   29.9437 F       1  UNL1       -0.1659
     31 F           7.5756   -0.7584   29.8540 F       1  UNL1       -0.1659
@<TRIPOS>BOND
     1    22    23    2
     2    23    24    1
     3    23    18    1
     4    18    19   am
     5    19    20    2
     6    19     1    1
     7     1     2   ar
     8     2     3   ar
     9     3     4   ar
    10     4     7    1
    11     7     8    1
    12     8     9    1
    13     9    10    1
    14    10    11   am
    15    11    12    2
    16    11    15    1
    17    15    16    1
    18    16    17    1
    19    10    13    1
    20    13    14    1
    21     4     5   ar
    22     5    28    1
    23    28    29    1
    24    28    30    1
    25    28    31    1
    26     5     6   ar
    27     6     1   ar
    28    14     7    1
    29    17    15    1
    30    22    25    1
    31    24    26    1
    32    24    27    1
    33    18    21    1
@<TRIPOS>MOLECULE
*****
 31 33 0 0 0
SMALL
GASTEIGER

@<TRIPOS>ATOM
      1 C           7.6498   -5.6375   27.3677 C.ar    1  UNL1        0.0696
      2 C           7.7293   -6.5701   26.1955 C.ar    1  UNL1        0.0057
      3 C           7.5382   -6.0437   24.8040 C.ar    1  UNL1       -0.0041
      4 C           7.2676   -4.5847   24.5846 C.ar    1  UNL1       -0.0185
      5 C           7.1880   -3.6522   25.7567 C.ar    1  UNL1        0.0677
      6 C           7.3791   -4.1786   27.1483 C.ar    1  UNL1        0.0095
      7 C           7.0765   -4.0583   23.1930 C.3     1  UNL1        0.0257
      8 C           5.7031   -3.6980   22.7095 C.3     1  UNL1        0.0259
      9 C           5.5120   -3.1716   21.3180 C.3     1  UNL1        0.0937
     10 N           6.6943   -3.0056   20.4099 N.am    1  UNL1       -0.2795
     11 C           6.5032   -2.4792   19.0184 C.2     1  UNL1        0.2251
     12 O           7.6855   -2.3131   18.1104 O.2     1  UNL1       -0.2749
     13 C           8.0677   -3.3659   20.8935 C.3     1  UNL1        0.0937
     14 C           8.2588   -3.8923   22.2850 C.3     1  UNL1        0.0259
     15 C           5.1298   -2.1188   18.5349 C.3     1  UNL1        0.0767
     16 C           3.6389   -2.2058   18.6749 C.3     1  UNL1        0.0096
     17 C           4.2418   -1.4076   17.5573 C.3     1  UNL1        0.0096
     18 N           7.3768   -5.3581   29.9362 N.am    1  UNL1       -0.1708
     19 C           7.8409   -6.1639   28.7592 C.2     1  UNL1        0.3078
     20 O           8.4960   -7.4961   28.9738 O.2     1  UNL1       -0.2516
     21 H           6.9469   -4.4838   29.7954 H       1  UNL1        0.2545
     22 N           8.8876   -6.4712   31.7330 N.pl3   1  UNL1       -0.1313
     23 C           7.5679   -5.8845   31.3277 C.2     1  UNL1        0.3751
     24 N           6.4393   -5.8243   32.3140 N.pl3   1  UNL1       -0.2906
     25 H           9.0130   -6.8167   32.6464 H       1  UNL1        0.3060
     26 H           6.5647   -6.1698   33.2273 H       1  UNL1        0.2545
     27 H           5.5732   -5.4392   32.0480 H       1  UNL1        0.2545
     28 C           6.9174   -2.1932   25.5374 C.3     1  UNL1        0.4183
     29 F           6.6467   -0.7342   25.3180 F       1  UNL1       -0.1659
     30 F           8.3815   -1.9550   25.3148 F       1  UNL1       -0.1659
     31 F           5.4533   -2.4313   25.7599 F       1  UNL1       -0.1659
@<TRIPOS>BOND
     1    22    23    2
     2    23    24    1
     3    23    18    1
     4    18    19   am
     5    19    20    2
     6    19     1    1
     7     1     2   ar
     8     2     3   ar
     9     3     4   ar
    10     4     7    1
    11     7     8    1
    12     8     9    1
    13     9    10    1
    14    10    11   am
    15    11    12    2
    16    11    15    1
    17    15    16    1
    18    16    17    1
    19    10    13    1
    20    13    14    1
    21     4     5   ar
    22     5    28    1
    23    28    29    1
    24    28    30    1
    25    28    31    1
    26     5     6   ar
    27     6     1   ar
    28    14     7    1
    29    17    15    1
    30    22    25    1
    31    24    26    1
    32    24    27    1
    33    18    21    1
@<TRIPOS>MOLECULE
*****
 31 33 0 0 0
SMALL
GASTEIGER

@<TRIPOS>ATOM
      1 C          -3.3521    3.7145   24.6497 C.ar    1  UNL1        0.0696
      2 C          -3.7252    3.6851   26.1022 C.ar    1  UNL1        0.0057
      3 C          -2.7552    3.1532   27.1152 C.ar    1  UNL1       -0.0041
      4 C          -1.4120    2.6506   26.6756 C.ar    1  UNL1       -0.0185
      5 C          -1.0389    2.6799   25.2231 C.ar    1  UNL1        0.0677
      6 C          -2.0089    3.2119   24.2102 C.ar    1  UNL1        0.0095
      7 C          -0.4420    2.1187   27.6886 C.3     1  UNL1        0.0257
      8 C           0.5557    3.0389   28.3270 C.3     1  UNL1        0.0259
      9 C           1.5257    2.5070   29.3400 C.3     1  UNL1        0.0937
     10 N           1.4980    1.0548   29.7145 N.am    1  UNL1       -0.2795
     11 C           2.4681    0.5228   30.7275 C.2     1  UNL1        0.2251
     12 O           2.4404   -0.9294   31.1020 O.2     1  UNL1       -0.2749
     13 C           0.5003    0.1345   29.0761 C.3     1  UNL1        0.0937
     14 C          -0.4697    0.6665   28.0631 C.3     1  UNL1        0.0259
     15 C           3.4658    1.4431   31.3659 C.3     1  UNL1        0.0767
     16 C           4.7475    2.2191   31.2963 C.3     1  UNL1        0.0096
     17 C           3.9121    2.2610   32.5414 C.3     1  UNL1        0.0096
     18 N          -5.6973    3.6565   23.5333 N.am    1  UNL1       -0.1708
     19 C          -4.3221    4.2464   23.6368 C.2     1  UNL1        0.3078
     20 O          -3.9169    5.3683   22.7273 O.2     1  UNL1       -0.2516
     21 H          -5.9633    2.9202   24.1302 H       1  UNL1        0.2545
     22 N          -8.0676    4.5344   22.9322 N.pl3   1  UNL1       -0.1313
     23 C          -6.6673    4.1885   22.5203 C.2     1  UNL1        0.3751
     24 N          -6.2371    4.3745   21.0954 N.pl3   1  UNL1       -0.2906
     25 H          -8.7042    4.8835   22.2674 H       1  UNL1        0.3060
     26 H          -6.8737    4.7236   20.4305 H       1  UNL1        0.2545
     27 H          -5.3181    4.1475   20.8250 H       1  UNL1        0.2545
     28 C           0.3043    2.1773   24.7835 C.3     1  UNL1        0.4183
     29 F           1.6475    1.6748   24.3439 F       1  UNL1       -0.1659
     30 F          -0.2329    0.7775   24.7424 F       1  UNL1       -0.1659
     31 F           0.8415    3.5772   24.8246 F       1  UNL1       -0.1659
@<TRIPOS>BOND
     1    22    23    2
     2    23    24    1
     3    23    18    1
     4    18    19   am
     5    19    20    2
     6    19     1    1
     7     1     2   ar
     8     2     3   ar
     9     3     4   ar
    10     4     7    1
    11     7     8    1
    12     8     9    1
    13     9    10    1
    14    10    11   am
    15    11    12    2
    16    11    15    1
    17    15    16    1
    18    16    17    1
    19    10    13    1
    20    13    14    1
    21     4     5   ar
    22     5    28    1
    23    28    29    1
    24    28    30    1
    25    28    31    1
    26     5     6   ar
    27     6     1   ar
    28    14     7    1
    29    17    15    1
    30    22    25    1
    31    24    26    1
    32    24    27    1
    33    18    21    1
@<TRIPOS>MOLECULE
*****
 31 33 0 0 0
SMALL
GASTEIGER

@<TRIPOS>ATOM
      1 C           4.7191   -2.4339   23.0744 C.ar    1  UNL1        0.0696
      2 C           4.0603   -1.4946   24.0406 C.ar    1  UNL1        0.0057
      3 C           3.1719   -0.3978   23.5329 C.ar    1  UNL1       -0.0041
      4 C           2.9423   -0.2403   22.0590 C.ar    1  UNL1       -0.0185
      5 C           3.6011   -1.1796   21.0928 C.ar    1  UNL1        0.0677
      6 C           4.4895   -2.2764   21.6005 C.ar    1  UNL1        0.0095
      7 C           2.0539    0.8566   21.5513 C.3     1  UNL1        0.0257
      8 C           0.5934    0.5966   21.3294 C.3     1  UNL1        0.0259
      9 C          -0.2950    1.6934   20.8217 C.3     1  UNL1        0.0937
     10 N           0.2771    3.0502   20.5359 N.am    1  UNL1       -0.2795
     11 C          -0.6113    4.1470   20.0282 C.2     1  UNL1        0.2251
     12 O          -0.0392    5.5038   19.7425 O.2     1  UNL1       -0.2749
     13 C           1.7376    3.3102   20.7578 C.3     1  UNL1        0.0937
     14 C           2.6260    2.2134   21.2655 C.3     1  UNL1        0.0259
     15 C          -2.0718    3.8870   19.8063 C.3     1  UNL1        0.0767
     16 C          -3.2799    3.9368   18.9187 C.3     1  UNL1        0.0096
     17 C          -3.3934    3.3868   20.3096 C.3     1  UNL1        0.0096
     18 N           5.9018   -3.6391   25.0489 N.am    1  UNL1       -0.1708
     19 C           5.6075   -3.5307   23.5820 C.2     1  UNL1        0.3078
     20 O           6.2016   -4.5191   22.6229 O.2     1  UNL1       -0.2516
     21 H           5.5118   -2.9903   25.6784 H       1  UNL1        0.2545
     22 N           6.3609   -5.5664   26.7295 N.pl3   1  UNL1       -0.1313
     23 C           6.7902   -4.7359   25.5565 C.2     1  UNL1        0.3751
     24 N           8.1079   -5.0022   24.8912 N.pl3   1  UNL1       -0.2906
     25 H           6.9440   -6.2862   27.0627 H       1  UNL1        0.3060
     26 H           8.6910   -5.7221   25.2244 H       1  UNL1        0.2545
     27 H           8.3897   -4.4571   24.1213 H       1  UNL1        0.2545
     28 C           3.3715   -1.0221   19.6188 C.3     1  UNL1        0.4183
     29 F           3.1419   -0.8646   18.1449 F       1  UNL1       -0.1659
     30 F           4.5607   -0.1121   19.5307 F       1  UNL1       -0.1659
     31 F           2.1824   -1.9320   19.7068 F       1  UNL1       -0.1659
@<TRIPOS>BOND
     1    22    23    2
     2    23    24    1
     3    23    18    1
     4    18    19   am
     5    19    20    2
     6    19     1    1
     7     1     2   ar
     8     2     3   ar
     9     3     4   ar
    10     4     7    1
    11     7     8    1
    12     8     9    1
    13     9    10    1
    14    10    11   am
    15    11    12    2
    16    11    15    1
    17    15    16    1
    18    16    17    1
    19    10    13    1
    20    13    14    1
    21     4     5   ar
    22     5    28    1
    23    28    29    1
    24    28    30    1
    25    28    31    1
    26     5     6   ar
    27     6     1   ar
    28    14     7    1
    29    17    15    1
    30    22    25    1
    31    24    26    1
    32    24    27    1
    33    18    21    1
@<TRIPOS>MOLECULE
*****
 31 33 0 0 0
SMALL
GASTEIGER

@<TRIPOS>ATOM
      1 C           5.4977   -3.2265   23.1513 C.ar    1  UNL1        0.0696
      2 C           4.7572   -2.1284   23.8554 C.ar    1  UNL1        0.0057
      3 C           4.0123   -1.0969   23.0610 C.ar    1  UNL1       -0.0041
      4 C           4.0078   -1.1635   21.5625 C.ar    1  UNL1       -0.0185
      5 C           4.7483   -2.2617   20.8584 C.ar    1  UNL1        0.0677
      6 C           5.4932   -3.2932   21.6528 C.ar    1  UNL1        0.0095
      7 C           3.2629   -0.1321   20.7681 C.3     1  UNL1        0.0257
      8 C           3.9199    1.1736   20.4311 C.3     1  UNL1        0.0259
      9 C           3.1750    2.2051   19.6367 C.3     1  UNL1        0.0937
     10 N           1.7730    1.9309   19.1793 N.am    1  UNL1       -0.2795
     11 C           1.0281    2.9624   18.3848 C.2     1  UNL1        0.2251
     12 O          -0.3739    2.6883   17.9274 O.2     1  UNL1       -0.2749
     13 C           1.1160    0.6253   19.5162 C.3     1  UNL1        0.0937
     14 C           1.8609   -0.4062   20.3106 C.3     1  UNL1        0.0259
     15 C           1.6851    4.2681   18.0479 C.3     1  UNL1        0.0767
     16 C           1.7597    5.7595   18.1895 C.3     1  UNL1        0.0096
     17 C           2.7486    5.0381   17.3225 C.3     1  UNL1        0.0096
     18 N           6.1408   -4.2697   25.4422 N.am    1  UNL1       -0.1708
     19 C           6.2426   -4.2580   23.9457 C.2     1  UNL1        0.3078
     20 O           7.0893   -5.2779   23.2437 O.2     1  UNL1       -0.2516
     21 H           5.5850   -3.6004   25.9030 H       1  UNL1        0.2545
     22 N           8.3510   -5.5165   25.9991 N.pl3   1  UNL1       -0.1313
     23 C           6.8857   -5.3012   26.2366 C.2     1  UNL1        0.3751
     24 N           6.1652   -6.1174   27.2686 N.pl3   1  UNL1       -0.2906
     25 H           8.8399   -6.1935   26.5205 H       1  UNL1        0.3060
     26 H           6.6541   -6.7944   27.7900 H       1  UNL1        0.2545
     27 H           5.2035   -5.9761   27.4244 H       1  UNL1        0.2545
     28 C           4.7438   -2.3284   19.3599 C.3     1  UNL1        0.4183
     29 F           4.7394   -2.3950   17.8614 F       1  UNL1       -0.1659
     30 F           3.5322   -3.2116   19.4027 F       1  UNL1       -0.1659
     31 F           5.9554   -1.4452   19.3170 F       1  UNL1       -0.1659
@<TRIPOS>BOND
     1    22    23    2
     2    23    24    1
     3    23    18    1
     4    18    19   am
     5    19    20    2
     6    19     1    1
     7     1     2   ar
     8     2     3   ar
     9     3     4   ar
    10     4     7    1
    11     7     8    1
    12     8     9    1
    13     9    10    1
    14    10    11   am
    15    11    12    2
    16    11    15    1
    17    15    16    1
    18    16    17    1
    19    10    13    1
    20    13    14    1
    21     4     5   ar
    22     5    28    1
    23    28    29    1
    24    28    30    1
    25    28    31    1
    26     5     6   ar
    27     6     1   ar
    28    14     7    1
    29    17    15    1
    30    22    25    1
    31    24    26    1
    32    24    27    1
    33    18    21    1
