@<TRIPOS>MOLECULE
*****
 25 24 0 0 0
SMALL
GASTEIGER

@<TRIPOS>ATOM
      1 CA         -6.1647  -19.1729   20.8005 C.3     1  UNL1        0.1677
      2 N          -7.1233  -18.0375   21.0053 N.am    1  UNL1       -0.2801
      3 C          -8.2211  -18.1565   22.0206 C.2     1  UNL1        0.3257
      4 O          -8.3603  -19.4110   22.8310 O.2     1  UNL1       -0.2507
      5 N          -9.1796  -17.0210   22.2254 N.am    1  UNL1       -0.1286
      6 H          -7.0319  -17.2141   20.4734 H       1  UNL1        0.1515
      7 N          -9.0403  -15.7665   21.4148 N.2     1  UNL1        0.0534
      8 O          -7.7573  -14.9903   21.4488 O.2     1  UNL1       -0.1256
      9 C         -10.2774  -17.1400   23.2406 C.3     1  UNL1        0.1414
     10 C         -11.7114  -17.1128   22.8013 C.3     1  UNL1        0.1186
     11 CL        -12.7339  -17.9361   23.5272 Cl      1  UNL1       -0.1118
     12 C          -4.7522  -19.0600   21.2926 C.3     1  UNL1        0.1651
     13 O          -4.4351  -19.3370   22.7323 O.3     1  UNL1       -0.3798
     14 H          -5.2495  -19.5736   23.2030 H       1  UNL1        0.2105
     15 C          -3.6568  -18.6701   20.3449 C.3     1  UNL1        0.1685
     16 O          -3.9767  -17.8690   19.1177 O.3     1  UNL1       -0.3794
     17 H          -4.9293  -17.6887   19.0884 H       1  UNL1        0.2105
     18 C          -2.2416  -19.0814   20.6243 C.3     1  UNL1        0.1689
     19 O          -1.9641  -20.2641   21.5043 O.3     1  UNL1       -0.3794
     20 H          -1.0057  -20.3922   21.5810 H       1  UNL1        0.2105
     21 C          -1.1039  -18.3100   20.0238 C.3     1  UNL1        0.1689
     22 O          -1.1508  -17.9067   18.5797 O.3     1  UNL1       -0.3794
     23 H          -1.1219  -18.6995   18.0215 H       1  UNL1        0.2105
     24 O          -5.8092  -21.6791   20.2154 O.2     1  UNL1       -0.2864
     25 C          -6.6187  -20.4213   20.1038 C.2     1  UNL1        0.2293
@<TRIPOS>BOND
     1    24    25    2
     2    25     1    1
     3     1     2    1
     4     2     3   am
     5     3     4    2
     6     3     5   am
     7     5     9    1
     8     9    10    1
     9    10    11    1
    10     5     7    1
    11     7     8    2
    12     1    12    1
    13    12    13    1
    14    12    15    1
    15    15    16    1
    16    15    18    1
    17    18    19    1
    18    18    21    1
    19    21    22    1
    20     2     6    1
    21    13    14    1
    22    16    17    1
    23    19    20    1
    24    22    23    1
@<TRIPOS>MOLECULE
*****
 25 24 0 0 0
SMALL
GASTEIGER

@<TRIPOS>ATOM
      1 CA         -7.2479  -19.1709   20.4987 C.3     1  UNL1        0.1677
      2 N          -7.3178  -17.8699   21.2419 N.am    1  UNL1       -0.2801
      3 C          -8.0316  -17.7960   22.5592 C.2     1  UNL1        0.3257
      4 O          -8.6754  -19.0232   23.1332 O.2     1  UNL1       -0.2507
      5 N          -8.1015  -16.4949   23.3024 N.am    1  UNL1       -0.1286
      6 H          -6.8952  -17.0644   20.8651 H       1  UNL1        0.1515
      7 N          -7.4577  -15.2677   22.7283 N.2     1  UNL1        0.0534
      8 O          -7.7757  -14.8400   21.3262 O.2     1  UNL1       -0.1256
      9 C          -8.8153  -16.4210   24.6196 C.3     1  UNL1        0.1414
     10 C          -8.2195  -15.6393   25.7526 C.3     1  UNL1        0.1186
     11 CL         -8.2921  -16.1736   27.1524 Cl      1  UNL1       -0.1118
     12 C          -6.0311  -20.0397   20.6204 C.3     1  UNL1        0.1651
     13 O          -6.0726  -21.4601   20.1399 O.3     1  UNL1       -0.3798
     14 H          -6.9527  -21.6546   19.7816 H       1  UNL1        0.2105
     15 C          -4.7729  -19.4881   21.2225 C.3     1  UNL1        0.1685
     16 O          -4.5544  -19.5648   22.7046 O.3     1  UNL1       -0.3794
     17 H          -5.3161  -19.9967   23.1218 H       1  UNL1        0.2105
     18 C          -3.7332  -18.8598   20.3426 C.3     1  UNL1        0.1689
     19 O          -4.1494  -18.0479   19.1519 O.3     1  UNL1       -0.3794
     20 H          -3.3606  -17.7163   18.6950 H       1  UNL1        0.2105
     21 C          -2.2772  -19.0433   20.6534 C.3     1  UNL1        0.1689
     22 O          -1.8255  -20.2251   21.4593 O.3     1  UNL1       -0.3794
     23 H          -2.1763  -20.1548   22.3609 H       1  UNL1        0.2105
     24 O          -9.5571  -18.6812   19.4136 O.2     1  UNL1       -0.2864
     25 C          -8.3946  -19.6032   19.6339 C.2     1  UNL1        0.2293
@<TRIPOS>BOND
     1    24    25    2
     2    25     1    1
     3     1     2    1
     4     2     3   am
     5     3     4    2
     6     3     5   am
     7     5     9    1
     8     9    10    1
     9    10    11    1
    10     5     7    1
    11     7     8    2
    12     1    12    1
    13    12    13    1
    14    12    15    1
    15    15    16    1
    16    15    18    1
    17    18    19    1
    18    18    21    1
    19    21    22    1
    20     2     6    1
    21    13    14    1
    22    16    17    1
    23    19    20    1
    24    22    23    1
@<TRIPOS>MOLECULE
*****
 25 24 0 0 0
SMALL
GASTEIGER

@<TRIPOS>ATOM
      1 CA         -5.1152  -19.3403   21.4795 C.3     1  UNL1        0.1677
      2 N          -6.4006  -19.6166   22.2015 N.am    1  UNL1       -0.2801
      3 C          -7.5172  -18.6161   22.1546 C.2     1  UNL1        0.3257
      4 O          -7.3484  -17.3393   21.3857 O.2     1  UNL1       -0.2507
      5 N          -8.8027  -18.8924   22.8765 N.am    1  UNL1       -0.1286
      6 H          -6.5114  -20.4547   22.7061 H       1  UNL1        0.1515
      7 N          -8.9715  -20.1693   23.6454 N.2     1  UNL1        0.0534
      8 O          -9.6493  -20.1550   24.9835 O.2     1  UNL1       -0.1256
      9 C          -9.9193  -17.8919   22.8297 C.3     1  UNL1        0.1414
     10 C         -11.3035  -18.3300   22.4530 C.3     1  UNL1        0.1186
     11 CL        -12.3690  -18.4347   23.5037 Cl      1  UNL1       -0.1118
     12 C          -3.9859  -18.6579   22.1930 C.3     1  UNL1        0.1651
     13 O          -4.2626  -17.8191   23.4054 O.3     1  UNL1       -0.3798
     14 H          -5.2147  -17.8234   23.5911 H       1  UNL1        0.2105
     15 C          -2.5800  -18.8143   21.6942 C.3     1  UNL1        0.1685
     16 O          -1.9425  -20.1717   21.6613 O.3     1  UNL1       -0.3794
     17 H          -2.5704  -20.8320   21.9939 H       1  UNL1        0.2105
     18 C          -1.8115  -17.6133   21.2283 C.3     1  UNL1        0.1689
     19 O          -1.8479  -16.3437   22.0263 O.3     1  UNL1       -0.3794
     20 H          -1.3019  -15.6714   21.5893 H       1  UNL1        0.2105
     21 C          -1.0067  -17.6819   19.9643 C.3     1  UNL1        0.1689
     22 O           0.0194  -18.7616   19.7862 O.3     1  UNL1       -0.3794
     23 H           0.7357  -18.6360   20.4281 H       1  UNL1        0.2105
     24 O          -4.0871  -20.9131   19.6853 O.2     1  UNL1       -0.2864
     25 C          -4.9589  -19.7464   20.0440 C.2     1  UNL1        0.2293
@<TRIPOS>BOND
     1    24    25    2
     2    25     1    1
     3     1     2    1
     4     2     3   am
     5     3     4    2
     6     3     5   am
     7     5     9    1
     8     9    10    1
     9    10    11    1
    10     5     7    1
    11     7     8    2
    12     1    12    1
    13    12    13    1
    14    12    15    1
    15    15    16    1
    16    15    18    1
    17    18    19    1
    18    18    21    1
    19    21    22    1
    20     2     6    1
    21    13    14    1
    22    16    17    1
    23    19    20    1
    24    22    23    1
@<TRIPOS>MOLECULE
*****
 25 24 0 0 0
SMALL
GASTEIGER

@<TRIPOS>ATOM
      1 CA         -5.1390  -19.0325   22.0440 C.3     1  UNL1        0.1677
      2 N          -6.5012  -19.4456   22.5171 N.am    1  UNL1       -0.2801
      3 C          -7.6978  -18.6044   22.1844 C.2     1  UNL1        0.3257
      4 O          -7.5322  -17.3501   21.3786 O.2     1  UNL1       -0.2507
      5 N          -9.0599  -19.0175   22.6576 N.am    1  UNL1       -0.1286
      6 H          -6.6099  -20.2688   23.0460 H       1  UNL1        0.1515
      7 N          -9.2255  -20.2718   23.4635 N.2     1  UNL1        0.0534
      8 O          -9.6403  -20.1894   24.9026 O.2     1  UNL1       -0.1256
      9 C         -10.2565  -18.1764   22.3249 C.3     1  UNL1        0.1414
     10 C         -10.6651  -17.0589   23.2383 C.3     1  UNL1        0.1186
     11 CL         -9.6721  -16.4739   24.1985 Cl      1  UNL1       -0.1118
     12 C          -4.6188  -19.5314   20.7285 C.3     1  UNL1        0.1651
     13 O          -5.1819  -20.7842   20.1257 O.3     1  UNL1       -0.3798
     14 H          -5.8678  -21.1440   20.7097 H       1  UNL1        0.2105
     15 C          -3.5353  -18.7776   20.0159 C.3     1  UNL1        0.1685
     16 O          -3.8912  -17.7592   18.9735 O.3     1  UNL1       -0.3794
     17 H          -4.8558  -17.7120   18.8836 H       1  UNL1        0.2105
     18 C          -2.0961  -19.0420   20.3455 C.3     1  UNL1        0.1689
     19 O          -1.7335  -20.1575   21.2806 O.3     1  UNL1       -0.3794
     20 H          -0.7698  -20.1914   21.3851 H       1  UNL1        0.2105
     21 C          -1.0194  -18.1909   19.7402 C.3     1  UNL1        0.1689
     22 O          -1.0432  -17.8832   18.2722 O.3     1  UNL1       -0.3794
     23 H          -0.9065  -18.7006   17.7682 H       1  UNL1        0.2105
     24 O          -4.7685  -16.7282   23.1853 O.2     1  UNL1       -0.2864
     25 C          -4.2972  -18.1205   22.8862 C.2     1  UNL1        0.2293
@<TRIPOS>BOND
     1    24    25    2
     2    25     1    1
     3     1     2    1
     4     2     3   am
     5     3     4    2
     6     3     5   am
     7     5     9    1
     8     9    10    1
     9    10    11    1
    10     5     7    1
    11     7     8    2
    12     1    12    1
    13    12    13    1
    14    12    15    1
    15    15    16    1
    16    15    18    1
    17    18    19    1
    18    18    21    1
    19    21    22    1
    20     2     6    1
    21    13    14    1
    22    16    17    1
    23    19    20    1
    24    22    23    1
@<TRIPOS>MOLECULE
*****
 25 24 0 0 0
SMALL
GASTEIGER

@<TRIPOS>ATOM
      1 CA         -5.0963  -19.1442   21.5584 C.3     1  UNL1        0.1677
      2 N          -6.2208  -18.1515   21.5567 N.am    1  UNL1       -0.2801
      3 C          -7.5683  -18.5437   22.0865 C.2     1  UNL1        0.3257
      4 O          -7.7912  -19.9285   22.6180 O.2     1  UNL1       -0.2507
      5 N          -8.6928  -17.5509   22.0849 N.am    1  UNL1       -0.1286
      6 H          -6.0745  -17.2426   21.2078 H       1  UNL1        0.1515
      7 N          -8.4698  -16.1660   21.5533 N.2     1  UNL1        0.0534
      8 O          -7.3684  -15.3159   22.1138 O.2     1  UNL1       -0.1256
      9 C         -10.0402  -17.9430   22.6147 C.3     1  UNL1        0.1414
     10 C         -11.0488  -18.5773   21.7035 C.3     1  UNL1        0.1186
     11 CL        -11.0152  -20.0574   21.4619 Cl      1  UNL1       -0.1118
     12 C          -3.8432  -18.8567   22.3311 C.3     1  UNL1        0.1651
     13 O          -3.9272  -18.4541   23.7735 O.3     1  UNL1       -0.3798
     14 H          -4.8571  -18.4280   24.0483 H       1  UNL1        0.2105
     15 C          -2.5060  -18.9717   21.6612 C.3     1  UNL1        0.1685
     16 O          -1.9121  -20.3241   21.3995 O.3     1  UNL1       -0.3794
     17 H          -2.5164  -21.0106   21.7226 H       1  UNL1        0.2105
     18 C          -1.7627  -17.7345   21.2530 C.3     1  UNL1        0.1689
     19 O          -1.8489  -16.4957   22.0946 O.3     1  UNL1       -0.3794
     20 H          -1.3138  -15.7937   21.6924 H       1  UNL1        0.2105
     21 C          -0.9333  -17.7358   20.0032 C.3     1  UNL1        0.1689
     22 O           0.0785  -18.8197   19.7757 O.3     1  UNL1       -0.3794
     23 H           0.7833  -18.7483   20.4382 H       1  UNL1        0.2105
     24 O          -4.2763  -20.7222   19.6644 O.2     1  UNL1       -0.2864
     25 C          -5.2250  -20.4245   20.7875 C.2     1  UNL1        0.2293
@<TRIPOS>BOND
     1    24    25    2
     2    25     1    1
     3     1     2    1
     4     2     3   am
     5     3     4    2
     6     3     5   am
     7     5     9    1
     8     9    10    1
     9    10    11    1
    10     5     7    1
    11     7     8    2
    12     1    12    1
    13    12    13    1
    14    12    15    1
    15    15    16    1
    16    15    18    1
    17    18    19    1
    18    18    21    1
    19    21    22    1
    20     2     6    1
    21    13    14    1
    22    16    17    1
    23    19    20    1
    24    22    23    1
@<TRIPOS>MOLECULE
*****
 25 24 0 0 0
SMALL
GASTEIGER

@<TRIPOS>ATOM
      1 CA        -10.1357  -18.5499   23.1063 C.3     1  UNL1        0.1677
      2 N          -8.7518  -17.9719   23.0755 N.am    1  UNL1       -0.2801
      3 C          -7.6318  -18.7412   22.4400 C.2     1  UNL1        0.3257
      4 O          -7.8956  -20.0882   21.8353 O.2     1  UNL1       -0.2507
      5 N          -6.2479  -18.1632   22.4092 N.am    1  UNL1       -0.1286
      6 H          -8.5787  -17.0878   23.4724 H       1  UNL1        0.1515
      7 N          -5.9841  -16.8161   23.0140 N.2     1  UNL1        0.0534
      8 O          -6.9592  -15.6958   22.8040 O.2     1  UNL1       -0.1256
      9 C          -5.1279  -18.9324   21.7737 C.3     1  UNL1        0.1414
     10 C          -3.8257  -19.0984   22.4995 C.3     1  UNL1        0.1186
     11 CL         -2.6443  -19.6950   21.7934 Cl      1  UNL1       -0.1118
     12 C         -10.9249  -18.6744   21.8367 C.3     1  UNL1        0.1651
     13 O         -10.9493  -19.9771   21.0936 O.3     1  UNL1       -0.3798
     14 H         -10.4076  -20.6288   21.5656 H       1  UNL1        0.2105
     15 C         -11.6896  -17.4962   21.3103 C.3     1  UNL1        0.1685
     16 O         -13.1882  -17.5369   21.2593 O.3     1  UNL1       -0.3794
     17 H         -13.5004  -18.3894   21.6009 H       1  UNL1        0.2105
     18 C         -10.9557  -16.2774   20.8350 C.3     1  UNL1        0.1689
     19 O          -9.9421  -15.6184   21.7230 O.3     1  UNL1       -0.3794
     20 H          -9.5638  -14.8503   21.2672 H       1  UNL1        0.2105
     21 C         -11.2355  -15.7176   19.4719 C.3     1  UNL1        0.1689
     22 O         -12.6483  -15.4425   19.0495 O.3     1  UNL1       -0.3794
     23 H         -13.1350  -16.2791   18.9844 H       1  UNL1        0.2105
     24 O          -9.9730  -19.9523   25.2872 O.2     1  UNL1       -0.2864
     25 C         -10.7304  -19.0032   24.4066 C.2     1  UNL1        0.2293
@<TRIPOS>BOND
     1    24    25    2
     2    25     1    1
     3     1     2    1
     4     2     3   am
     5     3     4    2
     6     3     5   am
     7     5     9    1
     8     9    10    1
     9    10    11    1
    10     5     7    1
    11     7     8    2
    12     1    12    1
    13    12    13    1
    14    12    15    1
    15    15    16    1
    16    15    18    1
    17    18    19    1
    18    18    21    1
    19    21    22    1
    20     2     6    1
    21    13    14    1
    22    16    17    1
    23    19    20    1
    24    22    23    1
@<TRIPOS>MOLECULE
*****
 25 24 0 0 0
SMALL
GASTEIGER

@<TRIPOS>ATOM
      1 CA         -5.1938  -18.5225   21.9736 C.3     1  UNL1        0.1677
      2 N          -6.5283  -17.8589   21.8039 N.am    1  UNL1       -0.2801
      3 C          -7.7877  -18.6259   22.0791 C.2     1  UNL1        0.3257
      4 O          -7.7126  -20.0564   22.5239 O.2     1  UNL1       -0.2507
      5 N          -9.1222  -17.9623   21.9095 N.am    1  UNL1       -0.1286
      6 H          -6.5776  -16.9200   21.5120 H       1  UNL1        0.1515
      7 N          -9.1972  -16.5316   21.4647 N.2     1  UNL1        0.0534
      8 O          -8.0664  -15.5928   21.7644 O.2     1  UNL1       -0.1256
      9 C         -10.3816  -18.7292   22.1847 C.3     1  UNL1        0.1414
     10 C         -11.4826  -18.7535   21.1663 C.3     1  UNL1        0.1186
     11 CL        -12.6432  -17.8118   21.2939 Cl      1  UNL1       -0.1118
     12 C          -4.6118  -19.3336   20.8539 C.3     1  UNL1        0.1651
     13 O          -5.1234  -20.7180   20.5861 O.3     1  UNL1       -0.3798
     14 H          -5.8235  -20.9327   21.2222 H       1  UNL1        0.2105
     15 C          -3.5183  -18.7603   20.0022 C.3     1  UNL1        0.1685
     16 O          -3.8595  -17.8878   18.8306 O.3     1  UNL1       -0.3794
     17 H          -4.8229  -17.7963   18.7654 H       1  UNL1        0.2105
     18 C          -2.0837  -19.0594   20.3220 C.3     1  UNL1        0.1689
     19 O          -1.7419  -20.1799   21.2589 O.3     1  UNL1       -0.3794
     20 H          -0.7785  -20.2375   21.3562 H       1  UNL1        0.2105
     21 C          -0.9907  -18.2380   19.7049 C.3     1  UNL1        0.1689
     22 O          -1.0363  -17.9061   18.2427 O.3     1  UNL1       -0.3794
     23 H          -0.9409  -18.7198   17.7234 H       1  UNL1        0.2105
     24 O          -4.3652  -17.0379   23.9380 O.2     1  UNL1       -0.2864
     25 C          -4.4413  -18.3751   23.2627 C.2     1  UNL1        0.2293
@<TRIPOS>BOND
     1    24    25    2
     2    25     1    1
     3     1     2    1
     4     2     3   am
     5     3     4    2
     6     3     5   am
     7     5     9    1
     8     9    10    1
     9    10    11    1
    10     5     7    1
    11     7     8    2
    12     1    12    1
    13    12    13    1
    14    12    15    1
    15    15    16    1
    16    15    18    1
    17    18    19    1
    18    18    21    1
    19    21    22    1
    20     2     6    1
    21    13    14    1
    22    16    17    1
    23    19    20    1
    24    22    23    1
@<TRIPOS>MOLECULE
*****
 25 24 0 0 0
SMALL
GASTEIGER

@<TRIPOS>ATOM
      1 CA        -10.0420  -18.6072   23.0913 C.3     1  UNL1        0.1677
      2 N          -8.5929  -18.2302   23.0015 N.am    1  UNL1       -0.2801
      3 C          -8.1123  -16.9476   23.6133 C.2     1  UNL1        0.3257
      4 O          -9.0807  -16.0422   24.3148 O.2     1  UNL1       -0.2507
      5 N          -6.6632  -16.5706   23.5235 N.am    1  UNL1       -0.1286
      6 H          -7.9573  -18.8245   22.5411 H       1  UNL1        0.1515
      7 N          -5.6947  -17.4762   22.8219 N.2     1  UNL1        0.0534
      8 O          -6.1145  -18.2054   21.5801 O.2     1  UNL1       -0.1256
      9 C          -6.1826  -15.2882   24.1352 C.3     1  UNL1        0.1414
     10 C          -5.5946  -15.2895   25.5152 C.3     1  UNL1        0.1186
     11 CL         -6.4717  -15.5503   26.7039 Cl      1  UNL1       -0.1118
     12 C         -10.9408  -18.4187   21.9053 C.3     1  UNL1        0.1651
     13 O         -11.2228  -19.5710   20.9873 O.3     1  UNL1       -0.3798
     14 H         -10.7500  -20.3577   21.3013 H       1  UNL1        0.2105
     15 C         -11.5577  -17.0780   21.6373 C.3     1  UNL1        0.1685
     16 O         -12.8984  -16.7395   22.2189 O.3     1  UNL1       -0.3794
     17 H         -13.2249  -17.4913   22.7376 H       1  UNL1        0.2105
     18 C         -10.8341  -16.0757   20.7878 C.3     1  UNL1        0.1689
     19 O          -9.5587  -15.4575   21.2792 O.3     1  UNL1       -0.3794
     20 H          -9.2232  -14.8363   20.6141 H       1  UNL1        0.2105
     21 C         -11.3857  -15.6916   19.4468 C.3     1  UNL1        0.1689
     22 O         -12.8693  -15.6050   19.2430 O.3     1  UNL1       -0.3794
     23 H         -13.2600  -16.4884   19.3322 H       1  UNL1        0.2105
     24 O          -9.7373  -20.0568   25.2256 O.2     1  UNL1       -0.2864
     25 C         -10.5922  -19.1726   24.3671 C.2     1  UNL1        0.2293
@<TRIPOS>BOND
     1    24    25    2
     2    25     1    1
     3     1     2    1
     4     2     3   am
     5     3     4    2
     6     3     5   am
     7     5     9    1
     8     9    10    1
     9    10    11    1
    10     5     7    1
    11     7     8    2
    12     1    12    1
    13    12    13    1
    14    12    15    1
    15    15    16    1
    16    15    18    1
    17    18    19    1
    18    18    21    1
    19    21    22    1
    20     2     6    1
    21    13    14    1
    22    16    17    1
    23    19    20    1
    24    22    23    1
@<TRIPOS>MOLECULE
*****
 25 24 0 0 0
SMALL
GASTEIGER

@<TRIPOS>ATOM
      1 CA         -8.2523  -18.3232   21.3538 C.3     1  UNL1        0.1677
      2 N          -6.9466  -18.2686   20.6175 N.am    1  UNL1       -0.2801
      3 C          -5.8357  -19.2051   20.9902 C.2     1  UNL1        0.3257
      4 O          -6.0304  -20.1962   22.0991 O.2     1  UNL1       -0.2507
      5 N          -4.5299  -19.1504   20.2539 N.am    1  UNL1       -0.1286
      6 H          -6.8188  -17.6181   19.8896 H       1  UNL1        0.1515
      7 N          -4.3352  -18.1593   19.1449 N.2     1  UNL1        0.0534
      8 O          -3.2072  -17.1727   19.2103 O.2     1  UNL1       -0.1256
      9 C          -3.4190  -20.0868   20.6265 C.3     1  UNL1        0.1414
     10 C          -2.5548  -19.7896   21.8159 C.3     1  UNL1        0.1186
     11 CL         -1.8059  -18.4922   21.8934 Cl      1  UNL1       -0.1118
     12 C          -8.4683  -17.4617   22.5626 C.3     1  UNL1        0.1651
     13 O          -9.0127  -18.0628   23.8244 O.3     1  UNL1       -0.3798
     14 H          -9.1695  -19.0105   23.6896 H       1  UNL1        0.2105
     15 C          -8.1400  -15.9990   22.5095 C.3     1  UNL1        0.1685
     16 O          -8.6889  -15.1468   21.4038 O.3     1  UNL1       -0.3794
     17 H          -9.2316  -15.6929   20.8137 H       1  UNL1        0.2105
     18 C          -7.2627  -15.3886   23.5619 C.3     1  UNL1        0.1689
     19 O          -7.5977  -14.0405   24.1282 O.3     1  UNL1       -0.3794
     20 H          -6.9344  -13.7947   24.7919 H       1  UNL1        0.2105
     21 C          -6.0505  -16.1262   24.0482 C.3     1  UNL1        0.1689
     22 O          -4.9938  -16.5566   23.0745 O.3     1  UNL1       -0.3794
     23 H          -5.3601  -17.2245   22.4740 H       1  UNL1        0.2105
     24 O         -10.3669  -19.7483   21.8511 O.2     1  UNL1       -0.2864
     25 C          -9.3420  -19.2394   20.8813 C.2     1  UNL1        0.2293
@<TRIPOS>BOND
     1    24    25    2
     2    25     1    1
     3     1     2    1
     4     2     3   am
     5     3     4    2
     6     3     5   am
     7     5     9    1
     8     9    10    1
     9    10    11    1
    10     5     7    1
    11     7     8    2
    12     1    12    1
    13    12    13    1
    14    12    15    1
    15    15    16    1
    16    15    18    1
    17    18    19    1
    18    18    21    1
    19    21    22    1
    20     2     6    1
    21    13    14    1
    22    16    17    1
    23    19    20    1
    24    22    23    1
