@<TRIPOS>MOLECULE
*****
 26 29 0 0 0
SMALL
GASTEIGER

@<TRIPOS>ATOM
      1 C          -4.5894  -18.9129   21.2934 C.ar    1  UNL1        0.1535
      2 C          -5.4123  -19.8520   20.4623 C.ar    1  UNL1        0.1332
      3 N          -6.9066  -19.8552   20.5920 N.ar    1  UNL1       -0.2393
      4 C          -7.5780  -18.9192   21.5528 C.ar    1  UNL1        0.1013
      5 C          -6.7551  -17.9800   22.3839 C.ar    1  UNL1        0.1018
      6 N          -5.2608  -17.9769   22.2542 N.ar    1  UNL1       -0.2274
      7 C          -9.0725  -18.9224   21.6825 C.ar    1  UNL1        0.0497
      8 C          -9.9014  -18.0098   20.8281 C.ar    1  UNL1        0.0245
      9 C         -11.3957  -18.0130   20.9577 C.ar    1  UNL1        0.0991
     10 N         -12.0613  -18.9288   21.9418 N.ar    1  UNL1       -0.2400
     11 C         -11.2324  -19.8414   22.7963 C.ar    1  UNL1        0.1285
     12 C          -9.7379  -19.8382   22.6666 C.ar    1  UNL1        0.1606
     13 F          -8.9090  -20.7508   23.5210 F       1  UNL1       -0.2025
     14 C          -7.4266  -17.0441   23.3447 C.ar    1  UNL1        0.0384
     15 C          -8.4595  -17.5638   24.3001 C.ar    1  UNL1        0.0047
     16 C          -9.1309  -16.6278   25.2609 C.ar    1  UNL1        0.0207
     17 C          -8.7694  -15.1721   25.2662 C.ar    1  UNL1        0.0989
     18 N          -7.7365  -14.6523   24.3108 N.ar    1  UNL1       -0.2423
     19 C          -7.0651  -15.5883   23.3500 C.ar    1  UNL1        0.1004
     20 O          -3.2619  -17.1244   19.2836 O.2     1  UNL1       -0.2747
     21 C          -2.4312  -18.0154   20.1589 C.2     1  UNL1        0.2267
     22 N          -3.0949  -18.9097   21.1637 N.am    1  UNL1       -0.2681
     23 H          -2.5497  -19.4945   21.7382 H       1  UNL1        0.1563
     24 C          -0.9368  -18.0122   20.0292 C.3     1  UNL1        0.0769
     25 C           0.3461  -18.7446   19.7690 C.3     1  UNL1        0.0096
     26 C           0.3686  -17.2743   20.0648 C.3     1  UNL1        0.0096
@<TRIPOS>BOND
     1    20    21    2
     2    21    22   am
     3    22     1    1
     4     1     2   ar
     5     2     3   ar
     6     3     4   ar
     7     4     7    1
     8     7     8   ar
     9     8     9   ar
    10     9    10   ar
    11    10    11   ar
    12    11    12   ar
    13    12    13    1
    14     4     5   ar
    15     5    14    1
    16    14    15   ar
    17    15    16   ar
    18    16    17   ar
    19    17    18   ar
    20    18    19   ar
    21     5     6   ar
    22    21    24    1
    23    24    25    1
    24    25    26    1
    25     6     1   ar
    26    26    24    1
    27    12     7   ar
    28    19    14   ar
    29    22    23    1
@<TRIPOS>MOLECULE
*****
 26 29 0 0 0
SMALL
GASTEIGER

@<TRIPOS>ATOM
      1 C          -6.3153  -18.6943   20.6906 C.ar    1  UNL1        0.1535
      2 C          -7.5103  -19.1324   19.8969 C.ar    1  UNL1        0.1332
      3 N          -8.8927  -18.8308   20.3946 N.ar    1  UNL1       -0.2393
      4 C          -9.0802  -18.0911   21.6860 C.ar    1  UNL1        0.1013
      5 C          -7.8852  -17.6530   22.4797 C.ar    1  UNL1        0.1018
      6 N          -6.5027  -17.9547   21.9820 N.ar    1  UNL1       -0.2274
      7 C         -10.4628  -17.7895   22.1837 C.ar    1  UNL1        0.0497
      8 C         -11.2061  -18.8078   22.9964 C.ar    1  UNL1        0.0245
      9 C         -12.5886  -18.5063   23.4941 C.ar    1  UNL1        0.0991
     10 N         -13.2278  -17.1864   23.1790 N.ar    1  UNL1       -0.2400
     11 C         -12.4846  -16.1680   22.3663 C.ar    1  UNL1        0.1285
     12 C         -11.1020  -16.4696   21.8686 C.ar    1  UNL1        0.1606
     13 F         -10.3587  -15.4513   21.0559 F       1  UNL1       -0.2025
     14 C          -8.0727  -16.9134   23.7711 C.ar    1  UNL1        0.0384
     15 C          -8.7291  -17.5929   24.9361 C.ar    1  UNL1        0.0047
     16 C          -8.9166  -16.8532   26.2275 C.ar    1  UNL1        0.0207
     17 C          -8.4476  -15.4340   26.3539 C.ar    1  UNL1        0.0989
     18 N          -7.7912  -14.7545   25.1889 N.ar    1  UNL1       -0.2423
     19 C          -7.6037  -15.4942   23.8975 C.ar    1  UNL1        0.1004
     20 O          -3.9331  -17.4801   22.0511 O.2     1  UNL1       -0.2747
     21 C          -3.7417  -18.3888   20.8731 C.2     1  UNL1        0.2267
     22 N          -4.9327  -18.9959   20.1929 N.am    1  UNL1       -0.2681
     23 H          -4.8070  -19.5924   19.4198 H       1  UNL1        0.1563
     24 C          -2.3591  -18.6904   20.3754 C.3     1  UNL1        0.0769
     25 C          -1.1380  -19.5615   20.3803 C.3     1  UNL1        0.0096
     26 C          -1.1856  -18.3417   19.5086 C.3     1  UNL1        0.0096
@<TRIPOS>BOND
     1    20    21    2
     2    21    22   am
     3    22     1    1
     4     1     2   ar
     5     2     3   ar
     6     3     4   ar
     7     4     7    1
     8     7     8   ar
     9     8     9   ar
    10     9    10   ar
    11    10    11   ar
    12    11    12   ar
    13    12    13    1
    14     4     5   ar
    15     5    14    1
    16    14    15   ar
    17    15    16   ar
    18    16    17   ar
    19    17    18   ar
    20    18    19   ar
    21     5     6   ar
    22    21    24    1
    23    24    25    1
    24    25    26    1
    25     6     1   ar
    26    26    24    1
    27    12     7   ar
    28    19    14   ar
    29    22    23    1
@<TRIPOS>MOLECULE
*****
 26 29 0 0 0
SMALL
GASTEIGER

@<TRIPOS>ATOM
      1 C           2.9461    0.5369   23.2905 C.ar    1  UNL1        0.1535
      2 C           3.5514    1.7693   22.6865 C.ar    1  UNL1        0.1332
      3 N           4.3505    1.6695   21.4211 N.ar    1  UNL1       -0.2393
      4 C           4.5444    0.3372   20.7596 C.ar    1  UNL1        0.1013
      5 C           3.9391   -0.8952   21.3636 C.ar    1  UNL1        0.1018
      6 N           3.1399   -0.7953   22.6290 N.ar    1  UNL1       -0.2274
      7 C           5.3435    0.2374   19.4941 C.ar    1  UNL1        0.0497
      8 C           6.8296    0.0438   19.5589 C.ar    1  UNL1        0.0245
      9 C           7.6288   -0.0561   18.2935 C.ar    1  UNL1        0.0991
     10 N           6.9419    0.0377   16.9632 N.ar    1  UNL1       -0.2400
     11 C           5.4559    0.2313   16.8984 C.ar    1  UNL1        0.1285
     12 C           4.6567    0.3312   18.1640 C.ar    1  UNL1        0.1606
     13 F           3.1706    0.5248   18.0992 F       1  UNL1       -0.2025
     14 C           4.1329   -2.2274   20.7021 C.ar    1  UNL1        0.0384
     15 C           3.1629   -2.6944   19.6576 C.ar    1  UNL1        0.0047
     16 C           3.3568   -4.0267   18.9962 C.ar    1  UNL1        0.0207
     17 C           4.5206   -4.8919   19.3792 C.ar    1  UNL1        0.0989
     18 N           5.4906   -4.4249   20.4237 N.ar    1  UNL1       -0.2423
     19 C           5.2968   -3.0927   21.0851 C.ar    1  UNL1        0.1004
     20 O           0.2830    1.9183   23.2779 O.2     1  UNL1       -0.2747
     21 C           0.8154    1.3274   24.5496 C.2     1  UNL1        0.2267
     22 N           2.1469    0.6368   24.5560 N.am    1  UNL1       -0.2681
     23 H           2.4963    0.2490   25.3907 H       1  UNL1        0.1563
     24 C           0.0162    1.4272   25.8152 C.3     1  UNL1        0.0769
     25 C          -0.2940    0.9354   27.1978 C.3     1  UNL1        0.0096
     26 C          -1.0577    2.0920   26.6243 C.3     1  UNL1        0.0096
@<TRIPOS>BOND
     1    20    21    2
     2    21    22   am
     3    22     1    1
     4     1     2   ar
     5     2     3   ar
     6     3     4   ar
     7     4     7    1
     8     7     8   ar
     9     8     9   ar
    10     9    10   ar
    11    10    11   ar
    12    11    12   ar
    13    12    13    1
    14     4     5   ar
    15     5    14    1
    16    14    15   ar
    17    15    16   ar
    18    16    17   ar
    19    17    18   ar
    20    18    19   ar
    21     5     6   ar
    22    21    24    1
    23    24    25    1
    24    25    26    1
    25     6     1   ar
    26    26    24    1
    27    12     7   ar
    28    19    14   ar
    29    22    23    1
@<TRIPOS>MOLECULE
*****
 26 29 0 0 0
SMALL
GASTEIGER

@<TRIPOS>ATOM
      1 C           4.1443   -1.7282   24.7177 C.ar    1  UNL1        0.1535
      2 C           5.3755   -2.5031   24.3520 C.ar    1  UNL1        0.1332
      3 N           5.8565   -2.5200   22.9313 N.ar    1  UNL1       -0.2393
      4 C           5.1063   -1.7621   21.8764 C.ar    1  UNL1        0.1013
      5 C           3.8752   -0.9873   22.2421 C.ar    1  UNL1        0.1018
      6 N           3.3941   -0.9703   23.6627 N.ar    1  UNL1       -0.2274
      7 C           5.5874   -1.7791   20.4557 C.ar    1  UNL1        0.0497
      8 C           6.6650   -0.8321   20.0174 C.ar    1  UNL1        0.0245
      9 C           7.1461   -0.8491   18.5968 C.ar    1  UNL1        0.0991
     10 N           6.5496   -1.8130   17.6143 N.ar    1  UNL1       -0.2400
     11 C           5.4721   -2.7599   18.0526 C.ar    1  UNL1        0.1285
     12 C           4.9910   -2.7430   19.4733 C.ar    1  UNL1        0.1606
     13 F           3.9134   -3.6899   19.9116 F       1  UNL1       -0.2025
     14 C           3.1250   -0.2294   21.1872 C.ar    1  UNL1        0.0384
     15 C           1.9454   -0.8588   20.5074 C.ar    1  UNL1        0.0047
     16 C           1.1953   -0.1009   19.4524 C.ar    1  UNL1        0.0207
     17 C           1.6248    1.2864   19.0773 C.ar    1  UNL1        0.0989
     18 N           2.8044    1.9159   19.7571 N.ar    1  UNL1       -0.2423
     19 C           3.5546    1.1580   20.8120 C.ar    1  UNL1        0.1004
     20 O           4.5012    0.7347   26.3930 O.2     1  UNL1       -0.2747
     21 C           3.8417   -0.4798   26.9760 C.2     1  UNL1        0.2267
     22 N           3.6632   -1.7112   26.1384 N.am    1  UNL1       -0.2681
     23 H           3.2303   -2.5084   26.5211 H       1  UNL1        0.1563
     24 C           3.3606   -0.4628   28.3967 C.3     1  UNL1        0.0769
     25 C           2.2339   -0.4281   29.3863 C.3     1  UNL1        0.0096
     26 C           3.6540   -0.4681   29.8677 C.3     1  UNL1        0.0096
@<TRIPOS>BOND
     1    20    21    2
     2    21    22   am
     3    22     1    1
     4     1     2   ar
     5     2     3   ar
     6     3     4   ar
     7     4     7    1
     8     7     8   ar
     9     8     9   ar
    10     9    10   ar
    11    10    11   ar
    12    11    12   ar
    13    12    13    1
    14     4     5   ar
    15     5    14    1
    16    14    15   ar
    17    15    16   ar
    18    16    17   ar
    19    17    18   ar
    20    18    19   ar
    21     5     6   ar
    22    21    24    1
    23    24    25    1
    24    25    26    1
    25     6     1   ar
    26    26    24    1
    27    12     7   ar
    28    19    14   ar
    29    22    23    1
@<TRIPOS>MOLECULE
*****
 26 29 0 0 0
SMALL
GASTEIGER

@<TRIPOS>ATOM
      1 C           6.5668   -4.3810   24.8703 C.ar    1  UNL1        0.1535
      2 C           7.3677   -5.1528   23.8639 C.ar    1  UNL1        0.1332
      3 N           7.3802   -4.7233   22.4268 N.ar    1  UNL1       -0.2393
      4 C           6.5919   -3.5221   21.9961 C.ar    1  UNL1        0.1013
      5 C           5.7910   -2.7502   23.0025 C.ar    1  UNL1        0.1018
      6 N           5.7785   -3.1797   24.4396 N.ar    1  UNL1       -0.2274
      7 C           6.6044   -3.0926   20.5588 C.ar    1  UNL1        0.0497
      8 C           7.7287   -2.2469   20.0386 C.ar    1  UNL1        0.0245
      9 C           7.7413   -1.8175   18.6015 C.ar    1  UNL1        0.0991
     10 N           6.6295   -2.2337   17.6845 N.ar    1  UNL1       -0.2400
     11 C           5.5052   -3.0794   18.2048 C.ar    1  UNL1        0.1285
     12 C           5.4926   -3.5088   19.6420 C.ar    1  UNL1        0.1606
     13 F           4.3683   -4.3545   20.1623 F       1  UNL1       -0.2025
     14 C           5.0027   -1.5490   22.5718 C.ar    1  UNL1        0.0384
     15 C           3.5572   -1.6949   22.1985 C.ar    1  UNL1        0.0047
     16 C           2.7689   -0.4936   21.7678 C.ar    1  UNL1        0.0207
     17 C           3.4260    0.8535   21.7104 C.ar    1  UNL1        0.0989
     18 N           4.8714    0.9994   22.0836 N.ar    1  UNL1       -0.2423
     19 C           5.6598   -0.2018   22.5143 C.ar    1  UNL1        0.1004
     20 O           8.2572   -2.9345   26.8829 O.2     1  UNL1       -0.2747
     21 C           7.3995   -4.0872   27.3138 C.2     1  UNL1        0.2267
     22 N           6.5543   -4.8104   26.3075 N.am    1  UNL1       -0.2681
     23 H           5.9913   -5.5669   26.5903 H       1  UNL1        0.1563
     24 C           7.3870   -4.5166   28.7510 C.3     1  UNL1        0.0769
     25 C           6.8933   -5.4373   29.8274 C.3     1  UNL1        0.0096
     26 C           7.8589   -4.3398   30.1638 C.3     1  UNL1        0.0096
@<TRIPOS>BOND
     1    20    21    2
     2    21    22   am
     3    22     1    1
     4     1     2   ar
     5     2     3   ar
     6     3     4   ar
     7     4     7    1
     8     7     8   ar
     9     8     9   ar
    10     9    10   ar
    11    10    11   ar
    12    11    12   ar
    13    12    13    1
    14     4     5   ar
    15     5    14    1
    16    14    15   ar
    17    15    16   ar
    18    16    17   ar
    19    17    18   ar
    20    18    19   ar
    21     5     6   ar
    22    21    24    1
    23    24    25    1
    24    25    26    1
    25     6     1   ar
    26    26    24    1
    27    12     7   ar
    28    19    14   ar
    29    22    23    1
@<TRIPOS>MOLECULE
*****
 26 29 0 0 0
SMALL
GASTEIGER

@<TRIPOS>ATOM
      1 C           6.8585   -5.1042   29.4240 C.ar    1  UNL1        0.1535
      2 C           7.0268   -5.5384   30.8499 C.ar    1  UNL1        0.1332
      3 N           6.8386   -4.5498   31.9621 N.ar    1  UNL1       -0.2393
      4 C           6.4821   -3.1269   31.6485 C.ar    1  UNL1        0.1013
      5 C           6.3138   -2.6927   30.2226 C.ar    1  UNL1        0.1018
      6 N           6.5020   -3.6813   29.1104 N.ar    1  UNL1       -0.2274
      7 C           6.2939   -2.1382   32.7608 C.ar    1  UNL1        0.0497
      8 C           7.4404   -1.2767   33.2004 C.ar    1  UNL1        0.0245
      9 C           7.2522   -0.2881   34.3127 C.ar    1  UNL1        0.0991
     10 N           5.9175   -0.1609   34.9854 N.ar    1  UNL1       -0.2400
     11 C           4.7710   -1.0224   34.5457 C.ar    1  UNL1        0.1285
     12 C           4.9592   -2.0111   33.4334 C.ar    1  UNL1        0.1606
     13 F           3.8127   -2.8726   32.9938 F       1  UNL1       -0.2025
     14 C           5.9573   -1.2698   29.9090 C.ar    1  UNL1        0.0384
     15 C           7.0404   -0.2642   29.6531 C.ar    1  UNL1        0.0047
     16 C           6.6839    1.1587   29.3395 C.ar    1  UNL1        0.0207
     17 C           5.2443    1.5759   29.2818 C.ar    1  UNL1        0.0989
     18 N           4.1612    0.5703   29.5376 N.ar    1  UNL1       -0.2423
     19 C           4.5177   -0.8526   29.8513 C.ar    1  UNL1        0.1004
     20 O           9.2727   -4.9270   27.6520 O.2     1  UNL1       -0.2747
     21 C           8.2538   -6.0042   27.4257 C.2     1  UNL1        0.2267
     22 N           7.0467   -6.0929   28.3117 N.am    1  UNL1       -0.2681
     23 H           6.3779   -6.8000   28.1632 H       1  UNL1        0.1563
     24 C           8.4420   -6.9929   26.3134 C.3     1  UNL1        0.0769
     25 C           7.9528   -7.6341   25.0487 C.3     1  UNL1        0.0096
     26 C           9.2572   -8.0641   25.6516 C.3     1  UNL1        0.0096
@<TRIPOS>BOND
     1    20    21    2
     2    21    22   am
     3    22     1    1
     4     1     2   ar
     5     2     3   ar
     6     3     4   ar
     7     4     7    1
     8     7     8   ar
     9     8     9   ar
    10     9    10   ar
    11    10    11   ar
    12    11    12   ar
    13    12    13    1
    14     4     5   ar
    15     5    14    1
    16    14    15   ar
    17    15    16   ar
    18    16    17   ar
    19    17    18   ar
    20    18    19   ar
    21     5     6   ar
    22    21    24    1
    23    24    25    1
    24    25    26    1
    25     6     1   ar
    26    26    24    1
    27    12     7   ar
    28    19    14   ar
    29    22    23    1
@<TRIPOS>MOLECULE
*****
 26 29 0 0 0
SMALL
GASTEIGER

@<TRIPOS>ATOM
      1 C           6.9349   -3.9826   25.2085 C.ar    1  UNL1        0.1535
      2 C           7.4759   -4.9548   24.2024 C.ar    1  UNL1        0.1332
      3 N           7.2000   -4.7539   22.7418 N.ar    1  UNL1       -0.2393
      4 C           6.3830   -3.5809   22.2872 C.ar    1  UNL1        0.1013
      5 C           5.8420   -2.6087   23.2933 C.ar    1  UNL1        0.1018
      6 N           6.1180   -2.8096   24.7539 N.ar    1  UNL1       -0.2274
      7 C           6.1071   -3.3800   20.8265 C.ar    1  UNL1        0.0497
      8 C           4.9134   -4.0304   20.1924 C.ar    1  UNL1        0.0245
      9 C           4.6375   -3.8296   18.7318 C.ar    1  UNL1        0.0991
     10 N           5.5552   -2.9783   17.9052 N.ar    1  UNL1       -0.2400
     11 C           6.7489   -2.3279   18.5393 C.ar    1  UNL1        0.1285
     12 C           7.0248   -2.5288   20.0000 C.ar    1  UNL1        0.1606
     13 F           8.2185   -1.8784   20.6342 F       1  UNL1       -0.2025
     14 C           5.0251   -1.4357   22.8388 C.ar    1  UNL1        0.0384
     15 C           3.5395   -1.5719   22.6822 C.ar    1  UNL1        0.0047
     16 C           2.7226   -0.3989   22.2276 C.ar    1  UNL1        0.0207
     17 C           3.3912    0.9103   21.9296 C.ar    1  UNL1        0.0989
     18 N           4.8767    1.0465   22.0862 N.ar    1  UNL1       -0.2423
     19 C           5.6937   -0.1265   22.5408 C.ar    1  UNL1        0.1004
     20 O           6.4976   -6.6731   26.4616 O.2     1  UNL1       -0.2747
     21 C           6.9922   -5.5287   27.2957 C.2     1  UNL1        0.2267
     22 N           7.2108   -4.1835   26.6692 N.am    1  UNL1       -0.2681
     23 H           7.5354   -3.4324   27.2167 H       1  UNL1        0.1563
     24 C           7.2681   -5.7295   28.7564 C.3     1  UNL1        0.0769
     25 C           6.8692   -5.5473   30.1908 C.3     1  UNL1        0.0096
     26 C           8.1449   -6.2596   29.8520 C.3     1  UNL1        0.0096
@<TRIPOS>BOND
     1    20    21    2
     2    21    22   am
     3    22     1    1
     4     1     2   ar
     5     2     3   ar
     6     3     4   ar
     7     4     7    1
     8     7     8   ar
     9     8     9   ar
    10     9    10   ar
    11    10    11   ar
    12    11    12   ar
    13    12    13    1
    14     4     5   ar
    15     5    14    1
    16    14    15   ar
    17    15    16   ar
    18    16    17   ar
    19    17    18   ar
    20    18    19   ar
    21     5     6   ar
    22    21    24    1
    23    24    25    1
    24    25    26    1
    25     6     1   ar
    26    26    24    1
    27    12     7   ar
    28    19    14   ar
    29    22    23    1
@<TRIPOS>MOLECULE
*****
 26 29 0 0 0
SMALL
GASTEIGER

@<TRIPOS>ATOM
      1 C          -3.5360    3.9442   25.7888 C.ar    1  UNL1        0.1535
      2 C          -2.9769    4.0862   24.4042 C.ar    1  UNL1        0.1332
      3 N          -1.6087    3.5576   24.0901 N.ar    1  UNL1       -0.2393
      4 C          -0.7997    2.8871   25.1605 C.ar    1  UNL1        0.1013
      5 C          -1.3589    2.7451   26.5451 C.ar    1  UNL1        0.1018
      6 N          -2.7270    3.2737   26.8593 N.ar    1  UNL1       -0.2274
      7 C           0.5685    2.3585   24.8463 C.ar    1  UNL1        0.0497
      8 C           0.7325    0.9566   24.3387 C.ar    1  UNL1        0.0245
      9 C           2.1006    0.4280   24.0244 C.ar    1  UNL1        0.0991
     10 N           3.3048    1.3013   24.2179 N.ar    1  UNL1       -0.2400
     11 C           3.1408    2.7032   24.7256 C.ar    1  UNL1        0.1285
     12 C           1.7726    3.2318   25.0398 C.ar    1  UNL1        0.1606
     13 F           1.6085    4.6337   25.5475 F       1  UNL1       -0.2025
     14 C          -0.5499    2.0745   27.6156 C.ar    1  UNL1        0.0384
     15 C          -0.6730    0.5955   27.8331 C.ar    1  UNL1        0.0047
     16 C           0.1360   -0.0751   28.9035 C.ar    1  UNL1        0.0207
     17 C           1.0681    0.7334   29.7565 C.ar    1  UNL1        0.0989
     18 N           1.1912    2.2124   29.5390 N.ar    1  UNL1       -0.2423
     19 C           0.3822    2.8829   28.4685 C.ar    1  UNL1        0.1004
     20 O          -3.8937    5.9865   27.9571 O.2     1  UNL1       -0.2747
     21 C          -5.0831    5.4939   27.1871 C.2     1  UNL1        0.2267
     22 N          -4.9043    4.4728   26.1030 N.am    1  UNL1       -0.2681
     23 H          -5.6849    4.1495   25.5977 H       1  UNL1        0.1563
     24 C          -6.4513    6.0225   27.5013 C.3     1  UNL1        0.0769
     25 C          -7.5524    6.2716   28.4889 C.3     1  UNL1        0.0096
     26 C          -7.7199    6.6889   27.0580 C.3     1  UNL1        0.0096
@<TRIPOS>BOND
     1    20    21    2
     2    21    22   am
     3    22     1    1
     4     1     2   ar
     5     2     3   ar
     6     3     4   ar
     7     4     7    1
     8     7     8   ar
     9     8     9   ar
    10     9    10   ar
    11    10    11   ar
    12    11    12   ar
    13    12    13    1
    14     4     5   ar
    15     5    14    1
    16    14    15   ar
    17    15    16   ar
    18    16    17   ar
    19    17    18   ar
    20    18    19   ar
    21     5     6   ar
    22    21    24    1
    23    24    25    1
    24    25    26    1
    25     6     1   ar
    26    26    24    1
    27    12     7   ar
    28    19    14   ar
    29    22    23    1
@<TRIPOS>MOLECULE
*****
 26 29 0 0 0
SMALL
GASTEIGER

@<TRIPOS>ATOM
      1 C           3.2788   -0.6823   24.7494 C.ar    1  UNL1        0.1535
      2 C           4.3319   -1.7422   24.6168 C.ar    1  UNL1        0.1332
      3 N           4.7935   -2.1748   23.2567 N.ar    1  UNL1       -0.2393
      4 C           4.2019   -1.5475   22.0293 C.ar    1  UNL1        0.1013
      5 C           3.1488   -0.4876   22.1619 C.ar    1  UNL1        0.1018
      6 N           2.6873   -0.0551   23.5220 N.ar    1  UNL1       -0.2274
      7 C           4.6635   -1.9802   20.6692 C.ar    1  UNL1        0.0497
      8 C           4.0299   -3.1661   20.0043 C.ar    1  UNL1        0.0245
      9 C           4.4914   -3.5987   18.6442 C.ar    1  UNL1        0.0991
     10 N           5.5866   -2.8455   17.9490 N.ar    1  UNL1       -0.2400
     11 C           6.2202   -1.6595   18.6140 C.ar    1  UNL1        0.1285
     12 C           5.7586   -1.2269   19.9741 C.ar    1  UNL1        0.1606
     13 F           6.3922   -0.0410   20.6390 F       1  UNL1       -0.2025
     14 C           2.5573    0.1396   20.9345 C.ar    1  UNL1        0.0384
     15 C           3.1895    1.3620   20.3379 C.ar    1  UNL1        0.0047
     16 C           2.5980    1.9893   19.1105 C.ar    1  UNL1        0.0207
     17 C           1.3741    1.3942   18.4796 C.ar    1  UNL1        0.0989
     18 N           0.7418    0.1718   19.0762 N.ar    1  UNL1       -0.2423
     19 C           1.3334   -0.4555   20.3036 C.ar    1  UNL1        0.1004
     20 O           4.3333    1.8544   25.9548 O.2     1  UNL1       -0.2747
     21 C           3.3445    1.0187   26.7122 C.2     1  UNL1        0.2267
     22 N           2.8172   -0.2497   26.1095 N.am    1  UNL1       -0.2681
     23 H           2.1682   -0.7982   26.6066 H       1  UNL1        0.1563
     24 C           2.8829    1.4513   28.0723 C.3     1  UNL1        0.0769
     25 C           2.0796    1.1970   29.3132 C.3     1  UNL1        0.0096
     26 C           2.8866    2.4550   29.1870 C.3     1  UNL1        0.0096
@<TRIPOS>BOND
     1    20    21    2
     2    21    22   am
     3    22     1    1
     4     1     2   ar
     5     2     3   ar
     6     3     4   ar
     7     4     7    1
     8     7     8   ar
     9     8     9   ar
    10     9    10   ar
    11    10    11   ar
    12    11    12   ar
    13    12    13    1
    14     4     5   ar
    15     5    14    1
    16    14    15   ar
    17    15    16   ar
    18    16    17   ar
    19    17    18   ar
    20    18    19   ar
    21     5     6   ar
    22    21    24    1
    23    24    25    1
    24    25    26    1
    25     6     1   ar
    26    26    24    1
    27    12     7   ar
    28    19    14   ar
    29    22    23    1
