@<TRIPOS>MOLECULE
*****
 21 23 0 0 0
SMALL
GASTEIGER

@<TRIPOS>ATOM
      1 N          -4.9939  -16.7810   24.0002 N.ar    1  UNL1       -0.3165
      2 C          -4.9949  -15.7504   25.0900 C.ar    1  UNL1        0.0779
      3 C          -6.3895  -15.2131   25.2186 C.ar    1  UNL1        0.0392
      4 C          -7.2504  -15.9117   24.2082 C.ar    1  UNL1        0.0985
      5 N          -8.7082  -15.7906   23.8766 N.ar    1  UNL1       -0.2423
      6 C          -9.3035  -16.6386   22.7919 C.ar    1  UNL1        0.0994
      7 C          -8.4410  -17.6076   22.0389 C.ar    1  UNL1        0.0266
      8 C          -6.9832  -17.7287   22.3705 C.ar    1  UNL1        0.0208
      9 C          -6.3878  -16.8807   23.4552 C.ar    1  UNL1        0.0782
     10 C          -9.0364  -18.4556   20.9542 C.ar    1  UNL1        0.0318
     11 C         -10.4908  -18.5359   20.5960 C.ar    1  UNL1        0.0079
     12 C         -10.6353  -19.5020   19.4577 C.ar    1  UNL1        0.0185
     13 C          -9.2700  -20.0189   19.1124 C.ar    1  UNL1        0.0870
     14 CL         -8.9493  -21.0087   18.0319 Cl      1  UNL1       -0.0752
     15 S          -8.2819  -19.3721   20.0373 S.2     1  UNL1       -0.0755
     16 C          -3.8073  -17.5729   23.5367 C.3     1  UNL1        0.1920
     17 C          -1.6797  -17.7198   20.1898 C.3     1  UNL1        0.1150
     18 N          -2.4466  -18.1580   21.4021 N.am    1  UNL1       -0.2744
     19 C          -2.6199  -19.6194   21.6922 C.3     1  UNL1        0.1150
     20 C          -3.0403  -17.1347   22.3243 C.2     1  UNL1        0.2488
     21 O          -2.8670  -15.6733   22.0341 O.2     1  UNL1       -0.2728
@<TRIPOS>BOND
     1    17    18    1
     2    18    19    1
     3    18    20   am
     4    20    21    2
     5    20    16    1
     6    16     1    1
     7     1     2   ar
     8     2     3   ar
     9     3     4   ar
    10     4     5   ar
    11     5     6   ar
    12     6     7   ar
    13     7    10    1
    14    10    11   ar
    15    11    12   ar
    16    12    13   ar
    17    13    14    1
    18    13    15   ar
    19     7     8   ar
    20     8     9   ar
    21     9     1   ar
    22     9     4   ar
    23    15    10   ar
@<TRIPOS>MOLECULE
*****
 21 23 0 0 0
SMALL
GASTEIGER

@<TRIPOS>ATOM
      1 N         -10.0926  -16.8766   22.9469 N.ar    1  UNL1       -0.3165
      2 C         -11.4878  -16.7006   22.4251 C.ar    1  UNL1        0.0779
      3 C         -11.5867  -17.4222   21.1138 C.ar    1  UNL1        0.0392
      4 C         -10.2526  -18.0442   20.8251 C.ar    1  UNL1        0.0985
      5 N          -9.7594  -18.8740   19.6771 N.ar    1  UNL1       -0.2423
      6 C          -8.3427  -19.3666   19.6619 C.ar    1  UNL1        0.0994
      7 C          -7.4192  -19.0294   20.7948 C.ar    1  UNL1        0.0266
      8 C          -7.9125  -18.1996   21.9429 C.ar    1  UNL1        0.0208
      9 C          -9.3291  -17.7070   21.9581 C.ar    1  UNL1        0.0782
     10 C          -6.0025  -19.5220   20.7797 C.ar    1  UNL1        0.0318
     11 C          -5.4734  -20.6596   19.9575 C.ar    1  UNL1        0.0079
     12 C          -4.0100  -20.8043   20.2536 C.ar    1  UNL1        0.0185
     13 C          -3.6347  -19.7560   21.2589 C.ar    1  UNL1        0.0870
     14 CL         -2.2680  -19.5385   21.8374 Cl      1  UNL1       -0.0752
     15 S          -4.8661  -18.9636   21.5839 S.2     1  UNL1       -0.0755
     16 C          -9.5550  -16.3200   24.2319 C.3     1  UNL1        0.1920
     17 C          -6.0264  -15.1099   25.5864 C.3     1  UNL1        0.1150
     18 N          -7.3972  -15.7176   25.5477 N.am    1  UNL1       -0.2744
     19 C          -7.9811  -16.3307   26.7859 C.3     1  UNL1        0.1150
     20 C          -8.1841  -15.7122   24.2707 C.2     1  UNL1        0.2488
     21 O          -7.6002  -15.0991   23.0325 O.2     1  UNL1       -0.2728
@<TRIPOS>BOND
     1    17    18    1
     2    18    19    1
     3    18    20   am
     4    20    21    2
     5    20    16    1
     6    16     1    1
     7     1     2   ar
     8     2     3   ar
     9     3     4   ar
    10     4     5   ar
    11     5     6   ar
    12     6     7   ar
    13     7    10    1
    14    10    11   ar
    15    11    12   ar
    16    12    13   ar
    17    13    14    1
    18    13    15   ar
    19     7     8   ar
    20     8     9   ar
    21     9     1   ar
    22     9     4   ar
    23    15    10   ar
@<TRIPOS>MOLECULE
*****
 21 23 0 0 0
SMALL
GASTEIGER

@<TRIPOS>ATOM
      1 N         -10.0613  -17.6279   22.0342 N.ar    1  UNL1       -0.3165
      2 C         -11.3347  -18.0540   21.3657 C.ar    1  UNL1        0.0779
      3 C         -10.9847  -19.0278   20.2798 C.ar    1  UNL1        0.0392
      4 C          -9.4951  -19.2036   20.2772 C.ar    1  UNL1        0.0985
      5 N          -8.5846  -20.0398   19.4276 N.ar    1  UNL1       -0.2423
      6 C          -7.1034  -20.0107   19.6623 C.ar    1  UNL1        0.0994
      7 C          -6.5327  -19.1455   20.7466 C.ar    1  UNL1        0.0266
      8 C          -7.4431  -18.3094   21.5962 C.ar    1  UNL1        0.0208
      9 C          -8.9243  -18.3384   21.3615 C.ar    1  UNL1        0.0782
     10 C          -5.0514  -19.1165   20.9813 C.ar    1  UNL1        0.0318
     11 C          -4.3643  -19.2961   22.3026 C.ar    1  UNL1        0.0079
     12 C          -2.8855  -19.1934   22.0739 C.ar    1  UNL1        0.0185
     13 C          -2.6585  -18.9503   20.6111 C.ar    1  UNL1        0.0870
     14 CL         -1.3267  -18.7839   19.9413 Cl      1  UNL1       -0.0752
     15 S          -3.9971  -18.9028   19.9359 S.2     1  UNL1       -0.0755
     16 C          -9.9452  -16.6611   23.1752 C.3     1  UNL1        0.1920
     17 C          -8.3759  -16.8983   26.8127 C.3     1  UNL1        0.1150
     18 N          -8.6887  -16.3972   25.4339 N.am    1  UNL1       -0.2744
     19 C          -8.0578  -15.1311   24.9350 C.3     1  UNL1        0.1150
     20 C          -9.6324  -17.1622   24.5540 C.2     1  UNL1        0.2488
     21 O         -10.2633  -18.4283   25.0530 O.2     1  UNL1       -0.2728
@<TRIPOS>BOND
     1    17    18    1
     2    18    19    1
     3    18    20   am
     4    20    21    2
     5    20    16    1
     6    16     1    1
     7     1     2   ar
     8     2     3   ar
     9     3     4   ar
    10     4     5   ar
    11     5     6   ar
    12     6     7   ar
    13     7    10    1
    14    10    11   ar
    15    11    12   ar
    16    12    13   ar
    17    13    14    1
    18    13    15   ar
    19     7     8   ar
    20     8     9   ar
    21     9     1   ar
    22     9     4   ar
    23    15    10   ar
@<TRIPOS>MOLECULE
*****
 21 23 0 0 0
SMALL
GASTEIGER

@<TRIPOS>ATOM
      1 N          -8.7474  -16.9618   23.6744 N.ar    1  UNL1       -0.3165
      2 C          -9.2604  -15.8878   24.5872 C.ar    1  UNL1        0.0779
      3 C          -8.0855  -15.0908   25.0713 C.ar    1  UNL1        0.0392
      4 C          -6.8464  -15.6723   24.4577 C.ar    1  UNL1        0.0985
      5 N          -5.3984  -15.2983   24.5737 N.ar    1  UNL1       -0.2423
      6 C          -4.3596  -16.0806   23.8262 C.ar    1  UNL1        0.0994
      7 C          -4.7687  -17.2370   22.9628 C.ar    1  UNL1        0.0266
      8 C          -6.2167  -17.6110   22.8469 C.ar    1  UNL1        0.0208
      9 C          -7.2555  -16.8287   23.5944 C.ar    1  UNL1        0.0782
     10 C          -3.7298  -18.0193   22.2153 C.ar    1  UNL1        0.0318
     11 C          -3.6628  -19.5136   22.1031 C.ar    1  UNL1        0.0079
     12 C          -2.4671  -19.8626   21.2673 C.ar    1  UNL1        0.0185
     13 C          -1.7951  -18.5839   20.8630 C.ar    1  UNL1        0.0870
     14 CL         -0.5596  -18.4652   20.0206 Cl      1  UNL1       -0.0752
     15 S          -2.5755  -17.4447   21.4489 S.2     1  UNL1       -0.0755
     16 C          -9.5802  -17.9888   22.9659 C.3     1  UNL1        0.1920
     17 C         -13.4955  -17.9642   23.6137 C.3     1  UNL1        0.1150
     18 N         -12.1456  -17.5924   23.0759 N.am    1  UNL1       -0.2744
     19 C         -12.0108  -16.4525   22.1103 C.3     1  UNL1        0.1150
     20 C         -10.9303  -18.3605   23.5037 C.2     1  UNL1        0.2488
     21 O         -11.0651  -19.5005   24.4694 O.2     1  UNL1       -0.2728
@<TRIPOS>BOND
     1    17    18    1
     2    18    19    1
     3    18    20   am
     4    20    21    2
     5    20    16    1
     6    16     1    1
     7     1     2   ar
     8     2     3   ar
     9     3     4   ar
    10     4     5   ar
    11     5     6   ar
    12     6     7   ar
    13     7    10    1
    14    10    11   ar
    15    11    12   ar
    16    12    13   ar
    17    13    14    1
    18    13    15   ar
    19     7     8   ar
    20     8     9   ar
    21     9     1   ar
    22     9     4   ar
    23    15    10   ar
@<TRIPOS>MOLECULE
*****
 21 23 0 0 0
SMALL
GASTEIGER

@<TRIPOS>ATOM
      1 N          -5.1448  -15.9041   24.3486 N.ar    1  UNL1       -0.3165
      2 C          -4.8756  -15.5882   25.7901 C.ar    1  UNL1        0.0779
      3 C          -6.1932  -15.5222   26.5040 C.ar    1  UNL1        0.0392
      4 C          -7.2767  -15.7973   25.5037 C.ar    1  UNL1        0.0985
      5 N          -8.7696  -15.8633   25.6338 N.ar    1  UNL1       -0.2423
      6 C          -9.6145  -16.1654   24.4318 C.ar    1  UNL1        0.0994
      7 C          -8.9665  -16.4015   23.0998 C.ar    1  UNL1        0.0266
      8 C          -7.4736  -16.3354   22.9697 C.ar    1  UNL1        0.0208
      9 C          -6.6287  -16.0333   24.1717 C.ar    1  UNL1        0.0782
     10 C          -9.8115  -16.7036   21.8977 C.ar    1  UNL1        0.0318
     11 C          -9.9828  -18.0485   21.2560 C.ar    1  UNL1        0.0079
     12 C         -10.9107  -17.8901   20.0881 C.ar    1  UNL1        0.0185
     13 C         -11.3128  -16.4471   20.0081 C.ar    1  UNL1        0.0870
     14 CL        -12.2327  -15.8435   18.9886 Cl      1  UNL1       -0.0752
     15 S         -10.6334  -15.7139   21.1265 S.2     1  UNL1       -0.0755
     16 C          -4.1115  -16.0629   23.2730 C.3     1  UNL1        0.1920
     17 C          -1.9716  -18.9480   21.5856 C.3     1  UNL1        0.1150
     18 N          -2.4649  -17.5806   21.9556 N.am    1  UNL1       -0.2744
     19 C          -1.8048  -16.3636   21.3786 C.3     1  UNL1        0.1150
     20 C          -3.6182  -17.4303   22.9028 C.2     1  UNL1        0.2488
     21 O          -4.2783  -18.6474   23.4799 O.2     1  UNL1       -0.2728
@<TRIPOS>BOND
     1    17    18    1
     2    18    19    1
     3    18    20   am
     4    20    21    2
     5    20    16    1
     6    16     1    1
     7     1     2   ar
     8     2     3   ar
     9     3     4   ar
    10     4     5   ar
    11     5     6   ar
    12     6     7   ar
    13     7    10    1
    14    10    11   ar
    15    11    12   ar
    16    12    13   ar
    17    13    14    1
    18    13    15   ar
    19     7     8   ar
    20     8     9   ar
    21     9     1   ar
    22     9     4   ar
    23    15    10   ar
@<TRIPOS>MOLECULE
*****
 21 23 0 0 0
SMALL
GASTEIGER

@<TRIPOS>ATOM
      1 N          -4.4781  -18.1488   22.4099 N.ar    1  UNL1       -0.3165
      2 C          -3.5555  -17.3800   23.3087 C.ar    1  UNL1        0.0779
      3 C          -4.3870  -16.4452   24.1361 C.ar    1  UNL1        0.0392
      4 C          -5.8235  -16.6361   23.7487 C.ar    1  UNL1        0.0985
      5 N          -7.0875  -15.9873   24.2295 N.ar    1  UNL1       -0.2423
      6 C          -8.4078  -16.3914   23.6435 C.ar    1  UNL1        0.0994
      7 C          -8.4641  -17.4443   22.5766 C.ar    1  UNL1        0.0266
      8 C          -7.2001  -18.0931   22.0958 C.ar    1  UNL1        0.0208
      9 C          -5.8798  -17.6890   22.6818 C.ar    1  UNL1        0.0782
     10 C          -9.7845  -17.8483   21.9906 C.ar    1  UNL1        0.0318
     11 C          -9.9847  -18.7021   20.7736 C.ar    1  UNL1        0.0079
     12 C         -11.4604  -18.8510   20.5495 C.ar    1  UNL1        0.0185
     13 C         -12.1722  -18.0892   21.6280 C.ar    1  UNL1        0.0870
     14 CL        -13.6588  -17.9684   21.7878 Cl      1  UNL1       -0.0752
     15 S         -11.1364  -17.4695   22.5186 S.2     1  UNL1       -0.0755
     16 C          -4.0706  -19.1938   21.4140 C.3     1  UNL1        0.1920
     17 C          -0.6074  -18.5051   19.6023 C.3     1  UNL1        0.1150
     18 N          -2.0460  -18.3749   20.0067 N.am    1  UNL1       -0.2744
     19 C          -2.8986  -17.2957   19.4081 C.3     1  UNL1        0.1150
     20 C          -2.6319  -19.3240   21.0096 C.2     1  UNL1        0.2488
     21 O          -1.7793  -20.4032   21.6082 O.2     1  UNL1       -0.2728
@<TRIPOS>BOND
     1    17    18    1
     2    18    19    1
     3    18    20   am
     4    20    21    2
     5    20    16    1
     6    16     1    1
     7     1     2   ar
     8     2     3   ar
     9     3     4   ar
    10     4     5   ar
    11     5     6   ar
    12     6     7   ar
    13     7    10    1
    14    10    11   ar
    15    11    12   ar
    16    12    13   ar
    17    13    14    1
    18    13    15   ar
    19     7     8   ar
    20     8     9   ar
    21     9     1   ar
    22     9     4   ar
    23    15    10   ar
@<TRIPOS>MOLECULE
*****
 21 23 0 0 0
SMALL
GASTEIGER

@<TRIPOS>ATOM
      1 N         -10.1345  -17.7310   23.3959 N.ar    1  UNL1       -0.3165
      2 C         -11.1213  -18.5564   24.1672 C.ar    1  UNL1        0.0779
      3 C         -10.5605  -19.9407   24.3048 C.ar    1  UNL1        0.0392
      4 C          -9.2271  -19.9710   23.6184 C.ar    1  UNL1        0.0985
      5 N          -8.2186  -21.0657   23.4324 N.ar    1  UNL1       -0.2423
      6 C          -6.9469  -20.7947   22.6846 C.ar    1  UNL1        0.0994
      7 C          -6.6836  -19.4290   22.1229 C.ar    1  UNL1        0.0266
      8 C          -7.6921  -18.3343   22.3089 C.ar    1  UNL1        0.0208
      9 C          -8.9638  -18.6053   23.0567 C.ar    1  UNL1        0.0782
     10 C          -5.4118  -19.1580   21.3751 C.ar    1  UNL1        0.0318
     11 C          -5.2342  -19.2180   19.8868 C.ar    1  UNL1        0.0079
     12 C          -3.8070  -18.8765   19.5761 C.ar    1  UNL1        0.0185
     13 C          -3.1026  -18.6055   20.8724 C.ar    1  UNL1        0.0870
     14 CL         -1.6596  -18.2269   21.0294 Cl      1  UNL1       -0.0752
     15 S          -4.0944  -18.7794   21.9842 S.2     1  UNL1       -0.0755
     16 C         -10.2909  -16.2852   23.0282 C.3     1  UNL1        0.1920
     17 C         -11.5329  -15.7425   19.2982 C.3     1  UNL1        0.1150
     18 N         -11.5164  -16.1519   20.7411 N.am    1  UNL1       -0.2744
     19 C         -12.7087  -16.8373   21.3400 C.3     1  UNL1        0.1150
     20 C         -10.3075  -15.8758   21.5852 C.2     1  UNL1        0.2488
     21 O          -9.1153  -15.1904   20.9863 O.2     1  UNL1       -0.2728
@<TRIPOS>BOND
     1    17    18    1
     2    18    19    1
     3    18    20   am
     4    20    21    2
     5    20    16    1
     6    16     1    1
     7     1     2   ar
     8     2     3   ar
     9     3     4   ar
    10     4     5   ar
    11     5     6   ar
    12     6     7   ar
    13     7    10    1
    14    10    11   ar
    15    11    12   ar
    16    12    13   ar
    17    13    14    1
    18    13    15   ar
    19     7     8   ar
    20     8     9   ar
    21     9     1   ar
    22     9     4   ar
    23    15    10   ar
@<TRIPOS>MOLECULE
*****
 21 23 0 0 0
SMALL
GASTEIGER

@<TRIPOS>ATOM
      1 N          -9.1028  -17.2398   23.2722 N.ar    1  UNL1       -0.3165
      2 C         -10.4141  -17.9524   23.1214 C.ar    1  UNL1        0.0779
      3 C         -10.1582  -19.2487   22.4115 C.ar    1  UNL1        0.0392
      4 C          -8.6888  -19.3374   22.1236 C.ar    1  UNL1        0.0985
      5 N          -7.8605  -20.3883   21.4458 N.ar    1  UNL1       -0.2423
      6 C          -6.3799  -20.1977   21.2999 C.ar    1  UNL1        0.0994
      7 C          -5.7275  -18.9561   21.8319 C.ar    1  UNL1        0.0266
      8 C          -6.5559  -17.9052   22.5097 C.ar    1  UNL1        0.0208
      9 C          -8.0365  -18.0959   22.6555 C.ar    1  UNL1        0.0782
     10 C          -4.2468  -18.7654   21.6860 C.ar    1  UNL1        0.0318
     11 C          -3.2809  -18.4798   22.7975 C.ar    1  UNL1        0.0079
     12 C          -1.9092  -18.3648   22.2015 C.ar    1  UNL1        0.0185
     13 C          -2.0274  -18.5793   20.7216 C.ar    1  UNL1        0.0870
     14 CL         -0.8990  -18.5512   19.7337 Cl      1  UNL1       -0.0752
     15 S          -3.4721  -18.8269   20.4030 S.2     1  UNL1       -0.0755
     16 C          -8.8943  -15.9056   23.9250 C.3     1  UNL1        0.1920
     17 C          -5.7810  -15.2208   26.2890 C.3     1  UNL1        0.1150
     18 N          -7.1507  -15.6256   25.8307 N.am    1  UNL1       -0.2744
     19 C          -8.1464  -16.1554   26.8196 C.3     1  UNL1        0.1150
     20 C          -7.5246  -15.5007   24.3834 C.2     1  UNL1        0.2488
     21 O          -6.5289  -14.9709   23.3946 O.2     1  UNL1       -0.2728
@<TRIPOS>BOND
     1    17    18    1
     2    18    19    1
     3    18    20   am
     4    20    21    2
     5    20    16    1
     6    16     1    1
     7     1     2   ar
     8     2     3   ar
     9     3     4   ar
    10     4     5   ar
    11     5     6   ar
    12     6     7   ar
    13     7    10    1
    14    10    11   ar
    15    11    12   ar
    16    12    13   ar
    17    13    14    1
    18    13    15   ar
    19     7     8   ar
    20     8     9   ar
    21     9     1   ar
    22     9     4   ar
    23    15    10   ar
@<TRIPOS>MOLECULE
*****
 21 23 0 0 0
SMALL
GASTEIGER

@<TRIPOS>ATOM
      1 N           4.5335   -3.2625   20.4944 N.ar    1  UNL1       -0.3165
      2 C           5.5009   -3.9035   19.5440 C.ar    1  UNL1        0.0779
      3 C           5.4228   -3.1697   18.2381 C.ar    1  UNL1        0.0392
      4 C           4.4072   -2.0752   18.3813 C.ar    1  UNL1        0.0985
      5 N           3.9120   -1.0337   17.4222 N.ar    1  UNL1       -0.2423
      6 C           2.8670   -0.0496   17.8575 C.ar    1  UNL1        0.0994
      7 C           2.3174   -0.1069   19.2520 C.ar    1  UNL1        0.0266
      8 C           2.8127   -1.1483   20.2112 C.ar    1  UNL1        0.0208
      9 C           3.8576   -2.1325   19.7758 C.ar    1  UNL1        0.0782
     10 C           1.2724    0.8773   19.6874 C.ar    1  UNL1        0.0318
     11 C           0.5877    0.9039   21.0217 C.ar    1  UNL1        0.0079
     12 C          -0.3791    2.0507   21.0239 C.ar    1  UNL1        0.0185
     13 C          -0.2919    2.7329   19.6908 C.ar    1  UNL1        0.0870
     14 CL         -1.0861    3.9302   19.2594 Cl      1  UNL1       -0.0752
     15 S           0.7288    2.0077   18.8648 S.2     1  UNL1       -0.0755
     16 C           4.2856   -3.6783   21.9141 C.3     1  UNL1        0.1920
     17 C           6.5117   -2.6276   25.0271 C.3     1  UNL1        0.1150
     18 N           5.3905   -2.6546   24.0310 N.am    1  UNL1       -0.2744
     19 C           4.2530   -1.6847   24.1557 C.3     1  UNL1        0.1150
     20 C           5.4068   -3.6514   22.9102 C.2     1  UNL1        0.2488
     21 O           6.5443   -4.6212   22.7856 O.2     1  UNL1       -0.2728
@<TRIPOS>BOND
     1    17    18    1
     2    18    19    1
     3    18    20   am
     4    20    21    2
     5    20    16    1
     6    16     1    1
     7     1     2   ar
     8     2     3   ar
     9     3     4   ar
    10     4     5   ar
    11     5     6   ar
    12     6     7   ar
    13     7    10    1
    14    10    11   ar
    15    11    12   ar
    16    12    13   ar
    17    13    14    1
    18    13    15   ar
    19     7     8   ar
    20     8     9   ar
    21     9     1   ar
    22     9     4   ar
    23    15    10   ar
