@<TRIPOS>MOLECULE
*****
 37 41 0 0 0
SMALL
GASTEIGER

@<TRIPOS>ATOM
      1 C         -15.0407   -1.7941   19.1759 C.ar    1  UNL1        0.1022
      2 C         -15.6639   -3.1067   18.8035 C.ar    1  UNL1        0.0998
      3 N         -14.5738   -4.0164   18.3194 N.ar    1  UNL1       -0.2739
      4 C         -13.2771   -3.2661   18.3927 C.ar    1  UNL1        0.1485
      5 N         -13.5657   -1.8926   18.9221 N.ar    1  UNL1       -0.2284
      6 C         -15.5961    3.8992   19.5219 C.3     1  UNL1        0.0896
      7 N         -15.6526    2.4016   19.5842 N.3     1  UNL1       -0.2713
      8 C         -14.6461    1.5812   18.8332 C.3     1  UNL1        0.0749
      9 C         -14.7026    0.0836   18.8955 C.3     1  UNL1        0.0501
     10 C         -15.7655   -0.5937   19.7088 C.3     1  UNL1        0.1272
     11 O         -16.5768   -1.6879   20.3370 O.3     1  UNL1       -0.3810
     12 C         -16.7720    0.2266   20.4597 C.3     1  UNL1        0.0501
     13 C         -16.7155    1.7243   20.3975 C.3     1  UNL1        0.0749
     14 H         -16.2157   -2.5493   20.0750 H       1  UNL1        0.2107
     15 C         -14.7497   -5.4286   17.8452 C.ar    1  UNL1        0.1533
     16 C         -14.3262   -5.8123   16.4583 C.ar    1  UNL1        0.0582
     17 C         -14.5020   -7.2245   15.9842 C.ar    1  UNL1        0.1049
     18 N         -15.1015   -8.2530   16.8968 N.ar    1  UNL1       -0.2122
     19 C         -15.5250   -7.8692   18.2837 C.ar    1  UNL1        0.2182
     20 N         -15.3491   -6.4571   18.7579 N.ar    1  UNL1       -0.1960
     21 N         -16.1244   -8.8977   19.1964 N.pl3   1  UNL1       -0.3046
     22 H         -15.5414   -9.5289   19.6770 H       1  UNL1        0.1496
     23 C         -17.6119   -8.9645   19.3768 C.3     1  UNL1        0.0718
     24 C         -18.4126   -8.2006   20.3894 C.3     1  UNL1        0.0196
     25 C         -19.8556   -8.5710   20.2148 C.3     1  UNL1        0.0017
     26 C         -19.9468   -9.5639   19.0941 C.3     1  UNL1        0.0017
     27 C         -18.5603   -9.8071   18.5762 C.3     1  UNL1        0.0196
     28 C         -11.9286   -3.7961   18.0048 C.ar    1  UNL1        0.0345
     29 C         -11.0488   -3.0052   17.0825 C.ar    1  UNL1        0.0030
     30 C          -9.7002   -3.5353   16.6946 C.ar    1  UNL1        0.0000
     31 C          -9.2315   -4.8562   17.2290 C.ar    1  UNL1        0.0039
     32 C         -10.1113   -5.6470   18.1513 C.ar    1  UNL1        0.0715
     33 C         -11.4598   -5.1170   18.5392 C.ar    1  UNL1        0.0069
     34 C          -9.6425   -6.9679   18.6856 C.3     1  UNL1        0.4186
     35 F          -9.1736   -8.2887   19.2200 F       1  UNL1       -0.1659
     36 F          -8.9486   -6.2650   19.8145 F       1  UNL1       -0.1659
     37 F         -10.3363   -7.6708   17.5567 F       1  UNL1       -0.1659
@<TRIPOS>BOND
     1     6     7    1
     2     7     8    1
     3     8     9    1
     4     9    10    1
     5    10    11    1
     6    10     1    1
     7     1     2   ar
     8     2     3   ar
     9     3    15    1
    10    15    16   ar
    11    16    17   ar
    12    17    18   ar
    13    18    19   ar
    14    19    21    1
    15    21    23    1
    16    23    24    1
    17    24    25    1
    18    25    26    1
    19    26    27    1
    20    19    20   ar
    21     3     4   ar
    22     4    28    1
    23    28    29   ar
    24    29    30   ar
    25    30    31   ar
    26    31    32   ar
    27    32    34    1
    28    34    35    1
    29    34    36    1
    30    34    37    1
    31    32    33   ar
    32     4     5   ar
    33    10    12    1
    34    12    13    1
    35    13     7    1
    36     5     1   ar
    37    20    15   ar
    38    33    28   ar
    39    27    23    1
    40    11    14    1
    41    21    22    1
@<TRIPOS>MOLECULE
*****
 37 41 0 0 0
SMALL
GASTEIGER

@<TRIPOS>ATOM
      1 C         -17.2692   -0.8221   19.8301 C.ar    1  UNL1        0.1022
      2 C         -15.8802   -0.3415   19.5304 C.ar    1  UNL1        0.0998
      3 N         -15.1179   -1.4796   18.9190 N.ar    1  UNL1       -0.2739
      4 C         -16.0357   -2.6634   18.8408 C.ar    1  UNL1        0.1485
      5 N         -17.3653   -2.2570   19.4039 N.ar    1  UNL1       -0.2284
      6 C         -18.9304    3.5989   23.0762 C.3     1  UNL1        0.0896
      7 N         -18.7433    2.3959   22.2000 N.3     1  UNL1       -0.2713
      8 C         -17.3612    1.9421   21.8343 C.3     1  UNL1        0.0749
      9 C         -17.1740    0.7391   20.9581 C.3     1  UNL1        0.0501
     10 C         -18.3690   -0.0101   20.4475 C.3     1  UNL1        0.1272
     11 O         -19.1820   -1.0413   19.7225 O.3     1  UNL1       -0.3810
     12 C         -19.7511    0.4437   20.8132 C.3     1  UNL1        0.0501
     13 C         -19.9382    1.6467   21.6894 C.3     1  UNL1        0.0749
     14 H         -18.5890   -1.6554   19.2619 H       1  UNL1        0.2107
     15 C         -13.6886   -1.4406   18.4655 C.ar    1  UNL1        0.1533
     16 C         -13.2574   -0.4452   17.4294 C.ar    1  UNL1        0.0582
     17 C         -11.8281   -0.4063   16.9759 C.ar    1  UNL1        0.1049
     18 N         -10.8300   -1.3626   17.5583 N.ar    1  UNL1       -0.2122
     19 C         -11.2613   -2.3580   18.5944 C.ar    1  UNL1        0.2182
     20 N         -12.6905   -2.3970   19.0479 N.ar    1  UNL1       -0.1960
     21 N         -10.2633   -3.3143   19.1768 N.pl3   1  UNL1       -0.3046
     22 H          -9.4820   -2.9718   19.6683 H       1  UNL1        0.1496
     23 C         -10.4554   -4.7926   19.0105 C.3     1  UNL1        0.0718
     24 C          -9.3859   -5.8386   19.1193 C.3     1  UNL1        0.0196
     25 C         -10.0203   -7.1769   18.8821 C.3     1  UNL1        0.0017
     26 C         -11.4822   -6.9581   18.6267 C.3     1  UNL1        0.0017
     27 C         -11.7511   -5.4846   18.7060 C.3     1  UNL1        0.0196
     28 C         -15.6855   -4.0160   18.2953 C.ar    1  UNL1        0.0345
     29 C         -15.0917   -4.1408   16.9234 C.ar    1  UNL1        0.0030
     30 C         -14.7415   -5.4936   16.3780 C.ar    1  UNL1        0.0000
     31 C         -14.9851   -6.7214   17.2044 C.ar    1  UNL1        0.0039
     32 C         -15.5788   -6.5966   18.5762 C.ar    1  UNL1        0.0715
     33 C         -15.9290   -5.2440   19.1216 C.ar    1  UNL1        0.0069
     34 C         -15.8224   -7.8246   19.4025 C.3     1  UNL1        0.4186
     35 F         -16.0659   -9.0526   20.2288 F       1  UNL1       -0.1659
     36 F         -17.0414   -7.1834   19.9963 F       1  UNL1       -0.1659
     37 F         -14.6033   -8.4660   18.8087 F       1  UNL1       -0.1659
@<TRIPOS>BOND
     1     6     7    1
     2     7     8    1
     3     8     9    1
     4     9    10    1
     5    10    11    1
     6    10     1    1
     7     1     2   ar
     8     2     3   ar
     9     3    15    1
    10    15    16   ar
    11    16    17   ar
    12    17    18   ar
    13    18    19   ar
    14    19    21    1
    15    21    23    1
    16    23    24    1
    17    24    25    1
    18    25    26    1
    19    26    27    1
    20    19    20   ar
    21     3     4   ar
    22     4    28    1
    23    28    29   ar
    24    29    30   ar
    25    30    31   ar
    26    31    32   ar
    27    32    34    1
    28    34    35    1
    29    34    36    1
    30    34    37    1
    31    32    33   ar
    32     4     5   ar
    33    10    12    1
    34    12    13    1
    35    13     7    1
    36     5     1   ar
    37    20    15   ar
    38    33    28   ar
    39    27    23    1
    40    11    14    1
    41    21    22    1
@<TRIPOS>MOLECULE
*****
 37 41 0 0 0
SMALL
GASTEIGER

@<TRIPOS>ATOM
      1 C           0.9093    1.7205   19.9011 C.ar    1  UNL1        0.1022
      2 C           2.2175    2.1986   19.3445 C.ar    1  UNL1        0.0998
      3 N           3.2426    1.1309   19.5877 N.ar    1  UNL1       -0.2739
      4 C           2.5680   -0.0070   20.2947 C.ar    1  UNL1        0.1485
      5 N           1.1258    0.3574   20.4884 N.ar    1  UNL1       -0.2284
      6 C          -2.7983    5.0931   17.1224 C.3     1  UNL1        0.0896
      7 N          -1.9948    4.2199   18.0399 N.3     1  UNL1       -0.2713
      8 C          -0.6748    3.6702   17.5869 C.3     1  UNL1        0.0749
      9 C           0.1287    2.7969   18.5044 C.3     1  UNL1        0.0501
     10 C          -0.3878    2.4734   19.8750 C.3     1  UNL1        0.1272
     11 O          -0.4539    1.8884   21.2547 O.3     1  UNL1       -0.3810
     12 C          -1.7078    3.0231   20.3280 C.3     1  UNL1        0.0501
     13 C          -2.5113    3.8964   19.4105 C.3     1  UNL1        0.0749
     14 H           0.3420    1.3591   21.4199 H       1  UNL1        0.2107
     15 C           4.6887    1.1907   19.1933 C.ar    1  UNL1        0.1533
     16 C           5.0883    1.8491   17.9061 C.ar    1  UNL1        0.0582
     17 C           6.5344    1.9089   17.5117 C.ar    1  UNL1        0.1049
     18 N           7.5806    1.3102   18.4044 N.ar    1  UNL1       -0.2122
     19 C           7.1809    0.6518   19.6915 C.ar    1  UNL1        0.2182
     20 N           5.7350    0.5920   20.0860 N.ar    1  UNL1       -0.1960
     21 N           8.2272    0.0532   20.5842 N.pl3   1  UNL1       -0.3046
     22 H           8.9475    0.6184   20.9461 H       1  UNL1        0.1496
     23 C           8.1761   -1.4065   20.9255 C.3     1  UNL1        0.0718
     24 C           8.0175   -2.5351   19.9503 C.3     1  UNL1        0.0196
     25 C           8.0180   -3.8201   20.7241 C.3     1  UNL1        0.0017
     26 C           8.1770   -3.4857   22.1777 C.3     1  UNL1        0.0017
     27 C           8.2747   -1.9941   22.3022 C.3     1  UNL1        0.0196
     28 C           3.2207   -1.2850   20.7314 C.ar    1  UNL1        0.0345
     29 C           3.5929   -1.4833   22.1709 C.ar    1  UNL1        0.0030
     30 C           4.2457   -2.7614   22.6075 C.ar    1  UNL1        0.0000
     31 C           4.5262   -3.8410   21.6046 C.ar    1  UNL1        0.0039
     32 C           4.1540   -3.6426   20.1652 C.ar    1  UNL1        0.0715
     33 C           3.5013   -2.3646   19.7285 C.ar    1  UNL1        0.0069
     34 C           4.4346   -4.7222   19.1623 C.3     1  UNL1        0.4186
     35 F           4.7152   -5.8019   18.1595 F       1  UNL1       -0.1659
     36 F           3.5310   -5.6547   19.9133 F       1  UNL1       -0.1659
     37 F           5.3383   -3.7898   18.4113 F       1  UNL1       -0.1659
@<TRIPOS>BOND
     1     6     7    1
     2     7     8    1
     3     8     9    1
     4     9    10    1
     5    10    11    1
     6    10     1    1
     7     1     2   ar
     8     2     3   ar
     9     3    15    1
    10    15    16   ar
    11    16    17   ar
    12    17    18   ar
    13    18    19   ar
    14    19    21    1
    15    21    23    1
    16    23    24    1
    17    24    25    1
    18    25    26    1
    19    26    27    1
    20    19    20   ar
    21     3     4   ar
    22     4    28    1
    23    28    29   ar
    24    29    30   ar
    25    30    31   ar
    26    31    32   ar
    27    32    34    1
    28    34    35    1
    29    34    36    1
    30    34    37    1
    31    32    33   ar
    32     4     5   ar
    33    10    12    1
    34    12    13    1
    35    13     7    1
    36     5     1   ar
    37    20    15   ar
    38    33    28   ar
    39    27    23    1
    40    11    14    1
    41    21    22    1
@<TRIPOS>MOLECULE
*****
 37 41 0 0 0
SMALL
GASTEIGER

@<TRIPOS>ATOM
      1 C           2.2661    0.9277   19.5551 C.ar    1  UNL1        0.1022
      2 C           0.9778    1.4095   18.9568 C.ar    1  UNL1        0.0998
      3 N           0.2601    2.2214   19.9941 N.ar    1  UNL1       -0.2739
      4 C           1.1049    2.2413   21.2334 C.ar    1  UNL1        0.1485
      5 N           2.3448    1.4417   20.9620 N.ar    1  UNL1       -0.2284
      6 C           4.7925   -4.1628   18.8160 C.3     1  UNL1        0.0896
      7 N           4.2934   -2.7483   18.8330 N.3     1  UNL1       -0.2713
      8 C           3.1725   -2.3595   19.7508 C.3     1  UNL1        0.0749
      9 C           2.6734   -0.9451   19.7679 C.3     1  UNL1        0.0501
     10 C           3.2952    0.0805   18.8671 C.3     1  UNL1        0.1272
     11 O           3.5596    1.4004   18.2052 O.3     1  UNL1       -0.3810
     12 C           4.4161   -0.3083   17.9493 C.3     1  UNL1        0.0501
     13 C           4.9152   -1.7227   17.9322 C.3     1  UNL1        0.0749
     14 H           2.9511    2.0675   18.5596 H       1  UNL1        0.2107
     15 C          -1.0691    2.8951   19.8222 C.ar    1  UNL1        0.1533
     16 C          -1.2403    3.9615   18.7813 C.ar    1  UNL1        0.0582
     17 C          -2.5695    4.6352   18.6095 C.ar    1  UNL1        0.1049
     18 N          -3.7273    4.2425   19.4785 N.ar    1  UNL1       -0.2122
     19 C          -3.5560    3.1761   20.5194 C.ar    1  UNL1        0.2182
     20 N          -2.2269    2.5024   20.6913 N.ar    1  UNL1       -0.1960
     21 N          -4.7138    2.7834   21.3885 N.pl3   1  UNL1       -0.3046
     22 H          -5.4208    2.1985   21.0319 H       1  UNL1        0.1496
     23 C          -4.7944    3.2819   22.8009 C.3     1  UNL1        0.0718
     24 C          -6.0018    3.8848   23.4556 C.3     1  UNL1        0.0196
     25 C          -5.6354    4.2406   24.8660 C.3     1  UNL1        0.0017
     26 C          -4.2014    3.8576   25.0830 C.3     1  UNL1        0.0017
     27 C          -3.6817    3.2651   23.8067 C.3     1  UNL1        0.0196
     28 C           0.7691    2.9384   22.5183 C.ar    1  UNL1        0.0345
     29 C           1.0061    4.4132   22.6558 C.ar    1  UNL1        0.0030
     30 C           0.6702    5.1102   23.9409 C.ar    1  UNL1        0.0000
     31 C           0.0972    4.3324   25.0884 C.ar    1  UNL1        0.0039
     32 C          -0.1398    2.8577   24.9509 C.ar    1  UNL1        0.0715
     33 C           0.1960    2.1607   23.6659 C.ar    1  UNL1        0.0069
     34 C          -0.7129    2.0800   26.0985 C.3     1  UNL1        0.4186
     35 F          -1.2859    1.3023   27.2460 F       1  UNL1       -0.1659
     36 F          -0.1729    0.8111   25.5083 F       1  UNL1       -0.1659
     37 F          -1.2528    3.3489   26.6887 F       1  UNL1       -0.1659
@<TRIPOS>BOND
     1     6     7    1
     2     7     8    1
     3     8     9    1
     4     9    10    1
     5    10    11    1
     6    10     1    1
     7     1     2   ar
     8     2     3   ar
     9     3    15    1
    10    15    16   ar
    11    16    17   ar
    12    17    18   ar
    13    18    19   ar
    14    19    21    1
    15    21    23    1
    16    23    24    1
    17    24    25    1
    18    25    26    1
    19    26    27    1
    20    19    20   ar
    21     3     4   ar
    22     4    28    1
    23    28    29   ar
    24    29    30   ar
    25    30    31   ar
    26    31    32   ar
    27    32    34    1
    28    34    35    1
    29    34    36    1
    30    34    37    1
    31    32    33   ar
    32     4     5   ar
    33    10    12    1
    34    12    13    1
    35    13     7    1
    36     5     1   ar
    37    20    15   ar
    38    33    28   ar
    39    27    23    1
    40    11    14    1
    41    21    22    1
@<TRIPOS>MOLECULE
*****
 37 41 0 0 0
SMALL
GASTEIGER

@<TRIPOS>ATOM
      1 C           6.8605   -4.3682   25.8276 C.ar    1  UNL1        0.1022
      2 C           6.1782   -3.0489   26.0371 C.ar    1  UNL1        0.0998
      3 N           5.8311   -2.4876   24.6901 N.ar    1  UNL1       -0.2739
      4 C           6.2990   -3.4599   23.6481 C.ar    1  UNL1        0.1485
      5 N           6.9351   -4.6222   24.3512 N.ar    1  UNL1       -0.2284
      6 C           7.1837   -5.7775   31.3730 C.3     1  UNL1        0.0896
      7 N           7.2483   -5.6098   29.8838 N.3     1  UNL1       -0.2713
      8 C           6.5175   -4.4781   29.2241 C.3     1  UNL1        0.0749
      9 C           6.5821   -4.3104   27.7349 C.3     1  UNL1        0.0501
     10 C           7.3774   -5.2744   26.9054 C.3     1  UNL1        0.1272
     11 O           7.9932   -5.9237   25.7016 O.3     1  UNL1       -0.3810
     12 C           8.1081   -6.4061   27.5651 C.3     1  UNL1        0.0501
     13 C           8.0436   -6.5738   29.0543 C.3     1  UNL1        0.0749
     14 H           7.7397   -5.4329   24.9043 H       1  UNL1        0.2107
     15 C           5.1379   -1.1828   24.4306 C.ar    1  UNL1        0.1533
     16 C           5.5314    0.0419   25.2020 C.ar    1  UNL1        0.0582
     17 C           4.8382    1.3466   24.9425 C.ar    1  UNL1        0.1049
     18 N           3.7516    1.4265   23.9116 N.ar    1  UNL1       -0.2122
     19 C           3.3581    0.2017   23.1402 C.ar    1  UNL1        0.2182
     20 N           4.0513   -1.1029   23.3997 N.ar    1  UNL1       -0.1960
     21 N           2.2715    0.2816   22.1093 N.pl3   1  UNL1       -0.3046
     22 H           1.3313    0.3610   22.3903 H       1  UNL1        0.1496
     23 C           2.6172    0.2405   20.6503 C.3     1  UNL1        0.0718
     24 C           4.0005    0.1810   20.0733 C.3     1  UNL1        0.0196
     25 C           3.8786    0.1555   18.5785 C.3     1  UNL1        0.0017
     26 C           2.4198    0.1992   18.2316 C.3     1  UNL1        0.0017
     27 C           1.6403    0.2517   19.5120 C.3     1  UNL1        0.0196
     28 C           6.1558   -3.2983   22.1638 C.ar    1  UNL1        0.0345
     29 C           7.2314   -2.6097   21.3771 C.ar    1  UNL1        0.0030
     30 C           7.0882   -2.4482   19.8926 C.ar    1  UNL1        0.0000
     31 C           5.8693   -2.9752   19.1950 C.ar    1  UNL1        0.0039
     32 C           4.7938   -3.6637   19.9818 C.ar    1  UNL1        0.0715
     33 C           4.9369   -3.8253   21.4661 C.ar    1  UNL1        0.0069
     34 C           3.5749   -4.1907   19.2841 C.3     1  UNL1        0.4186
     35 F           2.3561   -4.7177   18.5864 F       1  UNL1       -0.1659
     36 F           4.3161   -5.4483   18.9391 F       1  UNL1       -0.1659
     37 F           2.8337   -2.9330   19.6290 F       1  UNL1       -0.1659
@<TRIPOS>BOND
     1     6     7    1
     2     7     8    1
     3     8     9    1
     4     9    10    1
     5    10    11    1
     6    10     1    1
     7     1     2   ar
     8     2     3   ar
     9     3    15    1
    10    15    16   ar
    11    16    17   ar
    12    17    18   ar
    13    18    19   ar
    14    19    21    1
    15    21    23    1
    16    23    24    1
    17    24    25    1
    18    25    26    1
    19    26    27    1
    20    19    20   ar
    21     3     4   ar
    22     4    28    1
    23    28    29   ar
    24    29    30   ar
    25    30    31   ar
    26    31    32   ar
    27    32    34    1
    28    34    35    1
    29    34    36    1
    30    34    37    1
    31    32    33   ar
    32     4     5   ar
    33    10    12    1
    34    12    13    1
    35    13     7    1
    36     5     1   ar
    37    20    15   ar
    38    33    28   ar
    39    27    23    1
    40    11    14    1
    41    21    22    1
@<TRIPOS>MOLECULE
*****
 37 41 0 0 0
SMALL
GASTEIGER

@<TRIPOS>ATOM
      1 C           5.4556   -2.0523   26.2061 C.ar    1  UNL1        0.1022
      2 C           6.6587   -2.7355   25.6267 C.ar    1  UNL1        0.0998
      3 N           6.4135   -2.9420   24.1614 N.ar    1  UNL1       -0.2739
      4 C           5.0589   -2.3865   23.8352 C.ar    1  UNL1        0.1485
      5 N           4.4669   -1.8365   25.0990 N.ar    1  UNL1       -0.2284
      6 C           2.1043   -0.0293   30.3916 C.3     1  UNL1        0.0896
      7 N           3.1606   -0.5710   29.4747 N.3     1  UNL1       -0.2713
      8 C           2.8442   -0.8186   28.0296 C.3     1  UNL1        0.0749
      9 C           3.9006   -1.3603   27.1127 C.3     1  UNL1        0.0501
     10 C           5.2732   -1.6545   27.6410 C.3     1  UNL1        0.1272
     11 O           6.7093   -2.0869   27.6710 O.3     1  UNL1       -0.3810
     12 C           5.5896   -1.4070   29.0861 C.3     1  UNL1        0.0501
     13 C           4.5333   -0.8652   30.0030 C.3     1  UNL1        0.0749
     14 H           6.9773   -2.3798   26.7860 H       1  UNL1        0.2107
     15 C           7.3573   -3.5903   23.1923 C.ar    1  UNL1        0.1533
     16 C           7.8232   -4.9968   23.4261 C.ar    1  UNL1        0.0582
     17 C           8.7669   -5.6452   22.4570 C.ar    1  UNL1        0.1049
     18 N           9.2447   -4.8870   21.2542 N.ar    1  UNL1       -0.2122
     19 C           8.7788   -3.4804   21.0204 C.ar    1  UNL1        0.2182
     20 N           7.8351   -2.8321   21.9894 N.ar    1  UNL1       -0.1960
     21 N           9.2566   -2.7223   19.8176 N.pl3   1  UNL1       -0.3046
     22 H          10.1776   -2.8452   19.4921 H       1  UNL1        0.1496
     23 C           8.3313   -1.7768   19.1106 C.3     1  UNL1        0.0718
     24 C           7.1212   -2.1598   18.3113 C.3     1  UNL1        0.0196
     25 C           6.4956   -0.9020   17.7855 C.3     1  UNL1        0.0017
     26 C           7.3191    0.2586   18.2599 C.3     1  UNL1        0.0017
     27 C           8.4536   -0.2821   19.0789 C.3     1  UNL1        0.0196
     28 C           4.4102   -2.3816   22.4828 C.ar    1  UNL1        0.0345
     29 C           3.4794   -1.2689   22.1013 C.ar    1  UNL1        0.0030
     30 C           2.8307   -1.2641   20.7488 C.ar    1  UNL1        0.0000
     31 C           3.1128   -2.3720   19.7778 C.ar    1  UNL1        0.0039
     32 C           4.0436   -3.4847   20.1593 C.ar    1  UNL1        0.0715
     33 C           4.6923   -3.4896   21.5117 C.ar    1  UNL1        0.0069
     34 C           4.3256   -4.5927   19.1882 C.3     1  UNL1        0.4186
     35 F           4.6077   -5.7006   18.2171 F       1  UNL1       -0.1659
     36 F           2.9071   -4.5301   18.7046 F       1  UNL1       -0.1659
     37 F           5.7442   -4.6554   19.6717 F       1  UNL1       -0.1659
@<TRIPOS>BOND
     1     6     7    1
     2     7     8    1
     3     8     9    1
     4     9    10    1
     5    10    11    1
     6    10     1    1
     7     1     2   ar
     8     2     3   ar
     9     3    15    1
    10    15    16   ar
    11    16    17   ar
    12    17    18   ar
    13    18    19   ar
    14    19    21    1
    15    21    23    1
    16    23    24    1
    17    24    25    1
    18    25    26    1
    19    26    27    1
    20    19    20   ar
    21     3     4   ar
    22     4    28    1
    23    28    29   ar
    24    29    30   ar
    25    30    31   ar
    26    31    32   ar
    27    32    34    1
    28    34    35    1
    29    34    36    1
    30    34    37    1
    31    32    33   ar
    32     4     5   ar
    33    10    12    1
    34    12    13    1
    35    13     7    1
    36     5     1   ar
    37    20    15   ar
    38    33    28   ar
    39    27    23    1
    40    11    14    1
    41    21    22    1
@<TRIPOS>MOLECULE
*****
 37 41 0 0 0
SMALL
GASTEIGER

@<TRIPOS>ATOM
      1 C           6.6007   -4.5063   24.0724 C.ar    1  UNL1        0.1022
      2 C           6.3261   -3.3388   24.9731 C.ar    1  UNL1        0.0998
      3 N           5.4095   -2.3990   24.2474 N.ar    1  UNL1       -0.2739
      4 C           5.1177   -2.9857   22.8981 C.ar    1  UNL1        0.1485
      5 N           5.8539   -4.2881   22.7899 N.ar    1  UNL1       -0.2284
      6 C           8.6784   -8.2102   27.9203 C.3     1  UNL1        0.0896
      7 N           8.2755   -7.3685   26.7459 N.3     1  UNL1       -0.2713
      8 C           7.3192   -6.2282   26.9333 C.3     1  UNL1        0.0749
      9 C           6.9163   -5.3865   25.7589 C.3     1  UNL1        0.0501
     10 C           7.4697   -5.6851   24.3971 C.3     1  UNL1        0.1272
     11 O           7.7213   -5.5743   22.9225 O.3     1  UNL1       -0.3810
     12 C           8.4260   -6.8254   24.2097 C.3     1  UNL1        0.0501
     13 C           8.8289   -7.6671   25.3841 C.3     1  UNL1        0.0749
     14 H           7.2106   -4.8326   22.5621 H       1  UNL1        0.2107
     15 C           4.8780   -1.1004   24.7778 C.ar    1  UNL1        0.1533
     16 C           5.5660    0.1876   24.4347 C.ar    1  UNL1        0.0582
     17 C           5.0345    1.4862   24.9651 C.ar    1  UNL1        0.1049
     18 N           3.8151    1.4967   25.8386 N.ar    1  UNL1       -0.2122
     19 C           3.1272    0.2086   26.1817 C.ar    1  UNL1        0.2182
     20 N           3.6587   -1.0899   25.6513 N.ar    1  UNL1       -0.1960
     21 N           1.9078    0.2192   27.0552 N.pl3   1  UNL1       -0.3046
     22 H           1.8774   -0.3403   27.8647 H       1  UNL1        0.1496
     23 C           0.7349    1.0820   26.6953 C.3     1  UNL1        0.0718
     24 C          -0.1273    1.8441   27.6575 C.3     1  UNL1        0.0196
     25 C          -1.1769    2.5674   26.8669 C.3     1  UNL1        0.0017
     26 C          -0.9635    2.2523   25.4160 C.3     1  UNL1        0.0017
     27 C           0.2180    1.3343   25.3099 C.3     1  UNL1        0.0196
     28 C           4.2432   -2.3770   21.8423 C.ar    1  UNL1        0.0345
     29 C           4.4131   -2.7755   20.4062 C.ar    1  UNL1        0.0030
     30 C           3.5386   -2.1667   19.3505 C.ar    1  UNL1        0.0000
     31 C           2.4942   -1.1594   19.7308 C.ar    1  UNL1        0.0039
     32 C           2.3244   -0.7609   21.1669 C.ar    1  UNL1        0.0715
     33 C           3.1988   -1.3696   22.2226 C.ar    1  UNL1        0.0069
     34 C           1.2800    0.2464   21.5471 C.3     1  UNL1        0.4186
     35 F           0.2356    1.2537   21.9274 F       1  UNL1       -0.1659
     36 F           0.4121   -0.2275   20.4193 F       1  UNL1       -0.1659
     37 F           2.1478    0.7204   22.6751 F       1  UNL1       -0.1659
@<TRIPOS>BOND
     1     6     7    1
     2     7     8    1
     3     8     9    1
     4     9    10    1
     5    10    11    1
     6    10     1    1
     7     1     2   ar
     8     2     3   ar
     9     3    15    1
    10    15    16   ar
    11    16    17   ar
    12    17    18   ar
    13    18    19   ar
    14    19    21    1
    15    21    23    1
    16    23    24    1
    17    24    25    1
    18    25    26    1
    19    26    27    1
    20    19    20   ar
    21     3     4   ar
    22     4    28    1
    23    28    29   ar
    24    29    30   ar
    25    30    31   ar
    26    31    32   ar
    27    32    34    1
    28    34    35    1
    29    34    36    1
    30    34    37    1
    31    32    33   ar
    32     4     5   ar
    33    10    12    1
    34    12    13    1
    35    13     7    1
    36     5     1   ar
    37    20    15   ar
    38    33    28   ar
    39    27    23    1
    40    11    14    1
    41    21    22    1
@<TRIPOS>MOLECULE
*****
 37 41 0 0 0
SMALL
GASTEIGER

@<TRIPOS>ATOM
      1 C           3.9041   -1.0117   25.6693 C.ar    1  UNL1        0.1022
      2 C           5.3395   -1.4041   25.4809 C.ar    1  UNL1        0.0998
      3 N           5.5379   -1.7565   24.0364 N.ar    1  UNL1       -0.2739
      4 C           4.2251   -1.5819   23.3322 C.ar    1  UNL1        0.1485
      5 N           3.2153   -1.1216   24.3414 N.ar    1  UNL1       -0.2284
      6 C           1.5859    3.1004   28.9187 C.3     1  UNL1        0.0896
      7 N           2.1469    1.8721   28.2656 N.3     1  UNL1       -0.2713
      8 C           2.7042    1.9501   26.8751 C.3     1  UNL1        0.0749
      9 C           3.2652    0.7218   26.2220 C.3     1  UNL1        0.0501
     10 C           3.2689   -0.5845   26.9593 C.3     1  UNL1        0.1272
     11 O           3.4933   -2.0391   27.2487 O.3     1  UNL1       -0.3810
     12 C           2.7117   -0.6624   28.3498 C.3     1  UNL1        0.0501
     13 C           2.1507    0.5659   29.0029 C.3     1  UNL1        0.0749
     14 H           3.9107   -2.4608   26.4813 H       1  UNL1        0.2107
     15 C           6.8235   -2.2048   23.4068 C.ar    1  UNL1        0.1533
     16 C           7.5607   -3.3854   23.9659 C.ar    1  UNL1        0.0582
     17 C           8.8463   -3.8337   23.3362 C.ar    1  UNL1        0.1049
     18 N           9.3945   -3.1013   22.1474 N.ar    1  UNL1       -0.2122
     19 C           8.6572   -1.9207   21.5884 C.ar    1  UNL1        0.2182
     20 N           7.3717   -1.4724   22.2180 N.ar    1  UNL1       -0.1960
     21 N           9.2055   -1.1884   20.3996 N.pl3   1  UNL1       -0.3046
     22 H          10.1687   -0.9930   20.3432 H       1  UNL1        0.1496
     23 C           8.2862   -0.7538   19.2970 C.3     1  UNL1        0.0718
     24 C           7.2032   -1.5834   18.6734 C.3     1  UNL1        0.0196
     25 C           6.5361   -0.7555   17.6153 C.3     1  UNL1        0.0017
     26 C           7.2070    0.5858   17.5848 C.3     1  UNL1        0.0017
     27 C           8.2885    0.5869   18.6241 C.3     1  UNL1        0.0196
     28 C           3.9673   -1.8249   21.8746 C.ar    1  UNL1        0.0345
     29 C           3.3923   -0.7325   21.0224 C.ar    1  UNL1        0.0030
     30 C           3.1345   -0.9756   19.5648 C.ar    1  UNL1        0.0000
     31 C           3.4517   -2.3109   18.9595 C.ar    1  UNL1        0.0039
     32 C           4.0266   -3.4031   19.8118 C.ar    1  UNL1        0.0715
     33 C           4.2844   -3.1602   21.2693 C.ar    1  UNL1        0.0069
     34 C           4.3438   -4.7385   19.2064 C.3     1  UNL1        0.4186
     35 F           4.6609   -6.0738   18.6011 F       1  UNL1       -0.1659
     36 F           5.1516   -4.0625   18.1385 F       1  UNL1       -0.1659
     37 F           3.5360   -5.4145   20.2744 F       1  UNL1       -0.1659
@<TRIPOS>BOND
     1     6     7    1
     2     7     8    1
     3     8     9    1
     4     9    10    1
     5    10    11    1
     6    10     1    1
     7     1     2   ar
     8     2     3   ar
     9     3    15    1
    10    15    16   ar
    11    16    17   ar
    12    17    18   ar
    13    18    19   ar
    14    19    21    1
    15    21    23    1
    16    23    24    1
    17    24    25    1
    18    25    26    1
    19    26    27    1
    20    19    20   ar
    21     3     4   ar
    22     4    28    1
    23    28    29   ar
    24    29    30   ar
    25    30    31   ar
    26    31    32   ar
    27    32    34    1
    28    34    35    1
    29    34    36    1
    30    34    37    1
    31    32    33   ar
    32     4     5   ar
    33    10    12    1
    34    12    13    1
    35    13     7    1
    36     5     1   ar
    37    20    15   ar
    38    33    28   ar
    39    27    23    1
    40    11    14    1
    41    21    22    1
@<TRIPOS>MOLECULE
*****
 37 41 0 0 0
SMALL
GASTEIGER

@<TRIPOS>ATOM
      1 C           7.2336   -5.0252   23.9685 C.ar    1  UNL1        0.1022
      2 C           6.6068   -3.7949   24.5545 C.ar    1  UNL1        0.0998
      3 N           6.0064   -3.0012   23.4323 N.ar    1  UNL1       -0.2739
      4 C           6.2621   -3.7408   22.1527 C.ar    1  UNL1        0.1485
      5 N           7.0207   -4.9918   22.4841 N.ar    1  UNL1       -0.2284
      6 C           8.8575   -7.2888   28.9766 C.3     1  UNL1        0.0896
      7 N           8.5543   -6.8926   27.5620 N.3     1  UNL1       -0.2713
      8 C           7.7531   -5.6551   27.2850 C.3     1  UNL1        0.0749
      9 C           7.4500   -5.2589   25.8704 C.3     1  UNL1        0.0501
     10 C           7.9480   -6.1001   24.7328 C.3     1  UNL1        0.1272
     11 O           8.1980   -6.5681   23.3297 O.3     1  UNL1       -0.3810
     12 C           8.7493   -7.3376   25.0098 C.3     1  UNL1        0.0501
     13 C           9.0524   -7.7338   26.4244 C.3     1  UNL1        0.0749
     14 H           7.7827   -5.9531   22.7050 H       1  UNL1        0.2107
     15 C           5.2780   -1.6967   23.5661 C.ar    1  UNL1        0.1533
     16 C           5.8440   -0.6066   24.4271 C.ar    1  UNL1        0.0582
     17 C           5.1156    0.6979   24.5609 C.ar    1  UNL1        0.1049
     18 N           3.8213    0.9123   23.8338 N.ar    1  UNL1       -0.2122
     19 C           3.2553   -0.1779   22.9728 C.ar    1  UNL1        0.2182
     20 N           3.9836   -1.4823   22.8389 N.ar    1  UNL1       -0.1960
     21 N           1.9610    0.0365   22.2456 N.pl3   1  UNL1       -0.3046
     22 H           1.1114    0.0381   22.7430 H       1  UNL1        0.1496
     23 C           1.9611    0.2483   20.7607 C.3     1  UNL1        0.0718
     24 C           0.7554    0.5080   19.9070 C.3     1  UNL1        0.0196
     25 C           1.2161    0.6579   18.4873 C.3     1  UNL1        0.0017
     26 C           2.7066    0.4908   18.4637 C.3     1  UNL1        0.0017
     27 C           3.1670    0.2377   19.8686 C.3     1  UNL1        0.0196
     28 C           5.8346   -3.3060   20.7823 C.ar    1  UNL1        0.0345
     29 C           4.6551   -3.9572   20.1227 C.ar    1  UNL1        0.0030
     30 C           4.2276   -3.5223   18.7522 C.ar    1  UNL1        0.0000
     31 C           4.9794   -2.4363   18.0414 C.ar    1  UNL1        0.0039
     32 C           6.1588   -1.7852   18.7010 C.ar    1  UNL1        0.0715
     33 C           6.5864   -2.2200   20.0714 C.ar    1  UNL1        0.0069
     34 C           6.9106   -0.6992   17.9901 C.3     1  UNL1        0.4186
     35 F           7.6624    0.3869   17.2791 F       1  UNL1       -0.1659
     36 F           8.1451   -1.0434   18.7695 F       1  UNL1       -0.1659
     37 F           5.6761   -0.3548   17.2106 F       1  UNL1       -0.1659
@<TRIPOS>BOND
     1     6     7    1
     2     7     8    1
     3     8     9    1
     4     9    10    1
     5    10    11    1
     6    10     1    1
     7     1     2   ar
     8     2     3   ar
     9     3    15    1
    10    15    16   ar
    11    16    17   ar
    12    17    18   ar
    13    18    19   ar
    14    19    21    1
    15    21    23    1
    16    23    24    1
    17    24    25    1
    18    25    26    1
    19    26    27    1
    20    19    20   ar
    21     3     4   ar
    22     4    28    1
    23    28    29   ar
    24    29    30   ar
    25    30    31   ar
    26    31    32   ar
    27    32    34    1
    28    34    35    1
    29    34    36    1
    30    34    37    1
    31    32    33   ar
    32     4     5   ar
    33    10    12    1
    34    12    13    1
    35    13     7    1
    36     5     1   ar
    37    20    15   ar
    38    33    28   ar
    39    27    23    1
    40    11    14    1
    41    21    22    1
