@<TRIPOS>MOLECULE
*****
 35 37 0 0 0
SMALL
GASTEIGER

@<TRIPOS>ATOM
      1 C          -6.6788  -17.6232   22.7150 C.ar    1  UNL1       -0.0022
      2 C          -5.2274  -17.4416   23.0472 C.ar    1  UNL1        0.0012
      3 C          -4.2250  -18.4715   22.6175 C.ar    1  UNL1        0.0712
      4 C          -4.6741  -19.6830   21.8555 C.ar    1  UNL1        0.0038
      5 C          -6.1255  -19.8646   21.5232 C.ar    1  UNL1       -0.0002
      6 C          -7.1279  -18.8347   21.9530 C.ar    1  UNL1        0.0005
      7 C          -8.5793  -19.0163   21.6208 C.ar    1  UNL1        0.0334
      8 C          -9.2098  -18.1914   20.5380 C.ar    1  UNL1       -0.0009
      9 C         -10.6612  -18.3730   20.2058 C.ar    1  UNL1       -0.0164
     10 C         -11.4822  -19.3795   20.9563 C.ar    1  UNL1       -0.0008
     11 C         -10.8517  -20.2042   22.0389 C.ar    1  UNL1        0.0366
     12 C          -9.4003  -20.0226   22.3712 C.ar    1  UNL1        0.1386
     13 O          -8.7698  -20.8474   23.4538 O.3     1  UNL1       -0.4714
     14 C          -9.5657  -21.2269   24.6674 C.3     1  UNL1        0.2525
     15 C         -11.2916  -17.5482   19.1231 C.3     1  UNL1        0.0679
     16 C         -11.5800  -16.0952   19.3589 C.2     1  UNL1        0.0547
     17 O         -12.9983  -15.6219   19.4787 O.co2   1  UNL1       -0.5488
     18 O         -10.4500  -15.1155   19.4749 O.co2   1  UNL1       -0.5488
     19 C          -2.7736  -18.2899   22.9498 C.3     1  UNL1        0.4186
     20 F          -1.3222  -18.1083   23.2820 F       1  UNL1       -0.1659
     21 F          -2.3969  -18.8493   21.6100 F       1  UNL1       -0.1659
     22 F          -3.1503  -17.7304   24.2896 F       1  UNL1       -0.1659
     23 C          -7.6811  -16.5934   23.1447 C.3     1  UNL1        0.1238
     24 C          -7.6740  -15.6922   25.5815 C.2     1  UNL1        0.4055
     25 O          -8.2231  -15.7166   26.9772 O.2     1  UNL1       -0.2262
     26 N          -8.2303  -16.6178   24.5404 N.am    1  UNL1       -0.2378
     27 C          -5.1816  -14.9777   25.7470 C.3     1  UNL1        0.2573
     28 O          -6.5687  -14.7422   25.2269 O.3     1  UNL1       -0.4304
     29 C          -9.3356  -17.5678   24.8950 C.3     1  UNL1        0.1238
     30 C         -10.6877  -17.4145   24.2637 C.ar    1  UNL1       -0.0022
     31 C         -10.9405  -16.2982   23.2942 C.ar    1  UNL1       -0.0026
     32 C         -12.2926  -16.1449   22.6630 C.ar    1  UNL1       -0.0003
     33 C         -13.3918  -17.1079   23.0014 C.ar    1  UNL1       -0.0000
     34 C         -13.1389  -18.2241   23.9709 C.ar    1  UNL1       -0.0003
     35 C         -11.7869  -18.3774   24.6021 C.ar    1  UNL1       -0.0026
@<TRIPOS>UNITY_ATOM_ATTR
17 1
charge -1
@<TRIPOS>BOND
     1    27    28    1
     2    28    24    1
     3    24    25    2
     4    24    26   am
     5    26    29    1
     6    29    30    1
     7    30    31   ar
     8    31    32   ar
     9    32    33   ar
    10    33    34   ar
    11    34    35   ar
    12    26    23    1
    13    23     1    1
    14     1     2   ar
    15     2     3   ar
    16     3    19    1
    17    19    20    1
    18    19    21    1
    19    19    22    1
    20     3     4   ar
    21     4     5   ar
    22     5     6   ar
    23     6     7    1
    24     7     8   ar
    25     8     9   ar
    26     9    15    1
    27    15    16    1
    28    16    17   ar
    29    16    18   ar
    30     9    10   ar
    31    10    11   ar
    32    11    12   ar
    33    12    13    1
    34    13    14    1
    35    35    30   ar
    36     6     1   ar
    37    12     7   ar
@<TRIPOS>MOLECULE
*****
 35 37 0 0 0
SMALL
GASTEIGER

@<TRIPOS>ATOM
      1 C          -7.1060  -16.9783   23.1029 C.ar    1  UNL1       -0.0022
      2 C          -6.1087  -16.2144   23.9227 C.ar    1  UNL1        0.0012
      3 C          -6.5150  -15.6267   25.2416 C.ar    1  UNL1        0.0712
      4 C          -7.9185  -15.8028   25.7407 C.ar    1  UNL1        0.0038
      5 C          -8.9158  -16.5666   24.9210 C.ar    1  UNL1       -0.0002
      6 C          -8.5095  -17.1544   23.6021 C.ar    1  UNL1        0.0005
      7 C          -9.5067  -17.9183   22.7823 C.ar    1  UNL1        0.0334
      8 C         -10.0451  -17.3265   21.5134 C.ar    1  UNL1       -0.0009
      9 C         -11.0423  -18.0904   20.6937 C.ar    1  UNL1       -0.0164
     10 C         -11.5012  -19.4461   21.1428 C.ar    1  UNL1       -0.0008
     11 C         -10.9628  -20.0378   22.4116 C.ar    1  UNL1        0.0366
     12 C          -9.9656  -19.2739   23.2314 C.ar    1  UNL1        0.1386
     13 O          -9.4272  -19.8656   24.5002 O.3     1  UNL1       -0.4714
     14 C          -9.6388  -21.3205   24.7982 C.3     1  UNL1        0.2525
     15 C         -11.5807  -17.4986   19.4248 C.3     1  UNL1        0.0679
     16 C         -11.8604  -16.0272   19.3432 C.2     1  UNL1        0.0547
     17 O         -10.7805  -15.0815   18.9079 O.co2   1  UNL1       -0.5488
     18 O         -13.2201  -15.5015   19.6967 O.co2   1  UNL1       -0.5488
     19 C          -5.5177  -14.8628   26.0613 C.3     1  UNL1        0.4186
     20 F          -4.5205  -14.0989   26.8811 F       1  UNL1       -0.1659
     21 F          -6.4540  -14.8975   27.2327 F       1  UNL1       -0.1659
     22 F          -4.5815  -14.8280   24.8899 F       1  UNL1       -0.1659
     23 C          -6.6997  -17.5660   21.7841 C.3     1  UNL1        0.1238
     24 C          -6.6374  -20.0654   21.0774 C.2     1  UNL1        0.4055
     25 O          -5.9258  -21.3851   21.0317 O.2     1  UNL1       -0.2262
     26 N          -5.9881  -18.8858   21.7384 N.am    1  UNL1       -0.2378
     27 C          -8.1326  -19.6431   18.9950 C.3     1  UNL1        0.2573
     28 O          -7.9982  -19.9254   20.4621 O.3     1  UNL1       -0.4304
     29 C          -4.6273  -19.0258   22.3536 C.3     1  UNL1        0.1238
     30 C          -3.4392  -18.3840   21.7004 C.ar    1  UNL1       -0.0022
     31 C          -2.9141  -17.0773   22.2169 C.ar    1  UNL1       -0.0026
     32 C          -1.7261  -16.4357   21.5637 C.ar    1  UNL1       -0.0003
     33 C          -1.0631  -17.1006   20.3940 C.ar    1  UNL1       -0.0000
     34 C          -1.5882  -18.4073   19.8775 C.ar    1  UNL1       -0.0003
     35 C          -2.7763  -19.0490   20.5307 C.ar    1  UNL1       -0.0026
@<TRIPOS>UNITY_ATOM_ATTR
17 1
charge -1
@<TRIPOS>BOND
     1    27    28    1
     2    28    24    1
     3    24    25    2
     4    24    26   am
     5    26    29    1
     6    29    30    1
     7    30    31   ar
     8    31    32   ar
     9    32    33   ar
    10    33    34   ar
    11    34    35   ar
    12    26    23    1
    13    23     1    1
    14     1     2   ar
    15     2     3   ar
    16     3    19    1
    17    19    20    1
    18    19    21    1
    19    19    22    1
    20     3     4   ar
    21     4     5   ar
    22     5     6   ar
    23     6     7    1
    24     7     8   ar
    25     8     9   ar
    26     9    15    1
    27    15    16    1
    28    16    17   ar
    29    16    18   ar
    30     9    10   ar
    31    10    11   ar
    32    11    12   ar
    33    12    13    1
    34    13    14    1
    35    35    30   ar
    36     6     1   ar
    37    12     7   ar
@<TRIPOS>MOLECULE
*****
 35 37 0 0 0
SMALL
GASTEIGER

@<TRIPOS>ATOM
      1 C          -6.0309  -18.4765   22.1482 C.ar    1  UNL1       -0.0022
      2 C          -4.5477  -18.2600   22.0911 C.ar    1  UNL1        0.0012
      3 C          -3.7446  -18.8602   20.9754 C.ar    1  UNL1        0.0712
      4 C          -4.4246  -19.6770   19.9169 C.ar    1  UNL1        0.0038
      5 C          -5.9078  -19.8935   19.9740 C.ar    1  UNL1       -0.0002
      6 C          -6.7109  -19.2932   21.0897 C.ar    1  UNL1        0.0005
      7 C          -8.1941  -19.5097   21.1469 C.ar    1  UNL1        0.0334
      8 C          -8.8764  -19.6821   22.4716 C.ar    1  UNL1       -0.0009
      9 C         -10.3596  -19.8986   22.5288 C.ar    1  UNL1       -0.0164
     10 C         -11.1605  -19.9427   21.2612 C.ar    1  UNL1       -0.0008
     11 C         -10.4782  -19.7703   19.9366 C.ar    1  UNL1        0.0366
     12 C          -8.9950  -19.5539   19.8794 C.ar    1  UNL1        0.1386
     13 O          -8.3127  -19.3815   18.5548 O.3     1  UNL1       -0.4714
     14 C          -8.4643  -20.4284   17.4912 C.3     1  UNL1        0.2525
     15 C         -11.0419  -20.0709   23.8534 C.3     1  UNL1        0.0679
     16 C         -10.2281  -20.1589   25.1104 C.2     1  UNL1        0.0547
     17 O          -9.8237  -18.9071   25.8311 O.co2   1  UNL1       -0.5488
     18 O          -9.8187  -21.4986   25.6466 O.co2   1  UNL1       -0.5488
     19 C          -2.2614  -18.6438   20.9183 C.3     1  UNL1        0.4186
     20 F          -0.7782  -18.4273   20.8611 F       1  UNL1       -0.1659
     21 F          -2.0425  -19.9653   21.5932 F       1  UNL1       -0.1659
     22 F          -2.4803  -17.3222   20.2433 F       1  UNL1       -0.1659
     23 C          -6.8340  -17.8763   23.2639 C.3     1  UNL1        0.1238
     24 C          -6.9350  -15.4787   24.2596 C.2     1  UNL1        0.4055
     25 O          -7.3941  -14.0535   24.1708 O.2     1  UNL1       -0.2262
     26 N          -7.2931  -16.4510   23.1750 N.am    1  UNL1       -0.2378
     27 C          -6.5268  -15.5485   26.8245 C.3     1  UNL1        0.2573
     28 O          -6.1178  -15.9317   25.4331 O.3     1  UNL1       -0.4304
     29 C          -8.1103  -15.9981   22.0015 C.3     1  UNL1        0.1238
     30 C          -9.5983  -16.1878   22.0058 C.ar    1  UNL1       -0.0022
     31 C         -10.3639  -16.1422   20.7167 C.ar    1  UNL1       -0.0026
     32 C         -11.8518  -16.3319   20.7211 C.ar    1  UNL1       -0.0003
     33 C         -12.5741  -16.5672   22.0145 C.ar    1  UNL1       -0.0000
     34 C         -11.8085  -16.6128   23.3035 C.ar    1  UNL1       -0.0003
     35 C         -10.3206  -16.4231   23.2992 C.ar    1  UNL1       -0.0026
@<TRIPOS>UNITY_ATOM_ATTR
17 1
charge -1
@<TRIPOS>BOND
     1    27    28    1
     2    28    24    1
     3    24    25    2
     4    24    26   am
     5    26    29    1
     6    29    30    1
     7    30    31   ar
     8    31    32   ar
     9    32    33   ar
    10    33    34   ar
    11    34    35   ar
    12    26    23    1
    13    23     1    1
    14     1     2   ar
    15     2     3   ar
    16     3    19    1
    17    19    20    1
    18    19    21    1
    19    19    22    1
    20     3     4   ar
    21     4     5   ar
    22     5     6   ar
    23     6     7    1
    24     7     8   ar
    25     8     9   ar
    26     9    15    1
    27    15    16    1
    28    16    17   ar
    29    16    18   ar
    30     9    10   ar
    31    10    11   ar
    32    11    12   ar
    33    12    13    1
    34    13    14    1
    35    35    30   ar
    36     6     1   ar
    37    12     7   ar
@<TRIPOS>MOLECULE
*****
 35 37 0 0 0
SMALL
GASTEIGER

@<TRIPOS>ATOM
      1 C          -7.6584  -17.4594   21.8844 C.ar    1  UNL1       -0.0022
      2 C          -6.3130  -17.9077   21.3958 C.ar    1  UNL1        0.0012
      3 C          -6.1793  -19.2013   20.6484 C.ar    1  UNL1        0.0712
      4 C          -7.3911  -20.0467   20.3896 C.ar    1  UNL1        0.0038
      5 C          -8.7366  -19.5984   20.8782 C.ar    1  UNL1       -0.0002
      6 C          -8.8702  -18.3047   21.6256 C.ar    1  UNL1        0.0005
      7 C         -10.2157  -17.8564   22.1142 C.ar    1  UNL1        0.0334
      8 C         -10.8135  -18.4785   23.3413 C.ar    1  UNL1       -0.0009
      9 C         -12.1590  -18.0302   23.8298 C.ar    1  UNL1       -0.0164
     10 C         -12.9066  -16.9597   23.0914 C.ar    1  UNL1       -0.0008
     11 C         -12.3088  -16.3376   21.8644 C.ar    1  UNL1        0.0366
     12 C         -10.9633  -16.7860   21.3758 C.ar    1  UNL1        0.1386
     13 O         -10.3654  -16.1639   20.1489 O.3     1  UNL1       -0.4714
     14 C         -11.2541  -15.5266   19.1220 C.3     1  UNL1        0.2525
     15 C         -12.7569  -18.6523   25.0568 C.3     1  UNL1        0.0679
     16 C         -14.2441  -18.6468   25.2517 C.2     1  UNL1        0.0547
     17 O         -14.8213  -18.8260   26.6246 O.co2   1  UNL1       -0.5488
     18 O         -15.1543  -18.4622   24.0737 O.co2   1  UNL1       -0.5488
     19 C          -4.8338  -19.6496   20.1598 C.3     1  UNL1        0.4186
     20 F          -3.4883  -20.0979   19.6712 F       1  UNL1       -0.1659
     21 F          -4.4348  -18.2195   19.9464 F       1  UNL1       -0.1659
     22 F          -5.2328  -21.0797   20.3733 F       1  UNL1       -0.1659
     23 C          -7.7921  -16.1657   22.6318 C.3     1  UNL1        0.1238
     24 C          -7.4479  -16.2019   25.2067 C.2     1  UNL1        0.4055
     25 O          -6.5871  -15.9363   26.4061 O.2     1  UNL1       -0.2262
     26 N          -6.9313  -15.9001   23.8312 N.am    1  UNL1       -0.2378
     27 C          -9.1841  -17.4874   26.6500 C.3     1  UNL1        0.2573
     28 O          -8.8252  -16.7695   25.3828 O.3     1  UNL1       -0.4304
     29 C          -5.5541  -15.3325   23.6550 C.3     1  UNL1        0.1238
     30 C          -4.4179  -16.2295   23.2618 C.ar    1  UNL1       -0.0022
     31 C          -4.3401  -17.6245   23.8075 C.ar    1  UNL1       -0.0026
     32 C          -3.2040  -18.5214   23.4143 C.ar    1  UNL1       -0.0003
     33 C          -2.1456  -18.0232   22.4753 C.ar    1  UNL1       -0.0000
     34 C          -2.2234  -16.6282   21.9295 C.ar    1  UNL1       -0.0003
     35 C          -3.3595  -15.7314   22.3228 C.ar    1  UNL1       -0.0026
@<TRIPOS>UNITY_ATOM_ATTR
17 1
charge -1
@<TRIPOS>BOND
     1    27    28    1
     2    28    24    1
     3    24    25    2
     4    24    26   am
     5    26    29    1
     6    29    30    1
     7    30    31   ar
     8    31    32   ar
     9    32    33   ar
    10    33    34   ar
    11    34    35   ar
    12    26    23    1
    13    23     1    1
    14     1     2   ar
    15     2     3   ar
    16     3    19    1
    17    19    20    1
    18    19    21    1
    19    19    22    1
    20     3     4   ar
    21     4     5   ar
    22     5     6   ar
    23     6     7    1
    24     7     8   ar
    25     8     9   ar
    26     9    15    1
    27    15    16    1
    28    16    17   ar
    29    16    18   ar
    30     9    10   ar
    31    10    11   ar
    32    11    12   ar
    33    12    13    1
    34    13    14    1
    35    35    30   ar
    36     6     1   ar
    37    12     7   ar
@<TRIPOS>MOLECULE
*****
 35 37 0 0 0
SMALL
GASTEIGER

@<TRIPOS>ATOM
      1 C          -8.2857  -18.4405   22.3955 C.ar    1  UNL1       -0.0022
      2 C          -9.5735  -18.3015   23.1520 C.ar    1  UNL1        0.0012
      3 C         -10.1017  -19.4552   23.9520 C.ar    1  UNL1        0.0712
      4 C          -9.3420  -20.7479   23.9956 C.ar    1  UNL1        0.0038
      5 C          -8.0542  -20.8869   23.2392 C.ar    1  UNL1       -0.0002
      6 C          -7.5260  -19.7332   22.4391 C.ar    1  UNL1        0.0005
      7 C          -6.2382  -19.8722   21.6827 C.ar    1  UNL1        0.0334
      8 C          -4.9561  -19.3829   22.2884 C.ar    1  UNL1       -0.0009
      9 C          -3.6683  -19.5219   21.5319 C.ar    1  UNL1       -0.0164
     10 C          -3.6626  -20.1501   20.1698 C.ar    1  UNL1       -0.0008
     11 C          -4.9447  -20.6394   19.5642 C.ar    1  UNL1        0.0366
     12 C          -6.2325  -20.5004   20.3206 C.ar    1  UNL1        0.1386
     13 O          -7.5146  -20.9896   19.7150 O.3     1  UNL1       -0.4714
     14 C          -8.4422  -20.0229   19.0401 C.3     1  UNL1        0.2525
     15 C          -2.3862  -19.0327   22.1375 C.3     1  UNL1        0.0679
     16 C          -1.5335  -18.0477   21.3942 C.2     1  UNL1        0.0547
     17 O          -1.7837  -16.5763   21.5436 O.co2   1  UNL1       -0.5488
     18 O          -0.4305  -18.5341   20.5014 O.co2   1  UNL1       -0.5488
     19 C         -11.3895  -19.3162   24.7085 C.3     1  UNL1        0.4186
     20 F         -12.6773  -19.1772   25.4649 F       1  UNL1       -0.1659
     21 F         -12.0096  -18.6310   23.5269 F       1  UNL1       -0.1659
     22 F         -10.7694  -20.0014   25.8900 F       1  UNL1       -0.1659
     23 C          -7.7576  -17.2869   21.5955 C.3     1  UNL1        0.1238
     24 C          -9.7202  -15.7891   20.7862 C.2     1  UNL1        0.4055
     25 O         -10.4420  -14.4743   20.7996 O.2     1  UNL1       -0.2262
     26 N          -8.4793  -15.9720   21.6089 N.am    1  UNL1       -0.2378
     27 C         -11.6048  -17.4835   20.2136 C.3     1  UNL1        0.2573
     28 O         -10.2393  -16.9212   19.9501 O.3     1  UNL1       -0.4304
     29 C          -7.9602  -14.8400   22.4449 C.3     1  UNL1        0.1238
     30 C          -7.4987  -15.0950   23.8492 C.ar    1  UNL1       -0.0022
     31 C          -8.5036  -15.2678   24.9493 C.ar    1  UNL1       -0.0026
     32 C          -8.0420  -15.5227   26.3535 C.ar    1  UNL1       -0.0003
     33 C          -6.5755  -15.6049   26.6577 C.ar    1  UNL1       -0.0000
     34 C          -5.5705  -15.4322   25.5576 C.ar    1  UNL1       -0.0003
     35 C          -6.0321  -15.1772   24.1534 C.ar    1  UNL1       -0.0026
@<TRIPOS>UNITY_ATOM_ATTR
17 1
charge -1
@<TRIPOS>BOND
     1    27    28    1
     2    28    24    1
     3    24    25    2
     4    24    26   am
     5    26    29    1
     6    29    30    1
     7    30    31   ar
     8    31    32   ar
     9    32    33   ar
    10    33    34   ar
    11    34    35   ar
    12    26    23    1
    13    23     1    1
    14     1     2   ar
    15     2     3   ar
    16     3    19    1
    17    19    20    1
    18    19    21    1
    19    19    22    1
    20     3     4   ar
    21     4     5   ar
    22     5     6   ar
    23     6     7    1
    24     7     8   ar
    25     8     9   ar
    26     9    15    1
    27    15    16    1
    28    16    17   ar
    29    16    18   ar
    30     9    10   ar
    31    10    11   ar
    32    11    12   ar
    33    12    13    1
    34    13    14    1
    35    35    30   ar
    36     6     1   ar
    37    12     7   ar
@<TRIPOS>MOLECULE
*****
 35 37 0 0 0
SMALL
GASTEIGER

@<TRIPOS>ATOM
      1 C          -6.7941  -17.6615   22.3780 C.ar    1  UNL1       -0.0022
      2 C          -5.3015  -17.5262   22.4391 C.ar    1  UNL1        0.0012
      3 C          -4.4358  -18.7508   22.4156 C.ar    1  UNL1        0.0712
      4 C          -5.0627  -20.1110   22.3310 C.ar    1  UNL1        0.0038
      5 C          -6.5553  -20.2463   22.2698 C.ar    1  UNL1       -0.0002
      6 C          -7.4210  -19.0216   22.2933 C.ar    1  UNL1        0.0005
      7 C          -8.9137  -19.1569   22.2322 C.ar    1  UNL1        0.0334
      8 C          -9.7156  -19.1979   23.4993 C.ar    1  UNL1       -0.0009
      9 C         -11.2082  -19.3332   23.4381 C.ar    1  UNL1       -0.0164
     10 C         -11.8989  -19.4276   22.1099 C.ar    1  UNL1       -0.0008
     11 C         -11.0970  -19.3867   20.8430 C.ar    1  UNL1        0.0366
     12 C          -9.6044  -19.2513   20.9041 C.ar    1  UNL1        0.1386
     13 O          -8.8025  -19.2103   19.6371 O.3     1  UNL1       -0.4714
     14 C          -8.9924  -20.2721   18.5947 C.3     1  UNL1        0.2525
     15 C         -12.0101  -19.3742   24.7051 C.3     1  UNL1        0.0679
     16 C         -13.3609  -18.7244   24.7590 C.2     1  UNL1        0.0547
     17 O         -14.1331  -18.7052   26.0448 O.co2   1  UNL1       -0.5488
     18 O         -13.9396  -18.0939   23.5271 O.co2   1  UNL1       -0.5488
     19 C          -2.9432  -18.6155   22.4768 C.3     1  UNL1        0.4186
     20 F          -1.4505  -18.4801   22.5379 F       1  UNL1       -0.1659
     21 F          -2.7950  -20.0147   21.9570 F       1  UNL1       -0.1659
     22 F          -3.0913  -17.2162   22.9965 F       1  UNL1       -0.1659
     23 C          -7.6599  -16.4368   22.4015 C.3     1  UNL1        0.1238
     24 C          -7.5981  -15.7576   24.9085 C.2     1  UNL1        0.4055
     25 O          -8.3156  -15.3704   26.1675 O.2     1  UNL1       -0.2262
     26 N          -8.3775  -16.0496   23.6606 N.am    1  UNL1       -0.2378
     27 C          -5.3104  -15.3744   26.0788 C.3     1  UNL1        0.2573
     28 O          -6.1011  -15.8527   24.8973 O.3     1  UNL1       -0.4304
     29 C          -9.8744  -15.9546   23.6717 C.3     1  UNL1        0.1238
     30 C         -10.6338  -15.9260   22.3784 C.ar    1  UNL1       -0.0022
     31 C          -9.9011  -15.7426   21.0824 C.ar    1  UNL1       -0.0026
     32 C         -10.6605  -15.7141   19.7892 C.ar    1  UNL1       -0.0003
     33 C         -12.1525  -15.8688   19.7919 C.ar    1  UNL1       -0.0000
     34 C         -12.8851  -16.0521   21.0879 C.ar    1  UNL1       -0.0003
     35 C         -12.1258  -16.0807   22.3811 C.ar    1  UNL1       -0.0026
@<TRIPOS>UNITY_ATOM_ATTR
17 1
charge -1
@<TRIPOS>BOND
     1    27    28    1
     2    28    24    1
     3    24    25    2
     4    24    26   am
     5    26    29    1
     6    29    30    1
     7    30    31   ar
     8    31    32   ar
     9    32    33   ar
    10    33    34   ar
    11    34    35   ar
    12    26    23    1
    13    23     1    1
    14     1     2   ar
    15     2     3   ar
    16     3    19    1
    17    19    20    1
    18    19    21    1
    19    19    22    1
    20     3     4   ar
    21     4     5   ar
    22     5     6   ar
    23     6     7    1
    24     7     8   ar
    25     8     9   ar
    26     9    15    1
    27    15    16    1
    28    16    17   ar
    29    16    18   ar
    30     9    10   ar
    31    10    11   ar
    32    11    12   ar
    33    12    13    1
    34    13    14    1
    35    35    30   ar
    36     6     1   ar
    37    12     7   ar
@<TRIPOS>MOLECULE
*****
 35 37 0 0 0
SMALL
GASTEIGER

@<TRIPOS>ATOM
      1 C          -6.7782  -17.8660   22.1012 C.ar    1  UNL1       -0.0022
      2 C          -5.2823  -17.7986   22.1902 C.ar    1  UNL1        0.0012
      3 C          -4.4760  -19.0625   22.2376 C.ar    1  UNL1        0.0712
      4 C          -5.1656  -20.3940   22.1960 C.ar    1  UNL1        0.0038
      5 C          -6.6614  -20.4615   22.1070 C.ar    1  UNL1       -0.0002
      6 C          -7.4677  -19.1975   22.0596 C.ar    1  UNL1        0.0005
      7 C          -8.9635  -19.2650   21.9707 C.ar    1  UNL1        0.0334
      8 C          -9.7878  -19.3149   23.2230 C.ar    1  UNL1       -0.0009
      9 C         -11.2837  -19.3824   23.1340 C.ar    1  UNL1       -0.0164
     10 C         -11.9552  -19.3999   21.7928 C.ar    1  UNL1       -0.0008
     11 C         -11.1309  -19.3500   20.5406 C.ar    1  UNL1        0.0366
     12 C          -9.6351  -19.2825   20.6296 C.ar    1  UNL1        0.1386
     13 O          -8.8108  -19.2325   19.3774 O.3     1  UNL1       -0.4714
     14 C          -8.8250  -20.3900   18.4234 C.3     1  UNL1        0.2525
     15 C         -12.1080  -19.4324   24.3862 C.3     1  UNL1        0.0679
     16 C         -13.3209  -18.5603   24.5209 C.2     1  UNL1        0.0547
     17 O         -14.1828  -18.6580   25.7446 O.co2   1  UNL1       -0.5488
     18 O         -13.6720  -17.5903   23.4318 O.co2   1  UNL1       -0.5488
     19 C          -2.9802  -18.9950   22.3265 C.3     1  UNL1        0.4186
     20 F          -1.4844  -18.9275   22.4155 F       1  UNL1       -0.1659
     21 F          -2.8718  -20.1610   21.3891 F       1  UNL1       -0.1659
     22 F          -3.0885  -17.8291   23.2640 F       1  UNL1       -0.1659
     23 C          -7.5845  -16.6021   22.0538 C.3     1  UNL1        0.1238
     24 C         -10.0904  -15.9429   22.2432 C.2     1  UNL1        0.4055
     25 O         -11.3438  -15.8218   23.0582 O.2     1  UNL1       -0.2262
     26 N          -8.8379  -16.4810   22.8689 N.am    1  UNL1       -0.2378
     27 C         -11.2728  -15.8312   19.9324 C.3     1  UNL1        0.2573
     28 O         -10.0895  -15.5258   20.8022 O.3     1  UNL1       -0.4304
     29 C          -8.8387  -16.8980   24.3098 C.3     1  UNL1        0.1238
     30 C          -7.9817  -16.1693   25.3020 C.ar    1  UNL1       -0.0022
     31 C          -6.5869  -15.7607   24.9310 C.ar    1  UNL1       -0.0026
     32 C          -5.7300  -15.0320   25.9233 C.ar    1  UNL1       -0.0003
     33 C          -6.2678  -14.7119   27.2865 C.ar    1  UNL1       -0.0000
     34 C          -7.6625  -15.1205   27.6575 C.ar    1  UNL1       -0.0003
     35 C          -8.5195  -15.8492   26.6652 C.ar    1  UNL1       -0.0026
@<TRIPOS>UNITY_ATOM_ATTR
17 1
charge -1
@<TRIPOS>BOND
     1    27    28    1
     2    28    24    1
     3    24    25    2
     4    24    26   am
     5    26    29    1
     6    29    30    1
     7    30    31   ar
     8    31    32   ar
     9    32    33   ar
    10    33    34   ar
    11    34    35   ar
    12    26    23    1
    13    23     1    1
    14     1     2   ar
    15     2     3   ar
    16     3    19    1
    17    19    20    1
    18    19    21    1
    19    19    22    1
    20     3     4   ar
    21     4     5   ar
    22     5     6   ar
    23     6     7    1
    24     7     8   ar
    25     8     9   ar
    26     9    15    1
    27    15    16    1
    28    16    17   ar
    29    16    18   ar
    30     9    10   ar
    31    10    11   ar
    32    11    12   ar
    33    12    13    1
    34    13    14    1
    35    35    30   ar
    36     6     1   ar
    37    12     7   ar
@<TRIPOS>MOLECULE
*****
 35 37 0 0 0
SMALL
GASTEIGER

@<TRIPOS>ATOM
      1 C          -7.9419  -18.3639   22.5960 C.ar    1  UNL1       -0.0022
      2 C          -9.2251  -18.2460   23.3638 C.ar    1  UNL1        0.0012
      3 C          -9.8544  -19.4677   23.9649 C.ar    1  UNL1        0.0712
      4 C          -9.2005  -20.8074   23.7982 C.ar    1  UNL1        0.0038
      5 C          -7.9173  -20.9253   23.0304 C.ar    1  UNL1       -0.0002
      6 C          -7.2880  -19.7035   22.4292 C.ar    1  UNL1        0.0005
      7 C          -6.0048  -19.8214   21.6614 C.ar    1  UNL1        0.0334
      8 C          -4.7267  -19.3049   22.2529 C.ar    1  UNL1       -0.0009
      9 C          -3.4436  -19.4228   21.4851 C.ar    1  UNL1       -0.0164
     10 C          -3.4385  -20.0572   20.1258 C.ar    1  UNL1       -0.0008
     11 C          -4.7165  -20.5736   19.5344 C.ar    1  UNL1        0.0366
     12 C          -5.9997  -20.4557   20.3022 C.ar    1  UNL1        0.1386
     13 O          -7.2778  -20.9722   19.7108 O.3     1  UNL1       -0.4714
     14 C          -8.2555  -20.0194   19.0894 C.3     1  UNL1        0.2525
     15 C          -2.1655  -18.9063   22.0765 C.3     1  UNL1        0.0679
     16 C          -1.3462  -17.8978   21.3272 C.2     1  UNL1        0.0547
     17 O          -1.6646  -16.4366   21.4443 O.co2   1  UNL1       -0.5488
     18 O          -0.2084  -18.3503   20.4607 O.co2   1  UNL1       -0.5488
     19 C         -11.1376  -19.3498   24.7327 C.3     1  UNL1        0.4186
     20 F         -12.4207  -19.2319   25.5005 F       1  UNL1       -0.1659
     21 F         -10.3623  -19.0625   25.9842 F       1  UNL1       -0.1659
     22 F         -11.9129  -19.6371   23.4811 F       1  UNL1       -0.1659
     23 C          -7.3126  -17.1422   21.9949 C.3     1  UNL1        0.1238
     24 C          -7.1213  -15.0675   23.5470 C.2     1  UNL1        0.4055
     25 O          -7.5919  -13.7031   23.9558 O.2     1  UNL1       -0.2262
     26 N          -7.7832  -15.7778   22.4036 N.am    1  UNL1       -0.2378
     27 C          -5.7441  -15.3964   25.7254 C.3     1  UNL1        0.2573
     28 O          -5.9888  -15.7215   24.2816 O.3     1  UNL1       -0.4304
     29 C          -8.9157  -15.1238   21.6690 C.3     1  UNL1        0.1238
     30 C         -10.2359  -15.8257   21.5479 C.ar    1  UNL1       -0.0022
     31 C         -10.5663  -16.5921   20.3016 C.ar    1  UNL1       -0.0026
     32 C         -11.8864  -17.2939   20.1806 C.ar    1  UNL1       -0.0003
     33 C         -12.8762  -17.2293   21.3059 C.ar    1  UNL1       -0.0000
     34 C         -12.5458  -16.4629   22.5522 C.ar    1  UNL1       -0.0003
     35 C         -11.2256  -15.7610   22.6732 C.ar    1  UNL1       -0.0026
@<TRIPOS>UNITY_ATOM_ATTR
17 1
charge -1
@<TRIPOS>BOND
     1    27    28    1
     2    28    24    1
     3    24    25    2
     4    24    26   am
     5    26    29    1
     6    29    30    1
     7    30    31   ar
     8    31    32   ar
     9    32    33   ar
    10    33    34   ar
    11    34    35   ar
    12    26    23    1
    13    23     1    1
    14     1     2   ar
    15     2     3   ar
    16     3    19    1
    17    19    20    1
    18    19    21    1
    19    19    22    1
    20     3     4   ar
    21     4     5   ar
    22     5     6   ar
    23     6     7    1
    24     7     8   ar
    25     8     9   ar
    26     9    15    1
    27    15    16    1
    28    16    17   ar
    29    16    18   ar
    30     9    10   ar
    31    10    11   ar
    32    11    12   ar
    33    12    13    1
    34    13    14    1
    35    35    30   ar
    36     6     1   ar
    37    12     7   ar
@<TRIPOS>MOLECULE
*****
 35 37 0 0 0
SMALL
GASTEIGER

@<TRIPOS>ATOM
      1 C           2.0394   -0.9054   20.6232 C.ar    1  UNL1       -0.0022
      2 C           2.4941   -2.0327   19.7443 C.ar    1  UNL1        0.0012
      3 C           3.7878   -2.7345   20.0339 C.ar    1  UNL1        0.0712
      4 C           4.6268   -2.3090   21.2023 C.ar    1  UNL1        0.0038
      5 C           4.1720   -1.1817   22.0811 C.ar    1  UNL1       -0.0002
      6 C           2.8783   -0.4798   21.7915 C.ar    1  UNL1        0.0005
      7 C           2.4236    0.6475   22.6703 C.ar    1  UNL1        0.0334
      8 C           1.3643    0.4109   23.7058 C.ar    1  UNL1       -0.0009
      9 C           0.9096    1.5383   24.5846 C.ar    1  UNL1       -0.0164
     10 C           1.5141    2.9022   24.4280 C.ar    1  UNL1       -0.0008
     11 C           2.5732    3.1387   23.3925 C.ar    1  UNL1        0.0366
     12 C           3.0280    2.0113   22.5137 C.ar    1  UNL1        0.1386
     13 O           4.0871    2.2478   21.4783 O.3     1  UNL1       -0.4714
     14 C           5.5258    2.3578   21.8885 C.3     1  UNL1        0.2525
     15 C          -0.1496    1.3018   25.6201 C.3     1  UNL1        0.0679
     16 C           0.2212    1.2431   27.0723 C.2     1  UNL1        0.0547
     17 O           1.6480    1.0123   27.4734 O.co2   1  UNL1       -0.5488
     18 O          -0.8349    1.4151   28.1236 O.co2   1  UNL1       -0.5488
     19 C           4.2425   -3.8619   19.1550 C.3     1  UNL1        0.4186
     20 F           4.6972   -4.9892   18.2762 F       1  UNL1       -0.1659
     21 F           2.8458   -4.4084   19.1334 F       1  UNL1       -0.1659
     22 F           5.6392   -3.3153   19.1767 F       1  UNL1       -0.1659
     23 C           0.7457   -0.2036   20.3336 C.3     1  UNL1        0.1238
     24 C           0.0453    2.2949   20.2035 C.2     1  UNL1        0.4055
     25 O           0.0505    3.6096   19.4813 O.2     1  UNL1       -0.2262
     26 N           0.7509    1.1111   19.6114 N.am    1  UNL1       -0.2378
     27 C          -1.4992    3.2984   22.0360 C.3     1  UNL1        0.2573
     28 O          -0.6656    2.1640   21.5179 O.3     1  UNL1       -0.4304
     29 C           1.4618    1.2420   18.2970 C.3     1  UNL1        0.1238
     30 C           2.8794    1.7309   18.2564 C.ar    1  UNL1       -0.0022
     31 C           4.0110    0.7473   18.2130 C.ar    1  UNL1       -0.0026
     32 C           5.4285    1.2362   18.1724 C.ar    1  UNL1       -0.0003
     33 C           5.7143    2.7088   18.1753 C.ar    1  UNL1       -0.0000
     34 C           4.5827    3.6923   18.2187 C.ar    1  UNL1       -0.0003
     35 C           3.1652    3.2034   18.2593 C.ar    1  UNL1       -0.0026
@<TRIPOS>UNITY_ATOM_ATTR
17 1
charge -1
@<TRIPOS>BOND
     1    27    28    1
     2    28    24    1
     3    24    25    2
     4    24    26   am
     5    26    29    1
     6    29    30    1
     7    30    31   ar
     8    31    32   ar
     9    32    33   ar
    10    33    34   ar
    11    34    35   ar
    12    26    23    1
    13    23     1    1
    14     1     2   ar
    15     2     3   ar
    16     3    19    1
    17    19    20    1
    18    19    21    1
    19    19    22    1
    20     3     4   ar
    21     4     5   ar
    22     5     6   ar
    23     6     7    1
    24     7     8   ar
    25     8     9   ar
    26     9    15    1
    27    15    16    1
    28    16    17   ar
    29    16    18   ar
    30     9    10   ar
    31    10    11   ar
    32    11    12   ar
    33    12    13    1
    34    13    14    1
    35    35    30   ar
    36     6     1   ar
    37    12     7   ar
