@<TRIPOS>MOLECULE
*****
 29 31 0 0 0
SMALL
GASTEIGER

@<TRIPOS>ATOM
      1 C          -7.8368  -19.7314   21.3309 C.ar    1  UNL1        0.1344
      2 C          -8.2323  -20.1207   22.7244 C.ar    1  UNL1        0.0310
      3 C          -9.5771  -19.7272   23.2599 C.ar    1  UNL1       -0.0067
      4 C          -9.9727  -20.1165   24.6535 C.3     1  UNL1        0.0319
      5 C         -10.5263  -18.9444   22.4018 C.ar    1  UNL1        0.0959
      6 C         -10.1307  -18.5552   21.0083 C.ar    1  UNL1        0.1393
      7 N          -8.7860  -18.9486   20.4728 N.ar    1  UNL1       -0.2154
      8 N          -6.4920  -20.1249   20.7954 N.pl3   1  UNL1       -0.2819
      9 H          -6.4061  -20.9124   20.2107 H       1  UNL1        0.1551
     10 C          -1.5586  -18.2443   20.8725 C.3     1  UNL1        0.0515
     11 C          -3.0104  -18.4542   21.1861 C.ar    1  UNL1        0.0548
     12 C          -3.9181  -19.4535   20.5323 C.ar    1  UNL1        0.0502
     13 C          -5.2780  -19.3187   21.1506 C.ar    1  UNL1        0.1539
     14 N          -5.2108  -18.2360   22.1867 N.ar    1  UNL1       -0.1577
     15 N          -3.8094  -17.7017   22.2086 N.ar    1  UNL1       -0.2786
     16 H          -3.4730  -16.9833   22.7917 H       1  UNL1        0.1886
     17 C         -11.8711  -18.5509   22.9373 C.1     1  UNL1        0.1029
     18 N         -13.2159  -18.1575   23.4728 N.1     1  UNL1       -0.1907
     19 N         -11.0799  -17.7724   20.1502 N.pl3   1  UNL1       -0.3145
     20 H         -11.7205  -18.2428   19.5692 H       1  UNL1        0.1483
     21 C         -11.0531  -16.2729   20.1774 C.3     1  UNL1        0.1362
     22 C         -10.3761  -15.5552   21.3072 C.3     1  UNL1        0.2266
     23 O          -8.9023  -15.7261   21.5283 O.3     1  UNL1       -0.4720
     24 C          -8.3400  -15.6629   22.9174 C.ar    1  UNL1        0.1577
     25 C          -9.1469  -16.1676   24.0768 C.ar    1  UNL1        0.0401
     26 C          -8.5846  -16.1044   25.4660 C.ar    1  UNL1        0.0238
     27 C          -7.2154  -15.5365   25.6958 C.ar    1  UNL1        0.0991
     28 N          -6.4085  -15.0318   24.5364 N.ar    1  UNL1       -0.2391
     29 C          -6.9708  -15.0950   23.1472 C.ar    1  UNL1        0.1356
@<TRIPOS>BOND
     1    10    11    1
     2    11    12   ar
     3    12    13   ar
     4    13     8    1
     5     8     1    1
     6     1     2   ar
     7     2     3   ar
     8     3     4    1
     9     3     5   ar
    10     5    17    1
    11    17    18    3
    12     5     6   ar
    13     6    19    1
    14    19    21    1
    15    21    22    1
    16    22    23    1
    17    23    24    1
    18    24    25   ar
    19    25    26   ar
    20    26    27   ar
    21    27    28   ar
    22    28    29   ar
    23     6     7   ar
    24    13    14   ar
    25    14    15   ar
    26    15    11   ar
    27     7     1   ar
    28    29    24   ar
    29     8     9    1
    30    19    20    1
    31    15    16    1
@<TRIPOS>MOLECULE
*****
 29 31 0 0 0
SMALL
GASTEIGER

@<TRIPOS>ATOM
      1 C          -9.1609  -16.7410   22.1895 C.ar    1  UNL1        0.1344
      2 C         -10.3916  -17.4820   21.7582 C.ar    1  UNL1        0.0310
      3 C         -10.2848  -18.5966   20.7602 C.ar    1  UNL1       -0.0067
      4 C         -11.5156  -19.3377   20.3288 C.3     1  UNL1        0.0319
      5 C          -8.9471  -18.9703   20.1935 C.ar    1  UNL1        0.0959
      6 C          -7.7164  -18.2293   20.6248 C.ar    1  UNL1        0.1393
      7 N          -7.8232  -17.1146   21.6228 N.ar    1  UNL1       -0.2154
      8 N          -9.2677  -15.6263   23.1876 N.pl3   1  UNL1       -0.2819
      9 H         -10.0101  -14.9824   23.1288 H       1  UNL1        0.1551
     10 C          -6.8138  -15.9987   27.8481 C.3     1  UNL1        0.0515
     11 C          -7.1154  -15.6638   26.4174 C.ar    1  UNL1        0.0548
     12 C          -8.3667  -16.0238   25.6726 C.ar    1  UNL1        0.0502
     13 C          -8.2434  -15.4927   24.2752 C.ar    1  UNL1        0.1539
     14 N          -6.9158  -14.8045   24.1564 N.ar    1  UNL1       -0.1577
     15 N          -6.2187  -14.9102   25.4803 N.ar    1  UNL1       -0.2786
     16 H          -5.3289  -14.5486   25.6963 H       1  UNL1        0.1886
     17 C          -8.8403  -20.0850   19.1954 C.1     1  UNL1        0.1029
     18 N          -8.7335  -21.1996   18.1974 N.1     1  UNL1       -0.1907
     19 N          -6.3788  -18.6029   20.0581 N.pl3   1  UNL1       -0.3145
     20 H          -6.0400  -18.1469   19.2541 H       1  UNL1        0.1483
     21 C          -5.5573  -19.6715   20.7164 C.3     1  UNL1        0.1362
     22 C          -5.3597  -19.6564   22.2033 C.3     1  UNL1        0.2266
     23 O          -3.9858  -19.4688   22.7754 O.3     1  UNL1       -0.4720
     24 C          -2.9600  -18.6779   22.0191 C.ar    1  UNL1        0.1577
     25 C          -2.8641  -17.1936   22.2139 C.ar    1  UNL1        0.0401
     26 C          -1.8383  -16.4026   21.4576 C.ar    1  UNL1        0.0238
     27 C          -0.9083  -17.0959   20.5064 C.ar    1  UNL1        0.0991
     28 N          -1.0042  -18.5801   20.3117 N.ar    1  UNL1       -0.2391
     29 C          -2.0300  -19.3711   21.0680 C.ar    1  UNL1        0.1356
@<TRIPOS>BOND
     1    10    11    1
     2    11    12   ar
     3    12    13   ar
     4    13     8    1
     5     8     1    1
     6     1     2   ar
     7     2     3   ar
     8     3     4    1
     9     3     5   ar
    10     5    17    1
    11    17    18    3
    12     5     6   ar
    13     6    19    1
    14    19    21    1
    15    21    22    1
    16    22    23    1
    17    23    24    1
    18    24    25   ar
    19    25    26   ar
    20    26    27   ar
    21    27    28   ar
    22    28    29   ar
    23     6     7   ar
    24    13    14   ar
    25    14    15   ar
    26    15    11   ar
    27     7     1   ar
    28    29    24   ar
    29     8     9    1
    30    19    20    1
    31    15    16    1
@<TRIPOS>MOLECULE
*****
 29 31 0 0 0
SMALL
GASTEIGER

@<TRIPOS>ATOM
      1 C          -3.9562  -18.2690   22.5153 C.ar    1  UNL1        0.1344
      2 C          -4.1140  -17.0596   23.3885 C.ar    1  UNL1        0.0310
      3 C          -5.4844  -16.5504   23.7238 C.ar    1  UNL1       -0.0067
      4 C          -5.6423  -15.3410   24.5971 C.3     1  UNL1        0.0319
      5 C          -6.6971  -17.2505   23.1860 C.ar    1  UNL1        0.0959
      6 C          -6.5393  -18.4598   22.3128 C.ar    1  UNL1        0.1393
      7 N          -5.1689  -18.9691   21.9774 N.ar    1  UNL1       -0.2154
      8 N          -2.5857  -18.7783   22.1799 N.pl3   1  UNL1       -0.2819
      9 H          -2.0924  -19.3287   22.8302 H       1  UNL1        0.1551
     10 C          -1.9964  -17.3941   17.1186 C.3     1  UNL1        0.0515
     11 C          -1.6961  -17.8127   18.5274 C.ar    1  UNL1        0.0548
     12 C          -2.7056  -18.0459   19.6121 C.ar    1  UNL1        0.0502
     13 C          -1.9670  -18.4490   20.8538 C.ar    1  UNL1        0.1539
     14 N          -0.5010  -18.4650   20.5365 N.ar    1  UNL1       -0.1577
     15 N          -0.3335  -18.0718   19.0987 N.ar    1  UNL1       -0.2786
     16 H           0.5207  -17.9968   18.6150 H       1  UNL1        0.1886
     17 C          -8.0676  -16.7411   23.5213 C.1     1  UNL1        0.1029
     18 N          -9.4380  -16.2318   23.8567 N.1     1  UNL1       -0.1907
     19 N          -7.7520  -19.1599   21.7749 N.pl3   1  UNL1       -0.3145
     20 H          -8.4681  -19.4448   22.3875 H       1  UNL1        0.1483
     21 C          -7.8737  -19.4259   20.3037 C.3     1  UNL1        0.1362
     22 C          -9.2255  -19.4428   19.6539 C.3     1  UNL1        0.2266
     23 O         -10.0440  -18.1873   19.5926 O.3     1  UNL1       -0.4720
     24 C         -10.9595  -17.8327   20.7267 C.ar    1  UNL1        0.1577
     25 C         -11.3074  -18.8630   21.7599 C.ar    1  UNL1        0.0401
     26 C         -12.2229  -18.5085   22.8940 C.ar    1  UNL1        0.0238
     27 C         -12.7904  -17.1236   22.9949 C.ar    1  UNL1        0.0991
     28 N         -12.4425  -16.0934   21.9617 N.ar    1  UNL1       -0.2391
     29 C         -11.5270  -16.4480   20.8276 C.ar    1  UNL1        0.1356
@<TRIPOS>BOND
     1    10    11    1
     2    11    12   ar
     3    12    13   ar
     4    13     8    1
     5     8     1    1
     6     1     2   ar
     7     2     3   ar
     8     3     4    1
     9     3     5   ar
    10     5    17    1
    11    17    18    3
    12     5     6   ar
    13     6    19    1
    14    19    21    1
    15    21    22    1
    16    22    23    1
    17    23    24    1
    18    24    25   ar
    19    25    26   ar
    20    26    27   ar
    21    27    28   ar
    22    28    29   ar
    23     6     7   ar
    24    13    14   ar
    25    14    15   ar
    26    15    11   ar
    27     7     1   ar
    28    29    24   ar
    29     8     9    1
    30    19    20    1
    31    15    16    1
@<TRIPOS>MOLECULE
*****
 29 31 0 0 0
SMALL
GASTEIGER

@<TRIPOS>ATOM
      1 C          -7.1274  -20.1146   21.0634 C.ar    1  UNL1        0.1344
      2 C          -7.9972  -19.8269   19.8758 C.ar    1  UNL1        0.0310
      3 C          -9.4202  -19.3964   20.0752 C.ar    1  UNL1       -0.0067
      4 C         -10.2902  -19.1087   18.8875 C.3     1  UNL1        0.0319
      5 C          -9.9733  -19.2537   21.4622 C.ar    1  UNL1        0.0959
      6 C          -9.1034  -19.5414   22.6498 C.ar    1  UNL1        0.1393
      7 N          -7.6805  -19.9719   22.4504 N.ar    1  UNL1       -0.2154
      8 N          -5.7043  -20.5451   20.8641 N.pl3   1  UNL1       -0.2819
      9 H          -5.4798  -21.5031   20.8318 H       1  UNL1        0.1551
     10 C          -1.5968  -17.8149   18.9788 C.3     1  UNL1        0.0515
     11 C          -2.7354  -18.2611   19.8474 C.ar    1  UNL1        0.0548
     12 C          -3.6245  -19.4430   19.5974 C.ar    1  UNL1        0.0502
     13 C          -4.6234  -19.5160   20.7140 C.ar    1  UNL1        0.1539
     14 N          -4.3517  -18.3792   21.6541 N.ar    1  UNL1       -0.1577
     15 N          -3.1848  -17.6036   21.1186 N.ar    1  UNL1       -0.2786
     16 H          -2.7842  -16.8035   21.5293 H       1  UNL1        0.1886
     17 C         -11.3964  -18.8232   21.6615 C.1     1  UNL1        0.1029
     18 N         -12.8193  -18.3927   21.8609 N.1     1  UNL1       -0.1907
     19 N          -9.6565  -19.3987   24.0368 N.pl3   1  UNL1       -0.3145
     20 H         -10.0832  -20.1684   24.4782 H       1  UNL1        0.1483
     21 C          -9.5596  -18.0834   24.7512 C.3     1  UNL1        0.1362
     22 C          -9.9770  -16.8206   24.0575 C.3     1  UNL1        0.2266
     23 O          -9.4817  -15.4940   24.5525 O.3     1  UNL1       -0.4720
     24 C          -8.0866  -15.3671   25.0890 C.ar    1  UNL1        0.1577
     25 C          -7.8308  -15.5263   26.5585 C.ar    1  UNL1        0.0401
     26 C          -6.4358  -15.3994   27.0949 C.ar    1  UNL1        0.0238
     27 C          -5.2966  -15.1132   26.1619 C.ar    1  UNL1        0.0991
     28 N          -5.5525  -14.9540   24.6925 N.ar    1  UNL1       -0.2391
     29 C          -6.9475  -15.0809   24.1561 C.ar    1  UNL1        0.1356
@<TRIPOS>BOND
     1    10    11    1
     2    11    12   ar
     3    12    13   ar
     4    13     8    1
     5     8     1    1
     6     1     2   ar
     7     2     3   ar
     8     3     4    1
     9     3     5   ar
    10     5    17    1
    11    17    18    3
    12     5     6   ar
    13     6    19    1
    14    19    21    1
    15    21    22    1
    16    22    23    1
    17    23    24    1
    18    24    25   ar
    19    25    26   ar
    20    26    27   ar
    21    27    28   ar
    22    28    29   ar
    23     6     7   ar
    24    13    14   ar
    25    14    15   ar
    26    15    11   ar
    27     7     1   ar
    28    29    24   ar
    29     8     9    1
    30    19    20    1
    31    15    16    1
@<TRIPOS>MOLECULE
*****
 29 31 0 0 0
SMALL
GASTEIGER

@<TRIPOS>ATOM
      1 C          -6.7079  -19.7009   21.9401 C.ar    1  UNL1        0.1344
      2 C          -5.9826  -20.4562   20.8662 C.ar    1  UNL1        0.0310
      3 C          -4.5383  -20.1625   20.5875 C.ar    1  UNL1       -0.0067
      4 C          -3.8130  -20.9178   19.5135 C.3     1  UNL1        0.0319
      5 C          -3.8194  -19.1134   21.3828 C.ar    1  UNL1        0.0959
      6 C          -4.5447  -18.3580   22.4567 C.ar    1  UNL1        0.1393
      7 N          -5.9890  -18.6518   22.7353 N.ar    1  UNL1       -0.2154
      8 N          -8.1523  -19.9947   22.2188 N.pl3   1  UNL1       -0.2819
      9 H          -8.4046  -20.8225   22.6882 H       1  UNL1        0.1551
     10 C         -12.8368  -17.6701   21.4894 C.3     1  UNL1        0.0515
     11 C         -11.3654  -17.9587   21.4470 C.ar    1  UNL1        0.0548
     12 C         -10.6801  -19.1386   22.0701 C.ar    1  UNL1        0.0502
     13 C          -9.2122  -19.0272   21.7823 C.ar    1  UNL1        0.1539
     14 N          -8.9903  -17.7785   20.9814 N.ar    1  UNL1       -0.1577
     15 N         -10.3211  -17.1181   20.7741 N.ar    1  UNL1       -0.2786
     16 H         -10.4810  -16.2801   20.2828 H       1  UNL1        0.1886
     17 C          -2.3750  -18.8196   21.1041 C.1     1  UNL1        0.1029
     18 N          -0.9307  -18.5259   20.8253 N.1     1  UNL1       -0.1907
     19 N          -3.8257  -17.3089   23.2520 N.pl3   1  UNL1       -0.3145
     20 H          -2.8553  -17.1859   23.1407 H       1  UNL1        0.1483
     21 C          -4.5852  -16.4473   24.2166 C.3     1  UNL1        0.1362
     22 C          -5.1937  -15.1575   23.7518 C.3     1  UNL1        0.2266
     23 O          -6.4203  -14.6203   24.4277 O.3     1  UNL1       -0.4720
     24 C          -7.3619  -15.5556   25.1268 C.ar    1  UNL1        0.1577
     25 C          -7.3567  -15.6446   26.6242 C.ar    1  UNL1        0.0401
     26 C          -8.2982  -16.5799   27.3232 C.ar    1  UNL1        0.0238
     27 C          -9.2450  -17.4263   26.5248 C.ar    1  UNL1        0.0991
     28 N          -9.2502  -17.3373   25.0275 N.ar    1  UNL1       -0.2391
     29 C          -8.3086  -16.4019   24.3284 C.ar    1  UNL1        0.1356
@<TRIPOS>BOND
     1    10    11    1
     2    11    12   ar
     3    12    13   ar
     4    13     8    1
     5     8     1    1
     6     1     2   ar
     7     2     3   ar
     8     3     4    1
     9     3     5   ar
    10     5    17    1
    11    17    18    3
    12     5     6   ar
    13     6    19    1
    14    19    21    1
    15    21    22    1
    16    22    23    1
    17    23    24    1
    18    24    25   ar
    19    25    26   ar
    20    26    27   ar
    21    27    28   ar
    22    28    29   ar
    23     6     7   ar
    24    13    14   ar
    25    14    15   ar
    26    15    11   ar
    27     7     1   ar
    28    29    24   ar
    29     8     9    1
    30    19    20    1
    31    15    16    1
@<TRIPOS>MOLECULE
*****
 29 31 0 0 0
SMALL
GASTEIGER

@<TRIPOS>ATOM
      1 C          -8.3424  -15.9923   22.1274 C.ar    1  UNL1        0.1344
      2 C          -7.6072  -15.1632   23.1383 C.ar    1  UNL1        0.0310
      3 C          -6.3461  -15.6842   23.7612 C.ar    1  UNL1       -0.0067
      4 C          -5.6108  -14.8551   24.7722 C.3     1  UNL1        0.0319
      5 C          -5.8201  -17.0343   23.3731 C.ar    1  UNL1        0.0959
      6 C          -6.5553  -17.8634   22.3622 C.ar    1  UNL1        0.1393
      7 N          -7.8164  -17.3424   21.7393 N.ar    1  UNL1       -0.2154
      8 N          -9.6036  -15.4714   21.5044 N.pl3   1  UNL1       -0.2819
      9 H          -9.5884  -14.6320   20.9902 H       1  UNL1        0.1551
     10 C         -13.7287  -17.9615   23.6638 C.3     1  UNL1        0.0515
     11 C         -12.7841  -17.3739   22.6576 C.ar    1  UNL1        0.0548
     12 C         -11.5129  -16.6396   22.9655 C.ar    1  UNL1        0.0502
     13 C         -10.8880  -16.2292   21.6650 C.ar    1  UNL1        0.1539
     14 N         -11.7731  -16.7098   20.5534 N.ar    1  UNL1       -0.1577
     15 N         -12.9450  -17.4172   21.1668 N.ar    1  UNL1       -0.2786
     16 H         -13.6891  -17.8364   20.6770 H       1  UNL1        0.1886
     17 C          -4.5589  -17.5553   23.9961 C.1     1  UNL1        0.1029
     18 N          -3.2977  -18.0762   24.6190 N.1     1  UNL1       -0.1907
     19 N          -6.0293  -19.2135   21.9742 N.pl3   1  UNL1       -0.3145
     20 H          -5.6477  -19.8087   22.6593 H       1  UNL1        0.1483
     21 C          -6.0848  -19.6569   20.5423 C.3     1  UNL1        0.1362
     22 C          -5.4570  -20.9568   20.1348 C.3     1  UNL1        0.2266
     23 O          -3.9957  -21.0115   19.8002 O.3     1  UNL1       -0.4720
     24 C          -3.1139  -19.8349   20.0966 C.ar    1  UNL1        0.1577
     25 C          -2.9262  -18.7601   19.0671 C.ar    1  UNL1        0.0401
     26 C          -2.0443  -17.5835   19.3635 C.ar    1  UNL1        0.0238
     27 C          -1.3502  -17.4816   20.6894 C.ar    1  UNL1        0.0991
     28 N          -1.5379  -18.5563   21.7188 N.ar    1  UNL1       -0.2391
     29 C          -2.4197  -19.7330   21.4224 C.ar    1  UNL1        0.1356
@<TRIPOS>BOND
     1    10    11    1
     2    11    12   ar
     3    12    13   ar
     4    13     8    1
     5     8     1    1
     6     1     2   ar
     7     2     3   ar
     8     3     4    1
     9     3     5   ar
    10     5    17    1
    11    17    18    3
    12     5     6   ar
    13     6    19    1
    14    19    21    1
    15    21    22    1
    16    22    23    1
    17    23    24    1
    18    24    25   ar
    19    25    26   ar
    20    26    27   ar
    21    27    28   ar
    22    28    29   ar
    23     6     7   ar
    24    13    14   ar
    25    14    15   ar
    26    15    11   ar
    27     7     1   ar
    28    29    24   ar
    29     8     9    1
    30    19    20    1
    31    15    16    1
@<TRIPOS>MOLECULE
*****
 29 31 0 0 0
SMALL
GASTEIGER

@<TRIPOS>ATOM
      1 C          -9.4153  -17.9280   21.6157 C.ar    1  UNL1        0.1344
      2 C          -9.4758  -18.7290   20.3490 C.ar    1  UNL1        0.0310
      3 C          -8.2756  -19.5058   19.8949 C.ar    1  UNL1       -0.0067
      4 C          -8.3360  -20.3069   18.6281 C.3     1  UNL1        0.0319
      5 C          -7.0151  -19.4815   20.7075 C.ar    1  UNL1        0.0959
      6 C          -6.9546  -18.6805   21.9743 C.ar    1  UNL1        0.1393
      7 N          -8.1548  -17.9038   22.4284 N.ar    1  UNL1       -0.2154
      8 N         -10.6155  -17.1512   22.0699 N.pl3   1  UNL1       -0.2819
      9 H         -10.8099  -16.2704   21.6754 H       1  UNL1        0.1551
     10 C         -14.9372  -18.4362   24.8181 C.3     1  UNL1        0.0515
     11 C         -13.5059  -18.3070   24.3883 C.ar    1  UNL1        0.0548
     12 C         -13.0142  -17.5970   23.1619 C.ar    1  UNL1        0.0502
     13 C         -11.5194  -17.7164   23.1251 C.ar    1  UNL1        0.1539
     14 N         -11.0872  -18.5001   24.3289 N.ar    1  UNL1       -0.1577
     15 N         -12.3149  -18.8652   25.1096 N.ar    1  UNL1       -0.2786
     16 H         -12.3354  -19.3806   25.9481 H       1  UNL1        0.1886
     17 C          -5.8149  -20.2584   20.2533 C.1     1  UNL1        0.1029
     18 N          -4.6148  -21.0351   19.7991 N.1     1  UNL1       -0.1907
     19 N          -5.6941  -18.6563   22.7869 N.pl3   1  UNL1       -0.3145
     20 H          -5.5825  -19.2792   23.5411 H       1  UNL1        0.1483
     21 C          -4.6034  -17.6830   22.4505 C.3     1  UNL1        0.1362
     22 C          -4.1656  -16.6674   23.4639 C.3     1  UNL1        0.2266
     23 O          -4.9823  -15.4289   23.6856 O.3     1  UNL1       -0.4720
     24 C          -6.0576  -15.4168   24.7314 C.ar    1  UNL1        0.1577
     25 C          -5.6937  -15.5264   26.1825 C.ar    1  UNL1        0.0401
     26 C          -6.7690  -15.5144   27.2283 C.ar    1  UNL1        0.0238
     27 C          -8.2081  -15.3927   26.8230 C.ar    1  UNL1        0.0991
     28 N          -8.5719  -15.2831   25.3719 N.ar    1  UNL1       -0.2391
     29 C          -7.4966  -15.2951   24.3261 C.ar    1  UNL1        0.1356
@<TRIPOS>BOND
     1    10    11    1
     2    11    12   ar
     3    12    13   ar
     4    13     8    1
     5     8     1    1
     6     1     2   ar
     7     2     3   ar
     8     3     4    1
     9     3     5   ar
    10     5    17    1
    11    17    18    3
    12     5     6   ar
    13     6    19    1
    14    19    21    1
    15    21    22    1
    16    22    23    1
    17    23    24    1
    18    24    25   ar
    19    25    26   ar
    20    26    27   ar
    21    27    28   ar
    22    28    29   ar
    23     6     7   ar
    24    13    14   ar
    25    14    15   ar
    26    15    11   ar
    27     7     1   ar
    28    29    24   ar
    29     8     9    1
    30    19    20    1
    31    15    16    1
@<TRIPOS>MOLECULE
*****
 29 31 0 0 0
SMALL
GASTEIGER

@<TRIPOS>ATOM
      1 C          -9.8299  -17.9425   21.3773 C.ar    1  UNL1        0.1344
      2 C          -9.8295  -18.8660   20.1953 C.ar    1  UNL1        0.0310
      3 C          -8.5602  -19.5458   19.7752 C.ar    1  UNL1       -0.0067
      4 C          -8.5598  -20.4694   18.5932 C.3     1  UNL1        0.0319
      5 C          -7.2912  -19.3021   20.5370 C.ar    1  UNL1        0.0959
      6 C          -7.2916  -18.3786   21.7189 C.ar    1  UNL1        0.1393
      7 N          -8.5609  -17.6988   22.1391 N.ar    1  UNL1       -0.2154
      8 N         -11.0993  -17.2626   21.7975 N.pl3   1  UNL1       -0.2819
      9 H         -11.4256  -16.4782   21.3000 H       1  UNL1        0.1551
     10 C         -15.0701  -18.4491   25.0694 C.3     1  UNL1        0.0515
     11 C         -13.6966  -18.3231   24.4797 C.ar    1  UNL1        0.0548
     12 C         -13.3558  -17.6803   23.1679 C.ar    1  UNL1        0.0502
     13 C         -11.8714  -17.7777   22.9758 C.ar    1  UNL1        0.1539
     14 N         -11.2947  -18.4808   24.1687 N.ar    1  UNL1       -0.1577
     15 N         -12.4227  -18.8179   25.0982 N.ar    1  UNL1       -0.2786
     16 H         -12.3413  -19.2823   25.9625 H       1  UNL1        0.1886
     17 C          -6.0219  -19.9820   20.1167 C.1     1  UNL1        0.1029
     18 N          -4.7526  -20.6619   19.6966 N.1     1  UNL1       -0.1907
     19 N          -6.0226  -18.1349   22.4807 N.pl3   1  UNL1       -0.3145
     20 H          -5.2888  -18.7898   22.4370 H       1  UNL1        0.1483
     21 C          -5.8717  -16.8935   23.3089 C.3     1  UNL1        0.1362
     22 C          -4.5211  -16.4978   23.8281 C.3     1  UNL1        0.2266
     23 O          -3.4916  -15.9392   22.8910 O.3     1  UNL1       -0.4720
     24 C          -2.6307  -16.8653   22.0841 C.ar    1  UNL1        0.1577
     25 C          -1.7807  -16.3225   20.9737 C.ar    1  UNL1        0.0401
     26 C          -0.9198  -17.2487   20.1668 C.ar    1  UNL1        0.0238
     27 C          -0.9089  -18.7177   20.4703 C.ar    1  UNL1        0.0991
     28 N          -1.7589  -19.2604   21.5807 N.ar    1  UNL1       -0.2391
     29 C          -2.6198  -18.3343   22.3876 C.ar    1  UNL1        0.1356
@<TRIPOS>BOND
     1    10    11    1
     2    11    12   ar
     3    12    13   ar
     4    13     8    1
     5     8     1    1
     6     1     2   ar
     7     2     3   ar
     8     3     4    1
     9     3     5   ar
    10     5    17    1
    11    17    18    3
    12     5     6   ar
    13     6    19    1
    14    19    21    1
    15    21    22    1
    16    22    23    1
    17    23    24    1
    18    24    25   ar
    19    25    26   ar
    20    26    27   ar
    21    27    28   ar
    22    28    29   ar
    23     6     7   ar
    24    13    14   ar
    25    14    15   ar
    26    15    11   ar
    27     7     1   ar
    28    29    24   ar
    29     8     9    1
    30    19    20    1
    31    15    16    1
@<TRIPOS>MOLECULE
*****
 29 31 0 0 0
SMALL
GASTEIGER

@<TRIPOS>ATOM
      1 C          -8.7626  -17.3629   22.5182 C.ar    1  UNL1        0.1344
      2 C          -9.2543  -16.5621   23.6872 C.ar    1  UNL1        0.0310
      3 C          -8.2735  -15.8882   24.6004 C.ar    1  UNL1       -0.0067
      4 C          -8.7652  -15.0873   25.7695 C.3     1  UNL1        0.0319
      5 C          -6.8009  -16.0152   24.3445 C.ar    1  UNL1        0.0959
      6 C          -6.3092  -16.8160   23.1754 C.ar    1  UNL1        0.1393
      7 N          -7.2900  -17.4899   22.2622 N.ar    1  UNL1       -0.2154
      8 N          -9.7434  -18.0368   21.6049 N.pl3   1  UNL1       -0.2819
      9 H          -9.4239  -18.5134   20.8049 H       1  UNL1        0.1551
     10 C         -14.3405  -18.1708   24.1990 C.3     1  UNL1        0.0515
     11 C         -13.3240  -18.0461   23.1030 C.ar    1  UNL1        0.0548
     12 C         -11.8384  -18.1836   23.2584 C.ar    1  UNL1        0.0502
     13 C         -11.2109  -17.9845   21.9106 C.ar    1  UNL1        0.1539
     14 N         -12.3087  -17.7240   20.9221 N.ar    1  UNL1       -0.1577
     15 N         -13.6147  -17.7620   21.6590 N.ar    1  UNL1       -0.2786
     16 H         -14.5061  -17.6247   21.2643 H       1  UNL1        0.1886
     17 C          -5.8201  -15.3413   25.2577 C.1     1  UNL1        0.1029
     18 N          -4.8394  -14.6674   26.1709 N.1     1  UNL1       -0.1907
     19 N          -4.8367  -16.9430   22.9195 N.pl3   1  UNL1       -0.3145
     20 H          -4.3245  -16.1668   22.5963 H       1  UNL1        0.1483
     21 C          -4.1445  -18.2526   23.1558 C.3     1  UNL1        0.1362
     22 C          -4.6551  -19.5002   22.4980 C.3     1  UNL1        0.2266
     23 O          -4.2531  -19.8237   21.0894 O.3     1  UNL1       -0.4720
     24 C          -3.0691  -19.1407   20.4717 C.ar    1  UNL1        0.1577
     25 C          -3.2537  -18.2569   19.2738 C.ar    1  UNL1        0.0401
     26 C          -2.0697  -17.5739   18.6561 C.ar    1  UNL1        0.0238
     27 C          -0.7010  -17.7746   19.2364 C.ar    1  UNL1        0.0991
     28 N          -0.5165  -18.6583   20.4343 N.ar    1  UNL1       -0.2391
     29 C          -1.7005  -19.3413   21.0519 C.ar    1  UNL1        0.1356
@<TRIPOS>BOND
     1    10    11    1
     2    11    12   ar
     3    12    13   ar
     4    13     8    1
     5     8     1    1
     6     1     2   ar
     7     2     3   ar
     8     3     4    1
     9     3     5   ar
    10     5    17    1
    11    17    18    3
    12     5     6   ar
    13     6    19    1
    14    19    21    1
    15    21    22    1
    16    22    23    1
    17    23    24    1
    18    24    25   ar
    19    25    26   ar
    20    26    27   ar
    21    27    28   ar
    22    28    29   ar
    23     6     7   ar
    24    13    14   ar
    25    14    15   ar
    26    15    11   ar
    27     7     1   ar
    28    29    24   ar
    29     8     9    1
    30    19    20    1
    31    15    16    1
