@<TRIPOS>MOLECULE
*****
 32 35 0 0 0
SMALL
GASTEIGER

@<TRIPOS>ATOM
      1 C           7.1929   -4.2583   23.1512 C.ar    1  UNL1        0.0505
      2 C           6.6210   -4.1183   24.5308 C.ar    1  UNL1        0.0148
      3 C           6.9327   -5.1444   25.5795 C.ar    1  UNL1        0.0060
      4 C           7.8163   -6.3106   25.2486 C.ar    1  UNL1        0.0553
      5 C           8.3882   -6.4505   23.8690 C.ar    1  UNL1        0.0060
      6 C           8.0765   -5.4244   22.8203 C.ar    1  UNL1        0.0148
      7 C           8.1280   -7.3367   26.2973 C.ar    1  UNL1        0.2512
      8 N           9.0423   -7.1479   27.4714 N.ar    1  UNL1       -0.1058
      9 N           9.0595   -8.4263   28.2559 N.ar    1  UNL1       -0.0923
     10 C           8.1558   -9.4053   27.5666 C.ar    1  UNL1        0.3086
     11 O           7.5801   -8.7319   26.3562 O.2     1  UNL1       -0.4048
     12 N           7.8768  -10.8108   28.0099 N.pl3   1  UNL1       -0.2871
     13 H           8.5868  -11.3422   28.4376 H       1  UNL1        0.1512
     14 C           6.5162  -11.4069   27.8016 C.3     1  UNL1        0.0925
     15 C           5.9632  -12.3806   28.7996 C.3     1  UNL1        0.0386
     16 C           4.6437  -12.1101   29.4597 C.3     1  UNL1        0.0738
     17 N           3.4386  -12.9220   29.0877 N.3     1  UNL1       -0.2726
     18 C           3.5478  -13.9898   28.0399 C.3     1  UNL1        0.0721
     19 C           2.3427  -14.8017   27.6679 C.3     1  UNL1        0.0174
     20 C           1.0282  -14.5458   28.3437 C.3     1  UNL1        0.0029
     21 C           0.9189  -13.4781   29.3915 C.3     1  UNL1        0.0174
     22 C           2.1241  -12.6661   29.7635 C.3     1  UNL1        0.0721
     23 O           4.6716   -4.4777   21.5403 O.2     1  UNL1       -0.2698
     24 C           5.6206   -3.3418   21.2970 C.2     1  UNL1        0.2495
     25 N           6.8812   -3.2321   22.1024 N.am    1  UNL1       -0.2804
     26 H           7.5041   -2.4866   21.9427 H       1  UNL1        0.1552
     27 C           5.3089   -2.3156   20.2482 C.ar    1  UNL1        0.0537
     28 C           5.6752   -0.8785   20.4728 C.ar    1  UNL1        0.0045
     29 C           5.3635    0.1476   19.4240 C.ar    1  UNL1        0.0001
     30 C           4.6855   -0.2634   18.1507 C.ar    1  UNL1        0.0000
     31 C           4.3192   -1.7005   17.9261 C.ar    1  UNL1        0.0001
     32 C           4.6309   -2.7266   18.9748 C.ar    1  UNL1        0.0045
@<TRIPOS>BOND
     1    23    24    2
     2    24    25   am
     3    25     1    1
     4     1     2   ar
     5     2     3   ar
     6     3     4   ar
     7     4     7    1
     8     7     8   ar
     9     8     9   ar
    10     9    10   ar
    11    10    12    1
    12    12    14    1
    13    14    15    1
    14    15    16    1
    15    16    17    1
    16    17    18    1
    17    18    19    1
    18    19    20    1
    19    20    21    1
    20    21    22    1
    21    10    11   ar
    22     4     5   ar
    23     5     6   ar
    24    24    27    1
    25    27    28   ar
    26    28    29   ar
    27    29    30   ar
    28    30    31   ar
    29    31    32   ar
    30     6     1   ar
    31    32    27   ar
    32    11     7   ar
    33    22    17    1
    34    25    26    1
    35    12    13    1
@<TRIPOS>MOLECULE
*****
 32 35 0 0 0
SMALL
GASTEIGER

@<TRIPOS>ATOM
      1 C           0.7664    0.7082   19.9466 C.ar    1  UNL1        0.0505
      2 C           1.5549   -0.1567   20.8848 C.ar    1  UNL1        0.0148
      3 C           2.8944   -0.6880   20.4683 C.ar    1  UNL1        0.0060
      4 C           3.4454   -0.3544   19.1137 C.ar    1  UNL1        0.0553
      5 C           2.6569    0.5105   18.1755 C.ar    1  UNL1        0.0060
      6 C           1.3175    1.0418   18.5920 C.ar    1  UNL1        0.0148
      7 C           4.7849   -0.8858   18.6972 C.ar    1  UNL1        0.2512
      8 N           5.0684   -1.6960   17.4671 N.ar    1  UNL1       -0.1058
      9 N           6.5348   -2.0111   17.4474 N.ar    1  UNL1       -0.0923
     10 C           7.1576   -1.3957   18.6654 C.ar    1  UNL1        0.3086
     11 O           6.0761   -0.7002   19.4378 O.2     1  UNL1       -0.4048
     12 N           8.6073   -1.4638   19.0443 N.pl3   1  UNL1       -0.2871
     13 H           9.1019   -0.6376   19.2491 H       1  UNL1        0.1512
     14 C           9.3035   -2.7908   19.1113 C.3     1  UNL1        0.0925
     15 C           9.5014   -3.4680   20.4350 C.3     1  UNL1        0.0386
     16 C           8.5743   -4.5675   20.8609 C.3     1  UNL1        0.0738
     17 N           7.2003   -4.2373   21.3639 N.3     1  UNL1       -0.2726
     18 C           6.0428   -4.1947   20.4108 C.3     1  UNL1        0.0721
     19 C           4.6688   -3.8645   20.9138 C.3     1  UNL1        0.0174
     20 C           4.4522   -3.5769   22.3700 C.3     1  UNL1        0.0029
     21 C           5.6097   -3.6195   23.3231 C.3     1  UNL1        0.0174
     22 C           6.9837   -3.9497   22.8200 C.3     1  UNL1        0.0721
     23 O           0.5050    3.5435   20.8913 O.2     1  UNL1       -0.2698
     24 C          -0.7038    2.6571   20.8354 C.2     1  UNL1        0.2495
     25 N          -0.5731    1.2395   20.3631 N.am    1  UNL1       -0.2804
     26 H          -1.3665    0.6577   20.3264 H       1  UNL1        0.1552
     27 C          -2.0434    3.1885   21.2518 C.ar    1  UNL1        0.0537
     28 C          -2.2506    3.6864   22.6515 C.ar    1  UNL1        0.0045
     29 C          -3.5901    4.2177   23.0679 C.ar    1  UNL1        0.0001
     30 C          -4.7224    4.2511   22.0846 C.ar    1  UNL1        0.0000
     31 C          -4.5151    3.7532   20.6849 C.ar    1  UNL1        0.0001
     32 C          -3.1756    3.2219   20.2686 C.ar    1  UNL1        0.0045
@<TRIPOS>BOND
     1    23    24    2
     2    24    25   am
     3    25     1    1
     4     1     2   ar
     5     2     3   ar
     6     3     4   ar
     7     4     7    1
     8     7     8   ar
     9     8     9   ar
    10     9    10   ar
    11    10    12    1
    12    12    14    1
    13    14    15    1
    14    15    16    1
    15    16    17    1
    16    17    18    1
    17    18    19    1
    18    19    20    1
    19    20    21    1
    20    21    22    1
    21    10    11   ar
    22     4     5   ar
    23     5     6   ar
    24    24    27    1
    25    27    28   ar
    26    28    29   ar
    27    29    30   ar
    28    30    31   ar
    29    31    32   ar
    30     6     1   ar
    31    32    27   ar
    32    11     7   ar
    33    22    17    1
    34    25    26    1
    35    12    13    1
@<TRIPOS>MOLECULE
*****
 32 35 0 0 0
SMALL
GASTEIGER

@<TRIPOS>ATOM
      1 C           0.9364    0.5262   20.0458 C.ar    1  UNL1        0.0505
      2 C           1.8087   -0.1840   21.0380 C.ar    1  UNL1        0.0148
      3 C           3.1257   -0.7562   20.6044 C.ar    1  UNL1        0.0060
      4 C           3.5703   -0.6182   19.1785 C.ar    1  UNL1        0.0553
      5 C           2.6980    0.0920   18.1862 C.ar    1  UNL1        0.0060
      6 C           1.3811    0.6642   18.6199 C.ar    1  UNL1        0.0148
      7 C           4.8874   -1.1905   18.7448 C.ar    1  UNL1        0.2512
      8 N           5.1542   -1.9114   17.4568 N.ar    1  UNL1       -0.1058
      9 N           6.6005   -2.3088   17.4390 N.ar    1  UNL1       -0.0923
     10 C           7.2276   -1.8334   18.7160 C.ar    1  UNL1        0.3086
     11 O           6.1688   -1.1422   19.5231 O.2     1  UNL1       -0.4048
     12 N           8.6616   -2.0169   19.1158 N.pl3   1  UNL1       -0.2871
     13 H           9.3767   -1.5821   18.5973 H       1  UNL1        0.1512
     14 C           9.0061   -2.8628   20.3057 C.3     1  UNL1        0.0925
     15 C           8.0494   -3.9168   20.7789 C.3     1  UNL1        0.0386
     16 C           8.5630   -5.2627   21.1968 C.3     1  UNL1        0.0738
     17 N           8.3301   -5.7533   22.5949 N.3     1  UNL1       -0.2726
     18 C           7.5743   -4.9025   23.5723 C.3     1  UNL1        0.0721
     19 C           7.3414   -5.3931   24.9704 C.3     1  UNL1        0.0174
     20 C           7.8643   -6.7345   25.3914 C.3     1  UNL1        0.0029
     21 C           8.6200   -7.5853   24.4142 C.3     1  UNL1        0.0174
     22 C           8.8529   -7.0947   23.0160 C.3     1  UNL1        0.0721
     23 O           0.7595    3.3917   20.9162 O.2     1  UNL1       -0.2698
     24 C          -0.4691    2.5312   20.9146 C.2     1  UNL1        0.2495
     25 N          -0.3807    1.0985   20.4794 N.am    1  UNL1       -0.2804
     26 H          -1.1871    0.5337   20.4783 H       1  UNL1        0.1552
     27 C          -1.7861    3.1034   21.3482 C.ar    1  UNL1        0.0537
     28 C          -2.9245    3.1868   20.3751 C.ar    1  UNL1        0.0045
     29 C          -4.2415    3.7590   20.8087 C.ar    1  UNL1        0.0001
     30 C          -4.4201    4.2479   22.2155 C.ar    1  UNL1        0.0000
     31 C          -3.2817    4.1645   23.1887 C.ar    1  UNL1        0.0001
     32 C          -1.9647    3.5923   22.7550 C.ar    1  UNL1        0.0045
@<TRIPOS>BOND
     1    23    24    2
     2    24    25   am
     3    25     1    1
     4     1     2   ar
     5     2     3   ar
     6     3     4   ar
     7     4     7    1
     8     7     8   ar
     9     8     9   ar
    10     9    10   ar
    11    10    12    1
    12    12    14    1
    13    14    15    1
    14    15    16    1
    15    16    17    1
    16    17    18    1
    17    18    19    1
    18    19    20    1
    19    20    21    1
    20    21    22    1
    21    10    11   ar
    22     4     5   ar
    23     5     6   ar
    24    24    27    1
    25    27    28   ar
    26    28    29   ar
    27    29    30   ar
    28    30    31   ar
    29    31    32   ar
    30     6     1   ar
    31    32    27   ar
    32    11     7   ar
    33    22    17    1
    34    25    26    1
    35    12    13    1
@<TRIPOS>MOLECULE
*****
 32 35 0 0 0
SMALL
GASTEIGER

@<TRIPOS>ATOM
      1 C           0.9315    2.4107   18.6770 C.ar    1  UNL1        0.0505
      2 C           0.9853    0.9446   18.3646 C.ar    1  UNL1        0.0148
      3 C           2.3096    0.2663   18.1751 C.ar    1  UNL1        0.0060
      4 C           3.5802    1.0541   18.2981 C.ar    1  UNL1        0.0553
      5 C           3.5264    2.5202   18.6104 C.ar    1  UNL1        0.0060
      6 C           2.2021    3.1985   18.7999 C.ar    1  UNL1        0.0148
      7 C           4.9046    0.3756   18.1086 C.ar    1  UNL1        0.2512
      8 N           5.2192   -0.6734   17.0836 N.ar    1  UNL1       -0.1058
      9 N           6.6558   -1.0702   17.2523 N.ar    1  UNL1       -0.0923
     10 C           7.2291   -0.2664   18.3816 C.ar    1  UNL1        0.3086
     11 O           6.1468    0.6271   18.9108 O.2     1  UNL1       -0.4048
     12 N           8.6376   -0.3429   18.8921 N.pl3   1  UNL1       -0.2871
     13 H           9.3202    0.2774   18.5479 H       1  UNL1        0.1512
     14 C           9.0058   -1.3643   19.9270 C.3     1  UNL1        0.0925
     15 C           8.6637   -2.8086   19.7103 C.3     1  UNL1        0.0386
     16 C           7.6166   -3.4668   20.5591 C.3     1  UNL1        0.0738
     17 N           6.1659   -3.1610   20.3319 N.3     1  UNL1       -0.2726
     18 C           5.4729   -2.1376   21.1819 C.3     1  UNL1        0.0721
     19 C           4.0222   -1.8318   20.9548 C.3     1  UNL1        0.0174
     20 C           3.2642   -2.5494   19.8776 C.3     1  UNL1        0.0029
     21 C           3.9570   -3.5728   19.0275 C.3     1  UNL1        0.0174
     22 C           5.4078   -3.8786   19.2547 C.3     1  UNL1        0.0721
     23 O          -0.6547    1.9324   21.1780 O.2     1  UNL1       -0.2698
     24 C          -1.1860    2.8500   20.1170 C.2     1  UNL1        0.2495
     25 N          -0.3929    3.0891   18.8665 N.am    1  UNL1       -0.2804
     26 H          -0.7416    3.6914   18.1700 H       1  UNL1        0.1552
     27 C          -2.5103    3.5284   20.3064 C.ar    1  UNL1        0.0537
     28 C          -3.1285    3.5988   21.6713 C.ar    1  UNL1        0.0045
     29 C          -4.4528    4.2772   21.8607 C.ar    1  UNL1        0.0001
     30 C          -5.1590    4.8852   20.6853 C.ar    1  UNL1        0.0000
     31 C          -4.5408    4.8148   19.3204 C.ar    1  UNL1        0.0001
     32 C          -3.2165    4.1364   19.1310 C.ar    1  UNL1        0.0045
@<TRIPOS>BOND
     1    23    24    2
     2    24    25   am
     3    25     1    1
     4     1     2   ar
     5     2     3   ar
     6     3     4   ar
     7     4     7    1
     8     7     8   ar
     9     8     9   ar
    10     9    10   ar
    11    10    12    1
    12    12    14    1
    13    14    15    1
    14    15    16    1
    15    16    17    1
    16    17    18    1
    17    18    19    1
    18    19    20    1
    19    20    21    1
    20    21    22    1
    21    10    11   ar
    22     4     5   ar
    23     5     6   ar
    24    24    27    1
    25    27    28   ar
    26    28    29   ar
    27    29    30   ar
    28    30    31   ar
    29    31    32   ar
    30     6     1   ar
    31    32    27   ar
    32    11     7   ar
    33    22    17    1
    34    25    26    1
    35    12    13    1
@<TRIPOS>MOLECULE
*****
 32 35 0 0 0
SMALL
GASTEIGER

@<TRIPOS>ATOM
      1 C          -0.4948    2.1429   20.2509 C.ar    1  UNL1        0.0505
      2 C          -0.0300    0.7318   20.4574 C.ar    1  UNL1        0.0148
      3 C           1.1855    0.2294   19.7363 C.ar    1  UNL1        0.0060
      4 C           1.9363    1.1382   18.8088 C.ar    1  UNL1        0.0553
      5 C           1.4716    2.5493   18.6023 C.ar    1  UNL1        0.0060
      6 C           0.2560    3.0517   19.3234 C.ar    1  UNL1        0.0148
      7 C           3.1520    0.6358   18.0877 C.ar    1  UNL1        0.2512
      8 N           3.2050   -0.5477   17.1675 N.ar    1  UNL1       -0.1058
      9 N           4.6137   -0.6863   16.6713 N.ar    1  UNL1       -0.0923
     10 C           5.4313    0.4116   17.2847 C.ar    1  UNL1        0.3086
     11 O           4.5279    1.2287   18.1601 O.2     1  UNL1       -0.4048
     12 N           6.8954    0.6504   17.0619 N.pl3   1  UNL1       -0.2871
     13 H           7.2336    0.8205   16.1531 H       1  UNL1        0.1512
     14 C           7.8439    0.6301   18.2237 C.3     1  UNL1        0.0925
     15 C           8.1572   -0.6644   18.9136 C.3     1  UNL1        0.0386
     16 C           7.3239   -1.1154   20.0765 C.3     1  UNL1        0.0738
     17 N           6.0744   -1.9108   19.8401 N.3     1  UNL1       -0.2726
     18 C           4.8123   -1.5599   20.5709 C.3     1  UNL1        0.0721
     19 C           3.5628   -2.3553   20.3345 C.3     1  UNL1        0.0174
     20 C           3.5753   -3.5016   19.3672 C.3     1  UNL1        0.0029
     21 C           4.8373   -3.8526   18.6363 C.3     1  UNL1        0.0174
     22 C           6.0868   -3.0571   18.8728 C.3     1  UNL1        0.0721
     23 O          -2.6397    3.5990   18.7411 O.2     1  UNL1       -0.2698
     24 C          -2.7828    3.3733   20.2171 C.2     1  UNL1        0.2495
     25 N          -1.7104    2.6453   20.9720 N.am    1  UNL1       -0.2804
     26 H          -1.8044    2.4972   21.9408 H       1  UNL1        0.1552
     27 C          -3.9984    3.8757   20.9382 C.ar    1  UNL1        0.0537
     28 C          -4.7430    5.0673   20.4131 C.ar    1  UNL1        0.0045
     29 C          -5.9585    5.5696   21.1342 C.ar    1  UNL1        0.0001
     30 C          -6.4296    4.8804   22.3804 C.ar    1  UNL1        0.0000
     31 C          -5.6850    3.6889   22.9056 C.ar    1  UNL1        0.0001
     32 C          -4.4695    3.1865   22.1845 C.ar    1  UNL1        0.0045
@<TRIPOS>BOND
     1    23    24    2
     2    24    25   am
     3    25     1    1
     4     1     2   ar
     5     2     3   ar
     6     3     4   ar
     7     4     7    1
     8     7     8   ar
     9     8     9   ar
    10     9    10   ar
    11    10    12    1
    12    12    14    1
    13    14    15    1
    14    15    16    1
    15    16    17    1
    16    17    18    1
    17    18    19    1
    18    19    20    1
    19    20    21    1
    20    21    22    1
    21    10    11   ar
    22     4     5   ar
    23     5     6   ar
    24    24    27    1
    25    27    28   ar
    26    28    29   ar
    27    29    30   ar
    28    30    31   ar
    29    31    32   ar
    30     6     1   ar
    31    32    27   ar
    32    11     7   ar
    33    22    17    1
    34    25    26    1
    35    12    13    1
@<TRIPOS>MOLECULE
*****
 32 35 0 0 0
SMALL
GASTEIGER

@<TRIPOS>ATOM
      1 C          -9.2144  -19.5523   21.8354 C.ar    1  UNL1        0.0505
      2 C          -8.0475  -19.8739   22.7214 C.ar    1  UNL1        0.0148
      3 C          -6.6577  -19.8829   22.1574 C.ar    1  UNL1        0.0060
      4 C          -6.4347  -19.5704   20.7073 C.ar    1  UNL1        0.0553
      5 C          -7.6015  -19.2488   19.8213 C.ar    1  UNL1        0.0060
      6 C          -8.9914  -19.2398   20.3854 C.ar    1  UNL1        0.0148
      7 C          -5.0447  -19.5795   20.1433 C.ar    1  UNL1        0.2512
      8 N          -4.1304  -20.7664   20.0707 N.ar    1  UNL1       -0.1058
      9 N          -2.8458  -20.3238   19.4354 N.ar    1  UNL1       -0.0923
     10 C          -2.9661  -18.8632   19.1153 C.ar    1  UNL1        0.3086
     11 O          -4.3251  -18.4033   19.5529 O.2     1  UNL1       -0.4048
     12 N          -1.9123  -18.0121   18.4709 N.pl3   1  UNL1       -0.2871
     13 H          -2.1102  -17.5337   17.6335 H       1  UNL1        0.1512
     14 C          -0.5572  -17.8899   19.1024 C.3     1  UNL1        0.0925
     15 C          -0.4267  -17.3693   20.5031 C.3     1  UNL1        0.0386
     16 C          -1.3470  -16.2899   20.9908 C.3     1  UNL1        0.0738
     17 N          -2.4290  -16.6159   21.9771 N.3     1  UNL1       -0.2726
     18 C          -2.5494  -18.0067   22.5260 C.3     1  UNL1        0.0721
     19 C          -3.6314  -18.3327   23.5122 C.3     1  UNL1        0.0174
     20 C          -4.5932  -17.2680   23.9497 C.3     1  UNL1        0.0029
     21 C          -4.4728  -15.8772   23.4009 C.3     1  UNL1        0.0174
     22 C          -3.3907  -15.5512   22.4146 C.3     1  UNL1        0.0721
     23 O         -10.1245  -17.2613   23.5452 O.2     1  UNL1       -0.2698
     24 C         -11.0593  -18.3977   23.2544 C.2     1  UNL1        0.2495
     25 N         -10.6043  -19.5432   22.3995 N.am    1  UNL1       -0.2804
     26 H         -11.2179  -20.2891   22.2086 H       1  UNL1        0.1552
     27 C         -12.4493  -18.3887   23.8184 C.ar    1  UNL1        0.0537
     28 C         -13.6217  -18.1286   22.9197 C.ar    1  UNL1        0.0045
     29 C         -15.0115  -18.1195   23.4837 C.ar    1  UNL1        0.0001
     30 C         -15.2289  -18.3705   24.9465 C.ar    1  UNL1        0.0000
     31 C         -14.0565  -18.6306   25.8452 C.ar    1  UNL1        0.0001
     32 C         -12.6667  -18.6397   25.2812 C.ar    1  UNL1        0.0045
@<TRIPOS>BOND
     1    23    24    2
     2    24    25   am
     3    25     1    1
     4     1     2   ar
     5     2     3   ar
     6     3     4   ar
     7     4     7    1
     8     7     8   ar
     9     8     9   ar
    10     9    10   ar
    11    10    12    1
    12    12    14    1
    13    14    15    1
    14    15    16    1
    15    16    17    1
    16    17    18    1
    17    18    19    1
    18    19    20    1
    19    20    21    1
    20    21    22    1
    21    10    11   ar
    22     4     5   ar
    23     5     6   ar
    24    24    27    1
    25    27    28   ar
    26    28    29   ar
    27    29    30   ar
    28    30    31   ar
    29    31    32   ar
    30     6     1   ar
    31    32    27   ar
    32    11     7   ar
    33    22    17    1
    34    25    26    1
    35    12    13    1
@<TRIPOS>MOLECULE
*****
 32 35 0 0 0
SMALL
GASTEIGER

@<TRIPOS>ATOM
      1 C           6.9216   -3.7968   24.1495 C.ar    1  UNL1        0.0505
      2 C           7.3258   -5.1971   24.5043 C.ar    1  UNL1        0.0148
      3 C           7.4076   -5.6123   25.9433 C.ar    1  UNL1        0.0060
      4 C           7.0852   -4.6272   27.0276 C.ar    1  UNL1        0.0553
      5 C           6.6810   -3.2270   26.6729 C.ar    1  UNL1        0.0060
      6 C           6.5992   -2.8118   25.2338 C.ar    1  UNL1        0.0148
      7 C           7.1671   -5.0425   28.4667 C.ar    1  UNL1        0.2512
      8 N           7.8234   -6.2858   28.9897 N.ar    1  UNL1       -0.1058
      9 N           7.6690   -6.2991   30.4816 N.ar    1  UNL1       -0.0923
     10 C           6.9171   -5.0639   30.8808 C.ar    1  UNL1        0.3086
     11 O           6.6070   -4.2873   29.6355 O.2     1  UNL1       -0.4048
     12 N           6.5414   -4.6739   32.2796 N.pl3   1  UNL1       -0.2871
     13 H           6.3607   -5.3692   32.9528 H       1  UNL1        0.1512
     14 C           6.4411   -3.2246   32.6528 C.3     1  UNL1        0.0925
     15 C           5.2152   -2.4398   32.2900 C.3     1  UNL1        0.0386
     16 C           5.3314   -1.2331   31.4067 C.3     1  UNL1        0.0738
     17 N           4.2869   -0.9630   30.3647 N.3     1  UNL1       -0.2726
     18 C           4.6415   -1.0409   28.9093 C.3     1  UNL1        0.0721
     19 C           3.5970   -0.7709   27.8672 C.3     1  UNL1        0.0174
     20 C           2.1977   -0.4229   28.2805 C.3     1  UNL1        0.0029
     21 C           1.8430   -0.3450   29.7359 C.3     1  UNL1        0.0174
     22 C           2.8876   -0.6151   30.7779 C.3     1  UNL1        0.0721
     23 O           4.2636   -3.7145   22.7608 O.2     1  UNL1       -0.2698
     24 C           5.5108   -3.3404   22.0161 C.2     1  UNL1        0.2495
     25 N           6.8398   -3.3816   22.7104 N.am    1  UNL1       -0.2804
     26 H           7.6583   -3.1361   22.2216 H       1  UNL1        0.1552
     27 C           5.4290   -2.9252   20.5770 C.ar    1  UNL1        0.0537
     28 C           4.0915   -2.7014   19.9359 C.ar    1  UNL1        0.0045
     29 C           4.0098   -2.2861   18.4969 C.ar    1  UNL1        0.0001
     30 C           5.2654   -2.0947   17.6990 C.ar    1  UNL1        0.0000
     31 C           6.6029   -2.3186   18.3401 C.ar    1  UNL1        0.0001
     32 C           6.6847   -2.7338   19.7791 C.ar    1  UNL1        0.0045
@<TRIPOS>BOND
     1    23    24    2
     2    24    25   am
     3    25     1    1
     4     1     2   ar
     5     2     3   ar
     6     3     4   ar
     7     4     7    1
     8     7     8   ar
     9     8     9   ar
    10     9    10   ar
    11    10    12    1
    12    12    14    1
    13    14    15    1
    14    15    16    1
    15    16    17    1
    16    17    18    1
    17    18    19    1
    18    19    20    1
    19    20    21    1
    20    21    22    1
    21    10    11   ar
    22     4     5   ar
    23     5     6   ar
    24    24    27    1
    25    27    28   ar
    26    28    29   ar
    27    29    30   ar
    28    30    31   ar
    29    31    32   ar
    30     6     1   ar
    31    32    27   ar
    32    11     7   ar
    33    22    17    1
    34    25    26    1
    35    12    13    1
@<TRIPOS>MOLECULE
*****
 32 35 0 0 0
SMALL
GASTEIGER

@<TRIPOS>ATOM
      1 C          -0.4081    2.0373   20.1720 C.ar    1  UNL1        0.0505
      2 C           0.3807    2.9252   19.2558 C.ar    1  UNL1        0.0148
      3 C           1.6122    2.4000   18.5793 C.ar    1  UNL1        0.0060
      4 C           2.0549    0.9870   18.8191 C.ar    1  UNL1        0.0553
      5 C           1.2661    0.0992   19.7353 C.ar    1  UNL1        0.0060
      6 C           0.0346    0.6243   20.4117 C.ar    1  UNL1        0.0148
      7 C           3.2864    0.4619   18.1425 C.ar    1  UNL1        0.2512
      8 N           3.3232   -0.5758   17.0600 N.ar    1  UNL1       -0.1058
      9 N           4.7568   -0.7968   16.6782 N.ar    1  UNL1       -0.0923
     10 C           5.6061    0.1044   17.5248 C.ar    1  UNL1        0.3086
     11 O           4.6974    0.8823   18.4298 O.2     1  UNL1       -0.4048
     12 N           7.1017    0.2093   17.4750 N.pl3   1  UNL1       -0.2871
     13 H           7.5569    0.3496   16.6135 H       1  UNL1        0.1512
     14 C           7.9036    0.1002   18.7380 C.3     1  UNL1        0.0925
     15 C           8.4763   -1.2233   19.1508 C.3     1  UNL1        0.0386
     16 C           7.7814   -2.0491   20.1925 C.3     1  UNL1        0.0738
     17 N           6.3237   -2.3705   20.0452 N.3     1  UNL1       -0.2726
     18 C           5.8703   -3.3283   18.9836 C.3     1  UNL1        0.0721
     19 C           4.4126   -3.6497   18.8363 C.3     1  UNL1        0.0174
     20 C           3.4082   -3.0133   19.7507 C.3     1  UNL1        0.0029
     21 C           3.8615   -2.0555   20.8123 C.3     1  UNL1        0.0174
     22 C           5.3193   -1.7341   20.9596 C.3     1  UNL1        0.0721
     23 O          -0.1728    3.5509   22.7515 O.2     1  UNL1       -0.2698
     24 C          -1.5219    3.3192   22.1383 C.2     1  UNL1        0.2495
     25 N          -1.6396    2.5624   20.8486 N.am    1  UNL1       -0.2804
     26 H          -2.5251    2.4103   20.4461 H       1  UNL1        0.1552
     27 C          -2.7535    3.8443   22.8148 C.ar    1  UNL1        0.0537
     28 C          -2.6308    4.8524   23.9187 C.ar    1  UNL1        0.0045
     29 C          -3.8623    5.3774   24.5952 C.ar    1  UNL1        0.0001
     30 C          -5.2165    4.8944   24.1677 C.ar    1  UNL1        0.0000
     31 C          -5.3393    3.8864   23.0638 C.ar    1  UNL1        0.0001
     32 C          -4.1077    3.3613   22.3873 C.ar    1  UNL1        0.0045
@<TRIPOS>BOND
     1    23    24    2
     2    24    25   am
     3    25     1    1
     4     1     2   ar
     5     2     3   ar
     6     3     4   ar
     7     4     7    1
     8     7     8   ar
     9     8     9   ar
    10     9    10   ar
    11    10    12    1
    12    12    14    1
    13    14    15    1
    14    15    16    1
    15    16    17    1
    16    17    18    1
    17    18    19    1
    18    19    20    1
    19    20    21    1
    20    21    22    1
    21    10    11   ar
    22     4     5   ar
    23     5     6   ar
    24    24    27    1
    25    27    28   ar
    26    28    29   ar
    27    29    30   ar
    28    30    31   ar
    29    31    32   ar
    30     6     1   ar
    31    32    27   ar
    32    11     7   ar
    33    22    17    1
    34    25    26    1
    35    12    13    1
@<TRIPOS>MOLECULE
*****
 32 35 0 0 0
SMALL
GASTEIGER

@<TRIPOS>ATOM
      1 C          -0.6340    2.4160   26.9171 C.ar    1  UNL1        0.0505
      2 C           0.2231    3.4805   27.5353 C.ar    1  UNL1        0.0148
      3 C           0.8877    3.2344   28.8573 C.ar    1  UNL1        0.0060
      4 C           0.6954    1.9238   29.5610 C.ar    1  UNL1        0.0553
      5 C          -0.1617    0.8593   28.9428 C.ar    1  UNL1        0.0060
      6 C          -0.8264    1.1054   27.6209 C.ar    1  UNL1        0.0148
      7 C           1.3601    1.6777   30.8830 C.ar    1  UNL1        0.2512
      8 N           2.4292    0.6617   31.1568 N.ar    1  UNL1       -0.1058
      9 N           2.8023    0.7605   32.6063 N.ar    1  UNL1       -0.0923
     10 C           1.9637    1.8375   33.2284 C.ar    1  UNL1        0.3086
     11 O           1.0725    2.4044   32.1633 O.2     1  UNL1       -0.4048
     12 N           2.0087    2.2715   34.6635 N.pl3   1  UNL1       -0.2871
     13 H           2.0582    1.5982   35.3801 H       1  UNL1        0.1512
     14 C           1.9780    3.7313   35.0069 C.3     1  UNL1        0.0925
     15 C           3.1145    4.3467   35.7684 C.3     1  UNL1        0.0386
     16 C           3.1829    4.2030   37.2599 C.3     1  UNL1        0.0738
     17 N           2.4490    3.0857   37.9402 N.3     1  UNL1       -0.2726
     18 C           1.0578    3.3065   38.4558 C.3     1  UNL1        0.0721
     19 C           0.3238    2.1893   39.1361 C.3     1  UNL1        0.0174
     20 C           0.9810    0.8510   39.3008 C.3     1  UNL1        0.0029
     21 C           2.3722    0.6301   38.7852 C.3     1  UNL1        0.0174
     22 C           3.1061    1.7475   38.1049 C.3     1  UNL1        0.0721
     23 O          -3.3562    3.6729   26.8177 O.2     1  UNL1       -0.2698
     24 C          -2.6598    3.2905   25.5454 C.2     1  UNL1        0.2495
     25 N          -1.2987    2.6621   25.5951 N.am    1  UNL1       -0.2804
     26 H          -0.8416    2.4111   24.7600 H       1  UNL1        0.1552
     27 C          -3.3245    3.5366   24.2234 C.ar    1  UNL1        0.0537
     28 C          -4.7671    3.1742   24.0303 C.ar    1  UNL1        0.0045
     29 C          -5.4318    3.4203   22.7084 C.ar    1  UNL1        0.0001
     30 C          -4.6538    4.0287   21.5795 C.ar    1  UNL1        0.0000
     31 C          -3.2111    4.3911   21.7725 C.ar    1  UNL1        0.0001
     32 C          -2.5465    4.1451   23.0945 C.ar    1  UNL1        0.0045
@<TRIPOS>BOND
     1    23    24    2
     2    24    25   am
     3    25     1    1
     4     1     2   ar
     5     2     3   ar
     6     3     4   ar
     7     4     7    1
     8     7     8   ar
     9     8     9   ar
    10     9    10   ar
    11    10    12    1
    12    12    14    1
    13    14    15    1
    14    15    16    1
    15    16    17    1
    16    17    18    1
    17    18    19    1
    18    19    20    1
    19    20    21    1
    20    21    22    1
    21    10    11   ar
    22     4     5   ar
    23     5     6   ar
    24    24    27    1
    25    27    28   ar
    26    28    29   ar
    27    29    30   ar
    28    30    31   ar
    29    31    32   ar
    30     6     1   ar
    31    32    27   ar
    32    11     7   ar
    33    22    17    1
    34    25    26    1
    35    12    13    1
