@<TRIPOS>MOLECULE
*****
 30 34 0 0 0
SMALL
GASTEIGER

@<TRIPOS>ATOM
      1 C          -6.2447  -17.6327   22.9584 C.ar    1  UNL1        0.0867
      2 C          -4.8415  -17.2295   23.3024 C.ar    1  UNL1        0.1361
      3 N          -4.5800  -16.3802   24.5108 N.ar    1  UNL1       -0.2305
      4 C          -5.7219  -15.9340   25.3753 C.ar    1  UNL1        0.0827
      5 C          -5.4604  -15.0847   26.5837 C.ar    1  UNL1        0.0200
      6 C          -6.6022  -14.6386   27.4480 C.ar    1  UNL1        0.0129
      7 C          -8.0055  -15.0417   27.1040 C.ar    1  UNL1        0.0578
      8 CL         -9.1473  -14.5955   27.9684 Cl      1  UNL1       -0.0822
      9 C          -8.2669  -15.8910   25.8956 C.ar    1  UNL1        0.0129
     10 C          -7.1251  -16.3372   25.0312 C.ar    1  UNL1        0.0188
     11 C          -7.3865  -17.1865   23.8227 C.ar    1  UNL1        0.0087
     12 O          -6.5660  -21.7856   19.7133 O.2     1  UNL1       -0.2213
     13 C          -6.6538  -20.3909   20.2583 C.ar    1  UNL1        0.4358
     14 N          -7.1630  -19.1871   19.5223 N.ar    1  UNL1       -0.2081
     15 N          -7.0717  -18.0073   20.4442 N.ar    1  UNL1       -0.1295
     16 C          -6.5062  -18.4820   21.7499 C.ar    1  UNL1        0.2536
     17 O          -6.2479  -19.9551   21.6351 O.2     1  UNL1       -0.3878
     18 H          -7.4982  -19.1736   18.5968 H       1  UNL1        0.1954
     19 N          -3.6997  -17.6757   22.4380 N.pl3   1  UNL1       -0.2931
     20 C          -2.8343  -16.6588   21.7547 C.3     1  UNL1        0.0922
     21 C          -1.6925  -17.1050   20.8903 C.3     1  UNL1        0.0215
     22 C          -1.4161  -18.5682   20.7092 C.3     1  UNL1        0.0035
     23 C          -2.2815  -19.5851   21.3925 C.3     1  UNL1        0.0215
     24 C          -3.4233  -19.1389   22.2569 C.3     1  UNL1        0.0922
     25 C          -8.7898  -17.5896   23.4787 C.ar    1  UNL1        0.0003
     26 C          -9.6587  -16.6690   22.6740 C.ar    1  UNL1        0.0000
     27 C         -11.0620  -17.0721   22.3300 C.ar    1  UNL1        0.0000
     28 C         -11.5963  -18.3959   22.7906 C.ar    1  UNL1        0.0000
     29 C         -10.7274  -19.3165   23.5953 C.ar    1  UNL1        0.0000
     30 C          -9.3242  -18.9133   23.9393 C.ar    1  UNL1        0.0000
@<TRIPOS>BOND
     1    12    13    2
     2    13    14   ar
     3    14    15   ar
     4    15    16   ar
     5    16     1    1
     6     1     2   ar
     7     2    19    1
     8    19    20    1
     9    20    21    1
    10    21    22    1
    11    22    23    1
    12    23    24    1
    13     2     3   ar
    14     3     4   ar
    15     4     5   ar
    16     5     6   ar
    17     6     7   ar
    18     7     8    1
    19     7     9   ar
    20     9    10   ar
    21    10    11   ar
    22    11    25    1
    23    25    26   ar
    24    26    27   ar
    25    27    28   ar
    26    28    29   ar
    27    29    30   ar
    28    16    17   ar
    29    17    13   ar
    30    11     1   ar
    31    30    25   ar
    32    24    19    1
    33    10     4   ar
    34    14    18    1
@<TRIPOS>MOLECULE
*****
 30 34 0 0 0
SMALL
GASTEIGER

@<TRIPOS>ATOM
      1 C         -14.5961   -4.5549   18.3607 C.ar    1  UNL1        0.0867
      2 C         -13.5828   -5.6605   18.3875 C.ar    1  UNL1        0.1361
      3 N         -13.9907   -7.0418   18.8065 N.ar    1  UNL1       -0.2305
      4 C         -15.4121   -7.3175   19.1988 C.ar    1  UNL1        0.0827
      5 C         -15.8200   -8.6988   19.6178 C.ar    1  UNL1        0.0200
      6 C         -17.2413   -8.9744   20.0101 C.ar    1  UNL1        0.0129
      7 C         -18.2546   -7.8688   19.9833 C.ar    1  UNL1        0.0578
      8 CL        -19.6760   -8.1445   20.3756 Cl      1  UNL1       -0.0822
      9 C         -17.8467   -6.4875   19.5643 C.ar    1  UNL1        0.0129
     10 C         -16.4254   -6.2119   19.1720 C.ar    1  UNL1        0.0188
     11 C         -16.0174   -4.8305   18.7530 C.ar    1  UNL1        0.0087
     12 O         -12.7666    0.3967   18.4878 O.2     1  UNL1       -0.2213
     13 C         -13.3472   -0.8976   18.0001 C.ar    1  UNL1        0.4358
     14 N         -13.7734   -1.1983   16.5937 N.ar    1  UNL1       -0.2081
     15 N         -14.2932   -2.6049   16.5576 N.ar    1  UNL1       -0.1295
     16 C         -14.1881   -3.1735   17.9417 C.ar    1  UNL1        0.2536
     17 O         -13.6035   -2.1184   18.8332 O.2     1  UNL1       -0.3878
     18 H         -13.7213   -0.5809   15.8287 H       1  UNL1        0.1954
     19 N         -12.1614   -5.3848   17.9952 N.pl3   1  UNL1       -0.2931
     20 C         -11.1414   -5.0653   19.0476 C.3     1  UNL1        0.0922
     21 C          -9.7202   -4.7896   18.6553 C.3     1  UNL1        0.0215
     22 C          -9.3189   -4.8334   17.2106 C.3     1  UNL1        0.0035
     23 C         -10.3389   -5.1528   16.1582 C.3     1  UNL1        0.0215
     24 C         -11.7602   -5.4285   16.5505 C.3     1  UNL1        0.0922
     25 C         -17.0308   -3.7249   18.7262 C.ar    1  UNL1        0.0003
     26 C         -17.7931   -3.4366   17.4669 C.ar    1  UNL1        0.0000
     27 C         -18.8065   -2.3310   17.4401 C.ar    1  UNL1        0.0000
     28 C         -19.0575   -1.5137   18.6727 C.ar    1  UNL1        0.0000
     29 C         -18.2952   -1.8020   19.9319 C.ar    1  UNL1        0.0000
     30 C         -17.2818   -2.9076   19.9587 C.ar    1  UNL1        0.0000
@<TRIPOS>BOND
     1    12    13    2
     2    13    14   ar
     3    14    15   ar
     4    15    16   ar
     5    16     1    1
     6     1     2   ar
     7     2    19    1
     8    19    20    1
     9    20    21    1
    10    21    22    1
    11    22    23    1
    12    23    24    1
    13     2     3   ar
    14     3     4   ar
    15     4     5   ar
    16     5     6   ar
    17     6     7   ar
    18     7     8    1
    19     7     9   ar
    20     9    10   ar
    21    10    11   ar
    22    11    25    1
    23    25    26   ar
    24    26    27   ar
    25    27    28   ar
    26    28    29   ar
    27    29    30   ar
    28    16    17   ar
    29    17    13   ar
    30    11     1   ar
    31    30    25   ar
    32    24    19    1
    33    10     4   ar
    34    14    18    1
@<TRIPOS>MOLECULE
*****
 30 34 0 0 0
SMALL
GASTEIGER

@<TRIPOS>ATOM
      1 C           4.1677    1.0093   34.3776 C.ar    1  UNL1        0.0867
      2 C           3.1554    2.0402   34.7805 C.ar    1  UNL1        0.1361
      3 N           2.0296    2.3888   33.8526 N.ar    1  UNL1       -0.2305
      4 C           1.9162    1.7064   32.5215 C.ar    1  UNL1        0.0827
      5 C           0.7905    2.0549   31.5935 C.ar    1  UNL1        0.0200
      6 C           0.6771    1.3726   30.2626 C.ar    1  UNL1        0.0129
      7 C           1.6895    0.3417   29.8596 C.ar    1  UNL1        0.0578
      8 CL          1.5761   -0.3407   28.5286 Cl      1  UNL1       -0.0822
      9 C           2.8152   -0.0068   30.7876 C.ar    1  UNL1        0.0129
     10 C           2.9286    0.6755   32.1185 C.ar    1  UNL1        0.0188
     11 C           4.0544    0.3270   33.0466 C.ar    1  UNL1        0.0087
     12 O           8.8159    1.0780   36.8818 O.2     1  UNL1       -0.2213
     13 C           7.4301    0.6924   36.4567 C.ar    1  UNL1        0.4358
     14 N           6.6217   -0.4433   37.0107 N.ar    1  UNL1       -0.2081
     15 N           5.3013   -0.4628   36.2993 N.ar    1  UNL1       -0.1295
     16 C           5.2935    0.6608   35.3056 C.ar    1  UNL1        0.2536
     17 O           6.6091    1.3748   35.4028 O.2     1  UNL1       -0.3878
     18 H           6.9077   -1.0665   37.7172 H       1  UNL1        0.1954
     19 N           3.2688    2.7226   36.1116 N.pl3   1  UNL1       -0.2931
     20 C           3.9842    4.0363   36.2224 C.3     1  UNL1        0.0922
     21 C           4.0975    4.7186   37.5534 C.3     1  UNL1        0.0215
     22 C           3.4956    4.0872   38.7736 C.3     1  UNL1        0.0035
     23 C           2.7802    2.7734   38.6628 C.3     1  UNL1        0.0215
     24 C           2.6668    2.0912   37.3318 C.3     1  UNL1        0.0922
     25 C           5.0667   -0.7039   32.6436 C.ar    1  UNL1        0.0003
     26 C           4.8281   -2.1516   32.9559 C.ar    1  UNL1        0.0000
     27 C           5.8405   -3.1825   32.5529 C.ar    1  UNL1        0.0000
     28 C           7.0915   -2.7657   31.8377 C.ar    1  UNL1        0.0000
     29 C           7.3300   -1.3181   31.5255 C.ar    1  UNL1        0.0000
     30 C           6.3177   -0.2872   31.9285 C.ar    1  UNL1        0.0000
@<TRIPOS>BOND
     1    12    13    2
     2    13    14   ar
     3    14    15   ar
     4    15    16   ar
     5    16     1    1
     6     1     2   ar
     7     2    19    1
     8    19    20    1
     9    20    21    1
    10    21    22    1
    11    22    23    1
    12    23    24    1
    13     2     3   ar
    14     3     4   ar
    15     4     5   ar
    16     5     6   ar
    17     6     7   ar
    18     7     8    1
    19     7     9   ar
    20     9    10   ar
    21    10    11   ar
    22    11    25    1
    23    25    26   ar
    24    26    27   ar
    25    27    28   ar
    26    28    29   ar
    27    29    30   ar
    28    16    17   ar
    29    17    13   ar
    30    11     1   ar
    31    30    25   ar
    32    24    19    1
    33    10     4   ar
    34    14    18    1
@<TRIPOS>MOLECULE
*****
 30 34 0 0 0
SMALL
GASTEIGER

@<TRIPOS>ATOM
      1 C           3.4898   -0.8099   22.4968 C.ar    1  UNL1        0.0867
      2 C           3.3136   -0.1108   23.8122 C.ar    1  UNL1        0.1361
      3 N           4.0310   -0.6125   25.0302 N.ar    1  UNL1       -0.2305
      4 C           4.9247   -1.8133   24.9329 C.ar    1  UNL1        0.0827
      5 C           5.6421   -2.3150   26.1509 C.ar    1  UNL1        0.0200
      6 C           6.5357   -3.5158   26.0535 C.ar    1  UNL1        0.0129
      7 C           6.7119   -4.2149   24.7381 C.ar    1  UNL1        0.0578
      8 CL          7.6056   -5.4158   24.6408 Cl      1  UNL1       -0.0822
      9 C           5.9945   -3.7132   23.5201 C.ar    1  UNL1        0.0129
     10 C           5.1009   -2.5124   23.6175 C.ar    1  UNL1        0.0188
     11 C           4.3834   -2.0107   22.3995 C.ar    1  UNL1        0.0087
     12 O           2.2243    2.0246   18.2254 O.2     1  UNL1       -0.2213
     13 C           2.1906    0.9948   19.3154 C.ar    1  UNL1        0.4358
     14 N           1.1459   -0.0668   19.4935 N.ar    1  UNL1       -0.2081
     15 N           1.5054   -0.8720   20.7070 N.ar    1  UNL1       -0.1295
     16 C           2.7723   -0.3082   21.2788 C.ar    1  UNL1        0.2536
     17 O           3.1958    0.8456   20.4188 O.2     1  UNL1       -0.3878
     18 H           0.3619   -0.2099   18.9155 H       1  UNL1        0.1954
     19 N           2.4199    1.0901   23.9095 N.pl3   1  UNL1       -0.2931
     20 C           0.9779    0.9232   24.2871 C.3     1  UNL1        0.0922
     21 C           0.0843    2.1240   24.3844 C.3     1  UNL1        0.0215
     22 C           0.6328    3.4917   24.1042 C.3     1  UNL1        0.0035
     23 C           2.0748    3.6586   23.7266 C.3     1  UNL1        0.0215
     24 C           2.9684    2.4578   23.6293 C.3     1  UNL1        0.0922
     25 C           4.5595   -2.7098   21.0841 C.ar    1  UNL1        0.0003
     26 C           3.7342   -3.9202   20.7616 C.ar    1  UNL1        0.0000
     27 C           3.9104   -4.6193   19.4462 C.ar    1  UNL1        0.0000
     28 C           4.9119   -4.1080   18.4533 C.ar    1  UNL1        0.0000
     29 C           5.7371   -2.8977   18.7759 C.ar    1  UNL1        0.0000
     30 C           5.5610   -2.1986   20.0912 C.ar    1  UNL1        0.0000
@<TRIPOS>BOND
     1    12    13    2
     2    13    14   ar
     3    14    15   ar
     4    15    16   ar
     5    16     1    1
     6     1     2   ar
     7     2    19    1
     8    19    20    1
     9    20    21    1
    10    21    22    1
    11    22    23    1
    12    23    24    1
    13     2     3   ar
    14     3     4   ar
    15     4     5   ar
    16     5     6   ar
    17     6     7   ar
    18     7     8    1
    19     7     9   ar
    20     9    10   ar
    21    10    11   ar
    22    11    25    1
    23    25    26   ar
    24    26    27   ar
    25    27    28   ar
    26    28    29   ar
    27    29    30   ar
    28    16    17   ar
    29    17    13   ar
    30    11     1   ar
    31    30    25   ar
    32    24    19    1
    33    10     4   ar
    34    14    18    1
@<TRIPOS>MOLECULE
*****
 30 34 0 0 0
SMALL
GASTEIGER

@<TRIPOS>ATOM
      1 C           5.2221   -2.0804   23.4475 C.ar    1  UNL1        0.0867
      2 C           5.0142   -1.3060   24.7152 C.ar    1  UNL1        0.1361
      3 N           3.8794   -0.3308   24.8208 N.ar    1  UNL1       -0.2305
      4 C           2.9524   -0.1301   23.6587 C.ar    1  UNL1        0.0827
      5 C           1.8176    0.8451   23.7644 C.ar    1  UNL1        0.0200
      6 C           0.8906    1.0458   22.6024 C.ar    1  UNL1        0.0129
      7 C           1.0984    0.2713   21.3347 C.ar    1  UNL1        0.0578
      8 CL          0.1713    0.4721   20.1726 Cl      1  UNL1       -0.0822
      9 C           2.2332   -0.7038   21.2290 C.ar    1  UNL1        0.0129
     10 C           3.1602   -0.9045   22.3911 C.ar    1  UNL1        0.0188
     11 C           4.2951   -1.8797   22.2855 C.ar    1  UNL1        0.0087
     12 O           8.0035   -6.5688   23.4538 O.2     1  UNL1       -0.2213
     13 C           7.6354   -5.1187   23.3448 C.ar    1  UNL1        0.4358
     14 N           8.5711   -3.9939   23.0140 N.ar    1  UNL1       -0.2081
     15 N           7.7810   -2.7189   23.0122 N.ar    1  UNL1       -0.1295
     16 C           6.3570   -3.0556   23.3419 C.ar    1  UNL1        0.2536
     17 O           6.2669   -4.5388   23.5474 O.2     1  UNL1       -0.3878
     18 H           9.5347   -4.0779   22.8303 H       1  UNL1        0.1954
     19 N           5.9413   -1.5067   25.8772 N.pl3   1  UNL1       -0.2931
     20 C           7.2106   -0.7128   25.9699 C.3     1  UNL1        0.0922
     21 C           8.1376   -0.9136   27.1319 C.3     1  UNL1        0.0215
     22 C           7.7953   -1.9082   28.2013 C.3     1  UNL1        0.0035
     23 C           6.5260   -2.7021   28.1086 C.3     1  UNL1        0.0215
     24 C           5.5990   -2.5014   26.9466 C.3     1  UNL1        0.0922
     25 C           4.5029   -2.6542   21.0178 C.ar    1  UNL1        0.0003
     26 C           5.3540   -2.0845   19.9218 C.ar    1  UNL1        0.0000
     27 C           5.5619   -2.8590   18.6541 C.ar    1  UNL1        0.0000
     28 C           4.9185   -4.2032   18.4824 C.ar    1  UNL1        0.0000
     29 C           4.0674   -4.7728   19.5784 C.ar    1  UNL1        0.0000
     30 C           3.8596   -3.9983   20.8460 C.ar    1  UNL1        0.0000
@<TRIPOS>BOND
     1    12    13    2
     2    13    14   ar
     3    14    15   ar
     4    15    16   ar
     5    16     1    1
     6     1     2   ar
     7     2    19    1
     8    19    20    1
     9    20    21    1
    10    21    22    1
    11    22    23    1
    12    23    24    1
    13     2     3   ar
    14     3     4   ar
    15     4     5   ar
    16     5     6   ar
    17     6     7   ar
    18     7     8    1
    19     7     9   ar
    20     9    10   ar
    21    10    11   ar
    22    11    25    1
    23    25    26   ar
    24    26    27   ar
    25    27    28   ar
    26    28    29   ar
    27    29    30   ar
    28    16    17   ar
    29    17    13   ar
    30    11     1   ar
    31    30    25   ar
    32    24    19    1
    33    10     4   ar
    34    14    18    1
@<TRIPOS>MOLECULE
*****
 30 34 0 0 0
SMALL
GASTEIGER

@<TRIPOS>ATOM
      1 C           4.5435    0.2133   32.7984 C.ar    1  UNL1        0.0867
      2 C           5.3901   -0.6671   33.6692 C.ar    1  UNL1        0.1361
      3 N           5.3561   -0.5032   35.1598 N.ar    1  UNL1       -0.2305
      4 C           4.4756    0.5410   35.7797 C.ar    1  UNL1        0.0827
      5 C           4.4416    0.7048   37.2703 C.ar    1  UNL1        0.0200
      6 C           3.5611    1.7490   37.8902 C.ar    1  UNL1        0.0129
      7 C           2.7145    2.6293   37.0194 C.ar    1  UNL1        0.0578
      8 CL          1.8339    3.6736   37.6394 Cl      1  UNL1       -0.0822
      9 C           2.7484    2.4655   35.5288 C.ar    1  UNL1        0.0129
     10 C           3.6290    1.4214   34.9090 C.ar    1  UNL1        0.0188
     11 C           3.6629    1.2575   33.4183 C.ar    1  UNL1        0.0087
     12 O           3.3919   -1.3622   27.8920 O.2     1  UNL1       -0.2213
     13 C           4.0481   -0.6747   29.0525 C.ar    1  UNL1        0.4358
     14 N           5.2113    0.2693   28.9753 N.ar    1  UNL1       -0.2081
     15 N           5.5384    0.7169   30.3691 N.ar    1  UNL1       -0.1295
     16 C           4.5775    0.0495   31.3077 C.ar    1  UNL1        0.2536
     17 O           3.6564   -0.8106   30.4942 O.2     1  UNL1       -0.3878
     18 H           5.6781    0.5465   28.1539 H       1  UNL1        0.1954
     19 N           6.2707   -1.7113   33.0492 N.pl3   1  UNL1       -0.2931
     20 C           7.7361   -1.4464   32.8699 C.3     1  UNL1        0.0922
     21 C           8.6166   -2.4906   32.2500 C.3     1  UNL1        0.0215
     22 C           8.0317   -3.7997   31.8094 C.3     1  UNL1        0.0035
     23 C           6.5662   -4.0645   31.9887 C.3     1  UNL1        0.0215
     24 C           5.6857   -3.0203   32.6086 C.3     1  UNL1        0.0922
     25 C           2.8163    2.1379   32.5475 C.ar    1  UNL1        0.0003
     26 C           1.4222    1.7181   32.1865 C.ar    1  UNL1        0.0000
     27 C           0.5756    2.5984   31.3158 C.ar    1  UNL1        0.0000
     28 C           1.1231    3.8986   30.8060 C.ar    1  UNL1        0.0000
     29 C           2.5172    4.3184   31.1670 C.ar    1  UNL1        0.0000
     30 C           3.3638    3.4380   32.0378 C.ar    1  UNL1        0.0000
@<TRIPOS>BOND
     1    12    13    2
     2    13    14   ar
     3    14    15   ar
     4    15    16   ar
     5    16     1    1
     6     1     2   ar
     7     2    19    1
     8    19    20    1
     9    20    21    1
    10    21    22    1
    11    22    23    1
    12    23    24    1
    13     2     3   ar
    14     3     4   ar
    15     4     5   ar
    16     5     6   ar
    17     6     7   ar
    18     7     8    1
    19     7     9   ar
    20     9    10   ar
    21    10    11   ar
    22    11    25    1
    23    25    26   ar
    24    26    27   ar
    25    27    28   ar
    26    28    29   ar
    27    29    30   ar
    28    16    17   ar
    29    17    13   ar
    30    11     1   ar
    31    30    25   ar
    32    24    19    1
    33    10     4   ar
    34    14    18    1
@<TRIPOS>MOLECULE
*****
 30 34 0 0 0
SMALL
GASTEIGER

@<TRIPOS>ATOM
      1 C           0.0041    2.2987   23.6427 C.ar    1  UNL1        0.0867
      2 C          -0.5361    2.5189   22.2608 C.ar    1  UNL1        0.1361
      3 N          -1.8787    3.1611   22.0739 N.ar    1  UNL1       -0.2305
      4 C          -2.6812    3.5830   23.2689 C.ar    1  UNL1        0.0827
      5 C          -4.0238    4.2252   23.0820 C.ar    1  UNL1        0.0200
      6 C          -4.8263    4.6471   24.2770 C.ar    1  UNL1        0.0129
      7 C          -4.2861    4.4268   25.6589 C.ar    1  UNL1        0.0578
      8 CL         -5.0886    4.8487   26.8539 Cl      1  UNL1       -0.0822
      9 C          -2.9435    3.7847   25.8458 C.ar    1  UNL1        0.0129
     10 C          -2.1410    3.3628   24.6508 C.ar    1  UNL1        0.0188
     11 C          -0.7983    2.7206   24.8377 C.ar    1  UNL1        0.0087
     12 O           3.7727   -1.2773   24.5866 O.2     1  UNL1       -0.2213
     13 C           3.0790    0.0128   24.2634 C.ar    1  UNL1        0.4358
     14 N           3.7468    1.3238   23.9708 N.ar    1  UNL1       -0.2081
     15 N           2.6762    2.3396   23.7027 N.ar    1  UNL1       -0.1295
     16 C           1.3468    1.6565   23.8296 C.ar    1  UNL1        0.2536
     17 O           1.5957    0.2185   24.1761 O.2     1  UNL1       -0.3878
     18 H           4.7173    1.4885   23.9572 H       1  UNL1        0.1954
     19 N           0.2664    2.0970   21.0657 N.pl3   1  UNL1       -0.2931
     20 C           0.1614    0.6925   20.5497 C.3     1  UNL1        0.0922
     21 C           0.9639    0.2707   19.3547 C.3     1  UNL1        0.0215
     22 C           1.8714    1.2533   18.6758 C.3     1  UNL1        0.0035
     23 C           1.9764    2.6578   19.1919 C.3     1  UNL1        0.0215
     24 C           1.1739    3.0796   20.3868 C.3     1  UNL1        0.0922
     25 C          -0.2581    2.5003   26.2196 C.ar    1  UNL1        0.0003
     26 C          -0.5859    1.2380   26.9606 C.ar    1  UNL1        0.0000
     27 C          -0.0457    1.0177   28.3425 C.ar    1  UNL1        0.0000
     28 C           0.8223    2.0599   28.9834 C.ar    1  UNL1        0.0000
     29 C           1.1500    3.3221   28.2424 C.ar    1  UNL1        0.0000
     30 C           0.6098    3.5424   26.8605 C.ar    1  UNL1        0.0000
@<TRIPOS>BOND
     1    12    13    2
     2    13    14   ar
     3    14    15   ar
     4    15    16   ar
     5    16     1    1
     6     1     2   ar
     7     2    19    1
     8    19    20    1
     9    20    21    1
    10    21    22    1
    11    22    23    1
    12    23    24    1
    13     2     3   ar
    14     3     4   ar
    15     4     5   ar
    16     5     6   ar
    17     6     7   ar
    18     7     8    1
    19     7     9   ar
    20     9    10   ar
    21    10    11   ar
    22    11    25    1
    23    25    26   ar
    24    26    27   ar
    25    27    28   ar
    26    28    29   ar
    27    29    30   ar
    28    16    17   ar
    29    17    13   ar
    30    11     1   ar
    31    30    25   ar
    32    24    19    1
    33    10     4   ar
    34    14    18    1
@<TRIPOS>MOLECULE
*****
 30 34 0 0 0
SMALL
GASTEIGER

@<TRIPOS>ATOM
      1 C           5.3289   -2.0588   24.6972 C.ar    1  UNL1        0.0867
      2 C           5.4869   -2.0196   26.1884 C.ar    1  UNL1        0.1361
      3 N           6.2738   -3.0882   26.8876 N.ar    1  UNL1       -0.2305
      4 C           6.9028   -4.1960   26.0956 C.ar    1  UNL1        0.0827
      5 C           7.6897   -5.2646   26.7948 C.ar    1  UNL1        0.0200
      6 C           8.3186   -6.3723   26.0028 C.ar    1  UNL1        0.0129
      7 C           8.1607   -6.4115   24.5117 C.ar    1  UNL1        0.0578
      8 CL          8.7897   -7.5194   23.7197 Cl      1  UNL1       -0.0822
      9 C           7.3738   -5.3430   23.8125 C.ar    1  UNL1        0.0129
     10 C           6.7448   -4.2352   24.6044 C.ar    1  UNL1        0.0188
     11 C           5.9579   -3.1666   23.9053 C.ar    1  UNL1        0.0087
     12 O           1.3159    0.6973   22.6527 O.2     1  UNL1       -0.2213
     13 C           2.6973    0.2767   23.0583 C.ar    1  UNL1        0.4358
     14 N           3.9646    1.0318   22.7861 N.ar    1  UNL1       -0.2081
     15 N           5.1046    0.2488   23.3669 N.ar    1  UNL1       -0.1295
     16 C           4.5420   -0.9902   23.9981 C.ar    1  UNL1        0.2536
     17 O           3.0542   -0.9730   23.8074 O.2     1  UNL1       -0.3878
     18 H           4.0356    1.8905   22.3098 H       1  UNL1        0.1954
     19 N           4.8579   -0.9118   26.9804 N.pl3   1  UNL1       -0.2931
     20 C           5.6087    0.3664   27.2092 C.3     1  UNL1        0.0922
     21 C           4.9797    1.4741   28.0012 C.3     1  UNL1        0.0215
     22 C           3.5999    1.3037   28.5642 C.3     1  UNL1        0.0035
     23 C           2.8490    0.0255   28.3353 C.3     1  UNL1        0.0215
     24 C           3.4781   -1.0823   27.5434 C.3     1  UNL1        0.0922
     25 C           5.7999   -3.2058   22.4141 C.ar    1  UNL1        0.0003
     26 C           6.8313   -2.5647   21.5336 C.ar    1  UNL1        0.0000
     27 C           6.6734   -2.6039   20.0424 C.ar    1  UNL1        0.0000
     28 C           5.4840   -3.2841   19.4318 C.ar    1  UNL1        0.0000
     29 C           4.4527   -3.9251   20.3124 C.ar    1  UNL1        0.0000
     30 C           4.6106   -3.8860   21.8035 C.ar    1  UNL1        0.0000
@<TRIPOS>BOND
     1    12    13    2
     2    13    14   ar
     3    14    15   ar
     4    15    16   ar
     5    16     1    1
     6     1     2   ar
     7     2    19    1
     8    19    20    1
     9    20    21    1
    10    21    22    1
    11    22    23    1
    12    23    24    1
    13     2     3   ar
    14     3     4   ar
    15     4     5   ar
    16     5     6   ar
    17     6     7   ar
    18     7     8    1
    19     7     9   ar
    20     9    10   ar
    21    10    11   ar
    22    11    25    1
    23    25    26   ar
    24    26    27   ar
    25    27    28   ar
    26    28    29   ar
    27    29    30   ar
    28    16    17   ar
    29    17    13   ar
    30    11     1   ar
    31    30    25   ar
    32    24    19    1
    33    10     4   ar
    34    14    18    1
@<TRIPOS>MOLECULE
*****
 30 34 0 0 0
SMALL
GASTEIGER

@<TRIPOS>ATOM
      1 C           3.1713    0.4939   30.4522 C.ar    1  UNL1        0.0867
      2 C           1.9782    1.3950   30.5733 C.ar    1  UNL1        0.1361
      3 N           1.6494    2.0311   31.8913 N.ar    1  UNL1       -0.2305
      4 C           2.5137    1.7662   33.0883 C.ar    1  UNL1        0.0827
      5 C           2.1849    2.4024   34.4063 C.ar    1  UNL1        0.0200
      6 C           3.0492    2.1375   35.6033 C.ar    1  UNL1        0.0129
      7 C           4.2423    1.2364   35.4823 C.ar    1  UNL1        0.0578
      8 CL          5.1066    0.9716   36.6793 Cl      1  UNL1       -0.0822
      9 C           4.5711    0.6003   34.1643 C.ar    1  UNL1        0.0129
     10 C           3.7068    0.8652   32.9673 C.ar    1  UNL1        0.0188
     11 C           4.0356    0.2290   31.6492 C.ar    1  UNL1        0.0087
     12 O           5.5932   -0.6869   25.9112 O.2     1  UNL1       -0.2213
     13 C           4.6133   -0.6850   27.0469 C.ar    1  UNL1        0.4358
     14 N           3.3987   -1.5573   27.1649 N.ar    1  UNL1       -0.2081
     15 N           2.7107   -1.2218   28.4549 N.ar    1  UNL1       -0.1295
     16 C           3.5000   -0.1422   29.1341 C.ar    1  UNL1        0.2536
     17 O           4.6760    0.1896   28.2640 O.2     1  UNL1       -0.3878
     18 H           3.1047   -2.2315   26.5106 H       1  UNL1        0.1954
     19 N           1.1139    1.6599   29.3762 N.pl3   1  UNL1       -0.2931
     20 C          -0.1385    0.8620   29.1641 C.3     1  UNL1        0.0922
     21 C          -1.0027    1.1269   27.9670 C.3     1  UNL1        0.0215
     22 C          -0.6146    2.1897   26.9822 C.3     1  UNL1        0.0035
     23 C           0.6377    2.9875   27.1943 C.3     1  UNL1        0.0215
     24 C           1.5020    2.7226   28.3913 C.3     1  UNL1        0.0922
     25 C           5.2287   -0.6720   31.5282 C.ar    1  UNL1        0.0003
     26 C           5.0950   -2.1370   31.8217 C.ar    1  UNL1        0.0000
     27 C           6.2881   -3.0380   31.7007 C.ar    1  UNL1        0.0000
     28 C           7.6148   -2.4741   31.2861 C.ar    1  UNL1        0.0000
     29 C           7.7485   -1.0092   30.9926 C.ar    1  UNL1        0.0000
     30 C           6.5554   -0.1082   31.1137 C.ar    1  UNL1        0.0000
@<TRIPOS>BOND
     1    12    13    2
     2    13    14   ar
     3    14    15   ar
     4    15    16   ar
     5    16     1    1
     6     1     2   ar
     7     2    19    1
     8    19    20    1
     9    20    21    1
    10    21    22    1
    11    22    23    1
    12    23    24    1
    13     2     3   ar
    14     3     4   ar
    15     4     5   ar
    16     5     6   ar
    17     6     7   ar
    18     7     8    1
    19     7     9   ar
    20     9    10   ar
    21    10    11   ar
    22    11    25    1
    23    25    26   ar
    24    26    27   ar
    25    27    28   ar
    26    28    29   ar
    27    29    30   ar
    28    16    17   ar
    29    17    13   ar
    30    11     1   ar
    31    30    25   ar
    32    24    19    1
    33    10     4   ar
    34    14    18    1
