@<TRIPOS>MOLECULE
*****
 28 30 0 0 0
SMALL
GASTEIGER

@<TRIPOS>ATOM
      1 C          -8.8381  -14.6598   28.0260 C.3     1  UNL1        0.0310
      2 C          -7.8807  -15.1526   26.9817 C.ar    1  UNL1       -0.0221
      3 C          -6.4150  -14.8610   27.1106 C.ar    1  UNL1       -0.0046
      4 C          -5.4576  -15.3538   26.0663 C.ar    1  UNL1       -0.0048
      5 C          -5.9659  -16.1382   24.8932 C.ar    1  UNL1       -0.0229
      6 C          -7.4316  -16.4299   24.7643 C.ar    1  UNL1       -0.0085
      7 C          -8.3890  -15.9371   25.8086 C.ar    1  UNL1       -0.0072
      8 C          -7.9399  -17.2144   23.5912 C.3     1  UNL1        0.0975
      9 N          -6.9825  -17.7072   22.5469 N.am    1  UNL1       -0.2760
     10 C          -7.4907  -18.4916   21.3738 C.2     1  UNL1        0.2420
     11 O          -8.9565  -18.7833   21.2449 O.2     1  UNL1       -0.2734
     12 C          -5.5167  -17.4155   22.6758 C.3     1  UNL1        0.0983
     13 C          -5.0084  -16.6310   23.8489 C.3     1  UNL1        0.0476
     14 C          -9.4056  -17.5060   23.4623 C.3     1  UNL1        0.0224
     15 C          -9.9790  -18.7511   24.0716 C.3     1  UNL1        0.0021
     16 C         -10.2980  -16.5527   22.7243 C.3     1  UNL1        0.0021
     17 C          -6.5333  -18.9844   20.3295 C.3     1  UNL1        0.1552
     18 N          -5.7150  -20.2157   20.5835 N.3     1  UNL1       -0.2879
     19 H          -6.2332  -21.0004   20.1883 H       1  UNL1        0.1238
     20 C          -4.3156  -20.3090   20.0516 C.3     1  UNL1        0.0961
     21 C          -3.2284  -19.4657   20.6488 C.3     1  UNL1        0.1027
     22 O          -3.6830  -20.2081   21.8704 O.3     1  UNL1       -0.3854
     23 C          -3.1514  -19.0162   19.2198 C.3     1  UNL1        0.0283
     24 C          -2.1450  -17.9813   18.8123 C.3     1  UNL1        0.0024
     25 C          -1.2157  -17.3957   19.8339 C.3     1  UNL1        0.0002
     26 C          -1.2927  -17.8452   21.2629 C.3     1  UNL1        0.0024
     27 C          -2.2991  -18.8802   21.6703 C.3     1  UNL1        0.0283
     28 H          -4.4052  -20.8104   21.6326 H       1  UNL1        0.2103
@<TRIPOS>BOND
     1     1     2    1
     2     2     3   ar
     3     3     4   ar
     4     4     5   ar
     5     5     6   ar
     6     6     7   ar
     7     6     8    1
     8     8    14    1
     9    14    15    1
    10    14    16    1
    11     8     9    1
    12     9    10   am
    13    10    11    2
    14    10    17    1
    15    17    18    1
    16    18    20    1
    17    20    21    1
    18    21    22    1
    19    21    23    1
    20    23    24    1
    21    24    25    1
    22    25    26    1
    23    26    27    1
    24     9    12    1
    25    12    13    1
    26     7     2   ar
    27    27    21    1
    28    13     5    1
    29    18    19    1
    30    22    28    1
@<TRIPOS>MOLECULE
*****
 28 30 0 0 0
SMALL
GASTEIGER

@<TRIPOS>ATOM
      1 C          -8.7237  -15.9604   28.3736 C.3     1  UNL1        0.0310
      2 C          -8.3381  -16.0281   26.9256 C.ar    1  UNL1       -0.0221
      3 C          -7.2775  -15.1136   26.3883 C.ar    1  UNL1       -0.0046
      4 C          -6.8918  -15.1813   24.9403 C.ar    1  UNL1       -0.0048
      5 C          -7.5668  -16.1636   24.0296 C.ar    1  UNL1       -0.0229
      6 C          -8.6274  -17.0781   24.5668 C.ar    1  UNL1       -0.0085
      7 C          -9.0131  -17.0104   26.0149 C.ar    1  UNL1       -0.0072
      8 C          -9.3025  -18.0605   23.6561 C.3     1  UNL1        0.0975
      9 N          -8.9168  -18.1282   22.2081 N.am    1  UNL1       -0.2760
     10 C          -9.5918  -19.1105   21.2974 C.2     1  UNL1        0.2420
     11 O         -10.6525  -20.0251   21.8346 O.2     1  UNL1       -0.2734
     12 C          -7.8562  -17.2136   21.6708 C.3     1  UNL1        0.0983
     13 C          -7.1812  -16.2313   22.5816 C.3     1  UNL1        0.0476
     14 C         -10.3631  -18.9750   24.1934 C.3     1  UNL1        0.0224
     15 C         -11.7978  -18.5372   24.2003 C.3     1  UNL1        0.0021
     16 C          -9.9890  -20.3274   24.7236 C.3     1  UNL1        0.0021
     17 C          -9.2062  -19.1782   19.8494 C.3     1  UNL1        0.1552
     18 N          -7.7741  -19.4043   19.4644 N.3     1  UNL1       -0.2879
     19 H          -7.3026  -18.5032   19.5420 H       1  UNL1        0.1238
     20 C          -6.9413  -20.3955   20.2221 C.3     1  UNL1        0.0961
     21 C          -5.7883  -19.9233   21.0571 C.3     1  UNL1        0.1027
     22 O          -6.6426  -20.5462   22.1211 O.3     1  UNL1       -0.3854
     23 C          -5.3344  -19.4644   19.7031 C.3     1  UNL1        0.0283
     24 C          -4.0241  -18.7497   19.5537 C.3     1  UNL1        0.0024
     25 C          -3.1677  -18.4938   20.7583 C.3     1  UNL1        0.0002
     26 C          -3.6216  -18.9528   22.1123 C.3     1  UNL1        0.0024
     27 C          -4.9318  -19.6675   22.2617 C.3     1  UNL1        0.0283
     28 H          -7.4488  -20.9058   21.7191 H       1  UNL1        0.2103
@<TRIPOS>BOND
     1     1     2    1
     2     2     3   ar
     3     3     4   ar
     4     4     5   ar
     5     5     6   ar
     6     6     7   ar
     7     6     8    1
     8     8    14    1
     9    14    15    1
    10    14    16    1
    11     8     9    1
    12     9    10   am
    13    10    11    2
    14    10    17    1
    15    17    18    1
    16    18    20    1
    17    20    21    1
    18    21    22    1
    19    21    23    1
    20    23    24    1
    21    24    25    1
    22    25    26    1
    23    26    27    1
    24     9    12    1
    25    12    13    1
    26     7     2   ar
    27    27    21    1
    28    13     5    1
    29    18    19    1
    30    22    28    1
@<TRIPOS>MOLECULE
*****
 28 30 0 0 0
SMALL
GASTEIGER

@<TRIPOS>ATOM
      1 C         -10.1619   -7.1772   18.9542 C.3     1  UNL1        0.0310
      2 C         -10.3127   -5.7759   18.4407 C.ar    1  UNL1       -0.0221
      3 C          -9.2771   -5.1983   17.5221 C.ar    1  UNL1       -0.0046
      4 C          -9.4278   -3.7970   17.0086 C.ar    1  UNL1       -0.0048
      5 C         -10.6141   -2.9733   17.4138 C.ar    1  UNL1       -0.0229
      6 C         -11.6497   -3.5509   18.3324 C.ar    1  UNL1       -0.0085
      7 C         -11.4989   -4.9522   18.8459 C.ar    1  UNL1       -0.0072
      8 C         -12.8360   -2.7272   18.7377 C.3     1  UNL1        0.0975
      9 N         -12.9867   -1.3259   18.2242 N.am    1  UNL1       -0.2760
     10 C         -14.1730   -0.5022   18.6294 C.2     1  UNL1        0.2420
     11 O         -15.2086   -1.0798   19.5481 O.2     1  UNL1       -0.2734
     12 C         -11.9511   -0.7483   17.3055 C.3     1  UNL1        0.0983
     13 C         -10.7648   -1.5720   16.9003 C.3     1  UNL1        0.0476
     14 C         -13.8716   -3.3048   19.6563 C.3     1  UNL1        0.0224
     15 C         -15.0471   -4.0451   19.0904 C.3     1  UNL1        0.0021
     16 C         -13.7316   -3.1422   21.1409 C.3     1  UNL1        0.0021
     17 C         -14.3237    0.8991   18.1159 C.3     1  UNL1        0.1552
     18 N         -14.6457    2.0151   19.0651 N.3     1  UNL1       -0.2879
     19 H         -14.1952    2.8533   18.6978 H       1  UNL1        0.1238
     20 C         -16.0753    2.3770   19.3399 C.3     1  UNL1        0.0961
     21 C         -16.6234    2.2638   20.7315 C.3     1  UNL1        0.1027
     22 O         -17.2073    1.0248   20.1200 O.3     1  UNL1       -0.3854
     23 C         -15.8491    3.5422   20.8597 C.3     1  UNL1        0.0283
     24 C         -15.8258    4.2770   22.1671 C.3     1  UNL1        0.0024
     25 C         -16.5768    3.7334   23.3465 C.3     1  UNL1        0.0002
     26 C         -17.3510    2.4551   23.2182 C.3     1  UNL1        0.0024
     27 C         -17.3743    1.7203   21.9108 C.3     1  UNL1        0.0283
     28 H         -16.9310    0.9611   19.1923 H       1  UNL1        0.2103
@<TRIPOS>BOND
     1     1     2    1
     2     2     3   ar
     3     3     4   ar
     4     4     5   ar
     5     5     6   ar
     6     6     7   ar
     7     6     8    1
     8     8    14    1
     9    14    15    1
    10    14    16    1
    11     8     9    1
    12     9    10   am
    13    10    11    2
    14    10    17    1
    15    17    18    1
    16    18    20    1
    17    20    21    1
    18    21    22    1
    19    21    23    1
    20    23    24    1
    21    24    25    1
    22    25    26    1
    23    26    27    1
    24     9    12    1
    25    12    13    1
    26     7     2   ar
    27    27    21    1
    28    13     5    1
    29    18    19    1
    30    22    28    1
@<TRIPOS>MOLECULE
*****
 28 30 0 0 0
SMALL
GASTEIGER

@<TRIPOS>ATOM
      1 C          -1.1347  -18.5361   19.3766 C.3     1  UNL1        0.0310
      2 C          -2.0491  -18.0211   20.4483 C.ar    1  UNL1       -0.0221
      3 C          -1.5830  -16.9379   21.3753 C.ar    1  UNL1       -0.0046
      4 C          -2.4974  -16.4229   22.4470 C.ar    1  UNL1       -0.0048
      5 C          -3.8780  -16.9911   22.5918 C.ar    1  UNL1       -0.0229
      6 C          -4.3442  -18.0743   21.6649 C.ar    1  UNL1       -0.0085
      7 C          -3.4297  -18.5893   20.5931 C.ar    1  UNL1       -0.0072
      8 C          -5.7248  -18.6426   21.8096 C.3     1  UNL1        0.0975
      9 N          -6.6393  -18.1276   22.8813 N.am    1  UNL1       -0.2760
     10 C          -8.0199  -18.6958   23.0261 C.2     1  UNL1        0.2420
     11 O          -8.4861  -19.7791   22.0992 O.2     1  UNL1       -0.2734
     12 C          -6.1730  -17.0443   23.8083 C.3     1  UNL1        0.0983
     13 C          -4.7924  -16.4761   23.6635 C.3     1  UNL1        0.0476
     14 C          -6.1910  -19.7258   20.8827 C.3     1  UNL1        0.0224
     15 C          -6.9522  -19.3728   19.6392 C.3     1  UNL1        0.0021
     16 C          -5.8961  -21.1621   21.1992 C.3     1  UNL1        0.0021
     17 C          -8.9343  -18.1808   24.0979 C.3     1  UNL1        0.1552
     18 N         -10.0988  -19.0099   24.5524 N.3     1  UNL1       -0.2879
     19 H         -10.2104  -18.8381   25.5516 H       1  UNL1        0.1238
     20 C         -11.4479  -18.8152   23.9263 C.3     1  UNL1        0.0961
     21 C         -11.5576  -18.4982   22.4643 C.3     1  UNL1        0.1027
     22 O         -11.2241  -19.9587   22.3899 O.3     1  UNL1       -0.3854
     23 C         -11.8530  -17.1477   23.0466 C.3     1  UNL1        0.0283
     24 C         -12.1422  -15.9875   22.1409 C.3     1  UNL1        0.0024
     25 C         -12.1360  -16.1777   20.6530 C.3     1  UNL1        0.0002
     26 C         -11.8406  -17.5282   20.0708 C.3     1  UNL1        0.0024
     27 C         -11.5514  -18.6884   20.9765 C.3     1  UNL1        0.0283
     28 H         -11.1202  -20.3128   23.2870 H       1  UNL1        0.2103
@<TRIPOS>BOND
     1     1     2    1
     2     2     3   ar
     3     3     4   ar
     4     4     5   ar
     5     5     6   ar
     6     6     7   ar
     7     6     8    1
     8     8    14    1
     9    14    15    1
    10    14    16    1
    11     8     9    1
    12     9    10   am
    13    10    11    2
    14    10    17    1
    15    17    18    1
    16    18    20    1
    17    20    21    1
    18    21    22    1
    19    21    23    1
    20    23    24    1
    21    24    25    1
    22    25    26    1
    23    26    27    1
    24     9    12    1
    25    12    13    1
    26     7     2   ar
    27    27    21    1
    28    13     5    1
    29    18    19    1
    30    22    28    1
@<TRIPOS>MOLECULE
*****
 28 30 0 0 0
SMALL
GASTEIGER

@<TRIPOS>ATOM
      1 C          -3.2714  -17.5553   24.4946 C.3     1  UNL1        0.0310
      2 C          -4.6211  -17.0421   24.0886 C.ar    1  UNL1       -0.0221
      3 C          -5.1608  -15.7841   24.7018 C.ar    1  UNL1       -0.0046
      4 C          -6.5105  -15.2710   24.2958 C.ar    1  UNL1       -0.0048
      5 C          -7.3205  -16.0158   23.2765 C.ar    1  UNL1       -0.0229
      6 C          -6.7809  -17.2738   22.6632 C.ar    1  UNL1       -0.0085
      7 C          -5.4311  -17.7870   23.0693 C.ar    1  UNL1       -0.0072
      8 C          -7.5909  -18.0187   21.6438 C.3     1  UNL1        0.0975
      9 N          -8.9406  -17.5055   21.2378 N.am    1  UNL1       -0.2760
     10 C          -9.7507  -18.2503   20.2185 C.2     1  UNL1        0.2420
     11 O          -9.2110  -19.5084   19.6051 O.2     1  UNL1       -0.2734
     12 C          -9.4803  -16.2474   21.8511 C.3     1  UNL1        0.0983
     13 C          -8.6703  -15.5026   22.8704 C.3     1  UNL1        0.0476
     14 C          -7.0512  -19.2767   21.0306 C.3     1  UNL1        0.0224
     15 C          -6.3902  -19.2313   19.6848 C.3     1  UNL1        0.0021
     16 C          -7.1725  -20.5800   21.7631 C.3     1  UNL1        0.0021
     17 C         -11.1004  -17.7371   19.8124 C.3     1  UNL1        0.1552
     18 N         -12.2330  -17.7457   20.7959 N.3     1  UNL1       -0.2879
     19 H         -13.0952  -17.7762   20.2517 H       1  UNL1        0.1238
     20 C         -12.3286  -18.8373   21.8202 C.3     1  UNL1        0.0961
     21 C         -11.6330  -18.6895   23.1409 C.3     1  UNL1        0.1027
     22 O         -12.4352  -17.4222   23.1258 O.3     1  UNL1       -0.3854
     23 C         -11.0723  -20.0082   22.6972 C.3     1  UNL1        0.0283
     24 C         -10.0946  -20.7389   23.5691 C.3     1  UNL1        0.0024
     25 C          -9.6775  -20.1510   24.8846 C.3     1  UNL1        0.0002
     26 C         -10.2382  -18.8323   25.3281 C.3     1  UNL1        0.0024
     27 C         -11.2159  -18.1016   24.4563 C.3     1  UNL1        0.0283
     28 H         -12.9526  -17.3768   22.3065 H       1  UNL1        0.2103
@<TRIPOS>BOND
     1     1     2    1
     2     2     3   ar
     3     3     4   ar
     4     4     5   ar
     5     5     6   ar
     6     6     7   ar
     7     6     8    1
     8     8    14    1
     9    14    15    1
    10    14    16    1
    11     8     9    1
    12     9    10   am
    13    10    11    2
    14    10    17    1
    15    17    18    1
    16    18    20    1
    17    20    21    1
    18    21    22    1
    19    21    23    1
    20    23    24    1
    21    24    25    1
    22    25    26    1
    23    26    27    1
    24     9    12    1
    25    12    13    1
    26     7     2   ar
    27    27    21    1
    28    13     5    1
    29    18    19    1
    30    22    28    1
@<TRIPOS>MOLECULE
*****
 28 30 0 0 0
SMALL
GASTEIGER

@<TRIPOS>ATOM
      1 C           0.8103    0.9876   18.4704 C.3     1  UNL1        0.0310
      2 C           1.4832    0.5006   19.7194 C.ar    1  UNL1       -0.0221
      3 C           1.1426    1.1167   21.0439 C.ar    1  UNL1       -0.0046
      4 C           1.8155    0.6296   22.2929 C.ar    1  UNL1       -0.0048
      5 C           2.8291   -0.4735   22.2174 C.ar    1  UNL1       -0.0229
      6 C           3.1697   -1.0896   20.8929 C.ar    1  UNL1       -0.0085
      7 C           2.4968   -0.6026   19.6439 C.ar    1  UNL1       -0.0072
      8 C           4.1833   -2.1928   20.8173 C.3     1  UNL1        0.0975
      9 N           4.8562   -2.6799   22.0663 N.am    1  UNL1       -0.2760
     10 C           5.8698   -3.7830   21.9908 C.2     1  UNL1        0.2420
     11 O           6.2105   -4.3991   20.6662 O.2     1  UNL1       -0.2734
     12 C           4.5155   -2.0637   23.3909 C.3     1  UNL1        0.0983
     13 C           3.5020   -0.9606   23.4664 C.3     1  UNL1        0.0476
     14 C           4.5239   -2.8089   19.4928 C.3     1  UNL1        0.0224
     15 C           5.6366   -2.2384   18.6642 C.3     1  UNL1        0.0021
     16 C           3.7520   -3.9955   18.9968 C.3     1  UNL1        0.0021
     17 C           6.5427   -4.2700   23.2398 C.3     1  UNL1        0.1552
     18 N           7.5999   -5.3310   23.1572 N.3     1  UNL1       -0.2879
     19 H           8.1701   -5.1155   22.3393 H       1  UNL1        0.1238
     20 C           8.5462   -5.5376   24.3025 C.3     1  UNL1        0.0961
     21 C           8.3284   -6.6713   25.2602 C.3     1  UNL1        0.1027
     22 O           8.0507   -7.3698   23.9622 O.3     1  UNL1       -0.3854
     23 C           8.6819   -5.5790   26.2257 C.3     1  UNL1        0.0283
     24 C           8.7210   -5.8631   27.6980 C.3     1  UNL1        0.0024
     25 C           8.4068   -7.2396   28.2049 C.3     1  UNL1        0.0002
     26 C           8.0534   -8.3317   27.2394 C.3     1  UNL1        0.0024
     27 C           8.0142   -8.0476   25.7671 C.3     1  UNL1        0.0283
     28 H           8.1555   -6.7433   23.2290 H       1  UNL1        0.2103
@<TRIPOS>BOND
     1     1     2    1
     2     2     3   ar
     3     3     4   ar
     4     4     5   ar
     5     5     6   ar
     6     6     7   ar
     7     6     8    1
     8     8    14    1
     9    14    15    1
    10    14    16    1
    11     8     9    1
    12     9    10   am
    13    10    11    2
    14    10    17    1
    15    17    18    1
    16    18    20    1
    17    20    21    1
    18    21    22    1
    19    21    23    1
    20    23    24    1
    21    24    25    1
    22    25    26    1
    23    26    27    1
    24     9    12    1
    25    12    13    1
    26     7     2   ar
    27    27    21    1
    28    13     5    1
    29    18    19    1
    30    22    28    1
@<TRIPOS>MOLECULE
*****
 28 30 0 0 0
SMALL
GASTEIGER

@<TRIPOS>ATOM
      1 C          -4.3019    4.1657   26.8404 C.3     1  UNL1        0.0310
      2 C          -3.0389    3.7053   26.1751 C.ar    1  UNL1       -0.0221
      3 C          -2.7377    4.1235   24.7664 C.ar    1  UNL1       -0.0046
      4 C          -1.4747    3.6630   24.1011 C.ar    1  UNL1       -0.0048
      5 C          -0.5128    2.7843   24.8444 C.ar    1  UNL1       -0.0229
      6 C          -0.8139    2.3661   26.2531 C.ar    1  UNL1       -0.0085
      7 C          -2.0769    2.8266   26.9184 C.ar    1  UNL1       -0.0072
      8 C           0.1481    1.4874   26.9965 C.3     1  UNL1        0.0975
      9 N           1.4111    1.0269   26.3312 N.am    1  UNL1       -0.2760
     10 C           2.3731    0.1483   27.0745 C.2     1  UNL1        0.2420
     11 O           2.0720   -0.2700   28.4832 O.2     1  UNL1       -0.2734
     12 C           1.7122    1.4452   24.9224 C.3     1  UNL1        0.0983
     13 C           0.7503    2.3239   24.1791 C.3     1  UNL1        0.0476
     14 C          -0.1530    1.0692   28.4052 C.3     1  UNL1        0.0224
     15 C          -0.9597   -0.1688   28.6638 C.3     1  UNL1        0.0021
     16 C           0.3524    1.8889   29.5552 C.3     1  UNL1        0.0021
     17 C           3.6361   -0.3122   26.4091 C.3     1  UNL1        0.1552
     18 N           3.5936   -1.4336   25.4137 N.3     1  UNL1       -0.2879
     19 H           2.6836   -1.8830   25.5151 H       1  UNL1        0.1238
     20 C           3.7745   -1.1466   23.9526 C.3     1  UNL1        0.0961
     21 C           4.1259   -2.2574   23.0079 C.3     1  UNL1        0.1027
     22 O           4.6879   -2.8123   24.2831 O.3     1  UNL1       -0.3854
     23 C           3.4419   -1.3167   22.0607 C.3     1  UNL1        0.0283
     24 C           3.3044   -1.6796   20.6118 C.3     1  UNL1        0.0024
     25 C           3.8511   -2.9833   20.1100 C.3     1  UNL1        0.0002
     26 C           4.5351   -3.9239   21.0572 C.3     1  UNL1        0.0024
     27 C           4.6726   -3.5611   22.5061 C.3     1  UNL1        0.0283
     28 H           4.5310   -2.1845   25.0057 H       1  UNL1        0.2103
@<TRIPOS>BOND
     1     1     2    1
     2     2     3   ar
     3     3     4   ar
     4     4     5   ar
     5     5     6   ar
     6     6     7   ar
     7     6     8    1
     8     8    14    1
     9    14    15    1
    10    14    16    1
    11     8     9    1
    12     9    10   am
    13    10    11    2
    14    10    17    1
    15    17    18    1
    16    18    20    1
    17    20    21    1
    18    21    22    1
    19    21    23    1
    20    23    24    1
    21    24    25    1
    22    25    26    1
    23    26    27    1
    24     9    12    1
    25    12    13    1
    26     7     2   ar
    27    27    21    1
    28    13     5    1
    29    18    19    1
    30    22    28    1
@<TRIPOS>MOLECULE
*****
 28 30 0 0 0
SMALL
GASTEIGER

@<TRIPOS>ATOM
      1 C          -8.4202  -15.9353   28.3433 C.3     1  UNL1        0.0310
      2 C          -8.1843  -16.0545   26.8668 C.ar    1  UNL1       -0.0221
      3 C          -7.2780  -15.0825   26.1712 C.ar    1  UNL1       -0.0046
      4 C          -7.0421  -15.2017   24.6947 C.ar    1  UNL1       -0.0048
      5 C          -7.7126  -16.2929   23.9137 C.ar    1  UNL1       -0.0229
      6 C          -8.6188  -17.2648   24.6093 C.ar    1  UNL1       -0.0085
      7 C          -8.8547  -17.1456   26.0859 C.ar    1  UNL1       -0.0072
      8 C          -9.2893  -18.3560   23.8284 C.3     1  UNL1        0.0975
      9 N          -9.0534  -18.4752   22.3518 N.am    1  UNL1       -0.2760
     10 C          -9.7238  -19.5664   21.5709 C.2     1  UNL1        0.2420
     11 O         -10.6302  -20.5384   22.2665 O.2     1  UNL1       -0.2734
     12 C          -8.1471  -17.5032   21.6562 C.3     1  UNL1        0.0983
     13 C          -7.4767  -16.4121   22.4372 C.3     1  UNL1        0.0476
     14 C         -10.1956  -19.3280   24.5240 C.3     1  UNL1        0.0224
     15 C         -11.6090  -18.9396   24.8426 C.3     1  UNL1        0.0021
     16 C          -9.6885  -20.6884   24.9010 C.3     1  UNL1        0.0021
     17 C          -9.4879  -19.6856   20.0944 C.3     1  UNL1        0.1552
     18 N         -10.0862  -18.6801   19.1557 N.3     1  UNL1       -0.2879
     19 H         -10.1588  -19.1339   18.2451 H       1  UNL1        0.1238
     20 C         -11.4312  -18.0854   19.4515 C.3     1  UNL1        0.0961
     21 C         -11.5796  -17.0759   20.5509 C.3     1  UNL1        0.1027
     22 O         -10.5712  -16.3760   19.6889 O.3     1  UNL1       -0.3854
     23 C         -12.5365  -18.1265   21.0311 C.3     1  UNL1        0.0283
     24 C         -13.2915  -17.9245   22.3114 C.3     1  UNL1        0.0024
     25 C         -13.0897  -16.6717   23.1115 C.3     1  UNL1        0.0002
     26 C         -12.1328  -15.6212   22.6312 C.3     1  UNL1        0.0024
     27 C         -11.3778  -15.8233   21.3510 C.3     1  UNL1        0.0283
     28 H         -10.3704  -16.9253   18.9151 H       1  UNL1        0.2103
@<TRIPOS>BOND
     1     1     2    1
     2     2     3   ar
     3     3     4   ar
     4     4     5   ar
     5     5     6   ar
     6     6     7   ar
     7     6     8    1
     8     8    14    1
     9    14    15    1
    10    14    16    1
    11     8     9    1
    12     9    10   am
    13    10    11    2
    14    10    17    1
    15    17    18    1
    16    18    20    1
    17    20    21    1
    18    21    22    1
    19    21    23    1
    20    23    24    1
    21    24    25    1
    22    25    26    1
    23    26    27    1
    24     9    12    1
    25    12    13    1
    26     7     2   ar
    27    27    21    1
    28    13     5    1
    29    18    19    1
    30    22    28    1
@<TRIPOS>MOLECULE
*****
 28 30 0 0 0
SMALL
GASTEIGER

@<TRIPOS>ATOM
      1 C           7.2779   -5.7913   31.4082 C.3     1  UNL1        0.0310
      2 C           7.0415   -4.9568   30.1844 C.ar    1  UNL1       -0.0221
      3 C           6.4971   -3.5656   30.3189 C.ar    1  UNL1       -0.0046
      4 C           6.2606   -2.7311   29.0951 C.ar    1  UNL1       -0.0048
      5 C           6.5685   -3.2878   27.7368 C.ar    1  UNL1       -0.0229
      6 C           7.1128   -4.6790   27.6022 C.ar    1  UNL1       -0.0085
      7 C           7.3493   -5.5135   28.8260 C.ar    1  UNL1       -0.0072
      8 C           7.4207   -5.2358   26.2438 C.3     1  UNL1        0.0975
      9 N           7.1842   -4.4013   25.0200 N.am    1  UNL1       -0.2760
     10 C           7.4921   -4.9581   23.6616 C.2     1  UNL1        0.2420
     11 O           8.0365   -6.3494   23.5270 O.2     1  UNL1       -0.2734
     12 C           6.6398   -3.0100   25.1546 C.3     1  UNL1        0.0983
     13 C           6.3320   -2.4533   26.5130 C.3     1  UNL1        0.0476
     14 C           7.9651   -6.6270   26.1092 C.3     1  UNL1        0.0224
     15 C           7.0275   -7.7960   26.0408 C.3     1  UNL1        0.0021
     16 C           9.4470   -6.8494   26.0430 C.3     1  UNL1        0.0021
     17 C           7.2556   -4.1236   22.4378 C.3     1  UNL1        0.1552
     18 N           6.0263   -4.3429   21.6065 N.3     1  UNL1       -0.2879
     19 H           5.9292   -5.3509   21.4846 H       1  UNL1        0.1238
     20 C           4.6981   -3.8344   22.0833 C.3     1  UNL1        0.0961
     21 C           3.9545   -2.8099   21.2787 C.3     1  UNL1        0.1027
     22 O           4.1990   -3.8447   20.2207 O.3     1  UNL1       -0.3854
     23 C           3.9681   -2.1309   22.6162 C.3     1  UNL1        0.0283
     24 C           3.3232   -0.7869   22.7815 C.3     1  UNL1        0.0024
     25 C           2.6644   -0.1217   21.6094 C.3     1  UNL1        0.0002
     26 C           2.6508   -0.8008   20.2720 C.3     1  UNL1        0.0024
     27 C           3.2958   -2.1448   20.1066 C.3     1  UNL1        0.0283
     28 H           4.6858   -4.5908   20.6045 H       1  UNL1        0.2103
@<TRIPOS>BOND
     1     1     2    1
     2     2     3   ar
     3     3     4   ar
     4     4     5   ar
     5     5     6   ar
     6     6     7   ar
     7     6     8    1
     8     8    14    1
     9    14    15    1
    10    14    16    1
    11     8     9    1
    12     9    10   am
    13    10    11    2
    14    10    17    1
    15    17    18    1
    16    18    20    1
    17    20    21    1
    18    21    22    1
    19    21    23    1
    20    23    24    1
    21    24    25    1
    22    25    26    1
    23    26    27    1
    24     9    12    1
    25    12    13    1
    26     7     2   ar
    27    27    21    1
    28    13     5    1
    29    18    19    1
    30    22    28    1
