@<TRIPOS>MOLECULE
*****
 32 34 0 0 0
SMALL
GASTEIGER

@<TRIPOS>ATOM
      1 N          -5.7667  -19.7103   22.3291 N.am    1  UNL1        0.0010
      2 C          -7.0457  -18.9813   22.0413 C.2     1  UNL1        0.3902
      3 O          -4.1343  -18.6138   23.1537 O.2     1  UNL1       -0.2483
      4 C          -4.4928  -18.9423   22.5219 C.2     1  UNL1        0.3418
      5 C          -3.6022  -18.6601   21.3484 C.ar    1  UNL1        0.0736
      6 C          -3.8557  -19.3379   20.0344 C.ar    1  UNL1        0.0062
      7 C          -2.9652  -19.0558   18.8609 C.ar    1  UNL1        0.0011
      8 C          -1.8211  -18.0959   19.0012 C.ar    1  UNL1        0.0114
      9 C          -1.5676  -17.4181   20.3150 C.ar    1  UNL1        0.0579
     10 CL         -0.4235  -16.4582   20.4553 Cl      1  UNL1       -0.0822
     11 C          -2.4581  -17.7002   21.4887 C.ar    1  UNL1        0.0175
     12 N          -8.3196  -19.7493   21.8484 N.pl3   1  UNL1       -0.2434
     13 H          -8.3145  -20.5911   21.3380 H       1  UNL1        0.2647
     14 C          -9.6015  -19.2347   22.4334 C.ar    1  UNL1        0.1175
     15 C          -9.9658  -19.5664   23.8502 C.ar    1  UNL1        0.0335
     16 C         -11.2476  -19.0519   24.4351 C.ar    1  UNL1        0.0038
     17 C         -12.1651  -18.2056   23.6032 C.ar    1  UNL1        0.0116
     18 C         -11.8008  -17.8738   22.1865 C.ar    1  UNL1        0.0605
     19 CL        -12.7183  -17.0275   21.3547 Cl      1  UNL1       -0.0821
     20 C         -10.5190  -18.3884   21.6016 C.ar    1  UNL1        0.0448
     21 N          -7.0507  -17.4843   21.9462 N.pl3   1  UNL1       -0.2286
     22 H          -7.1477  -17.0470   21.0695 H       1  UNL1        0.2662
     23 C          -6.9078  -16.6535   23.1870 C.ar    1  UNL1        0.1970
     24 C          -7.9167  -16.5369   24.2909 C.ar    1  UNL1        0.0781
     25 C          -7.3634  -15.6049   25.3279 C.ar    1  UNL1        0.1763
     26 N          -6.0126  -15.1455   24.8648 N.ar    1  UNL1       -0.1664
     27 N          -5.7311  -15.7936   23.5416 N.ar    1  UNL1       -0.2486
     28 H          -4.9169  -15.6754   23.0009 H       1  UNL1        0.1918
     29 C          -8.0417  -15.2028   26.6039 C.3     1  UNL1        0.4366
     30 F          -8.7201  -14.8007   27.8798 F       1  UNL1       -0.1643
     31 F          -9.3587  -15.1520   25.8877 F       1  UNL1       -0.1643
     32 F          -6.7248  -15.2536   27.3201 F       1  UNL1       -0.1643
@<TRIPOS>BOND
     1     3     4    2
     2     4     1    1
     3     1     2    2
     4     2    12    1
     5    12    14    1
     6    14    15   ar
     7    15    16   ar
     8    16    17   ar
     9    17    18   ar
    10    18    19    1
    11    18    20   ar
    12     2    21    1
    13    21    23    1
    14    23    24   ar
    15    24    25   ar
    16    25    29    1
    17    29    30    1
    18    29    31    1
    19    29    32    1
    20    25    26   ar
    21    26    27   ar
    22     4     5    1
    23     5     6   ar
    24     6     7   ar
    25     7     8   ar
    26     8     9   ar
    27     9    10    1
    28     9    11   ar
    29    20    14   ar
    30    27    23   ar
    31    11     5   ar
    32    12    13    1
    33    21    22    1
    34    27    28    1
@<TRIPOS>MOLECULE
*****
 32 34 0 0 0
SMALL
GASTEIGER

@<TRIPOS>ATOM
      1 N          -7.0304  -19.6577   21.1045 N.am    1  UNL1        0.0010
      2 C          -7.9327  -18.7273   21.8598 C.2     1  UNL1        0.3902
      3 O          -5.8339  -18.8792   19.5205 O.2     1  UNL1       -0.2483
      4 C          -5.9041  -19.1065   20.2814 C.2     1  UNL1        0.3418
      5 C          -4.5581  -18.8848   20.9050 C.ar    1  UNL1        0.0736
      6 C          -4.4303  -18.7804   22.3960 C.ar    1  UNL1        0.0062
      7 C          -3.0843  -18.5587   23.0196 C.ar    1  UNL1        0.0011
      8 C          -1.8660  -18.4414   22.1524 C.ar    1  UNL1        0.0114
      9 C          -1.9938  -18.5457   20.6616 C.ar    1  UNL1        0.0579
     10 CL         -0.7755  -18.4283   19.7944 Cl      1  UNL1       -0.0822
     11 C          -3.3398  -18.7674   20.0378 C.ar    1  UNL1        0.0175
     12 N          -9.0590  -19.2785   22.6829 N.pl3   1  UNL1       -0.2434
     13 H          -8.8867  -19.9945   23.3363 H       1  UNL1        0.2647
     14 C         -10.4480  -18.7389   22.5105 C.ar    1  UNL1        0.1175
     15 C         -10.8904  -18.2197   21.1746 C.ar    1  UNL1        0.0335
     16 C         -12.2793  -17.6801   21.0022 C.ar    1  UNL1        0.0038
     17 C         -13.2258  -17.6596   22.1658 C.ar    1  UNL1        0.0116
     18 C         -12.7833  -18.1788   23.5017 C.ar    1  UNL1        0.0605
     19 CL        -13.7297  -18.1583   24.6653 Cl      1  UNL1       -0.0821
     20 C         -11.3944  -18.7184   23.6740 C.ar    1  UNL1        0.0448
     21 N          -7.7086  -17.2457   21.7919 N.pl3   1  UNL1       -0.2286
     22 H          -7.7903  -16.7744   20.9314 H       1  UNL1        0.2662
     23 C          -7.3599  -16.4822   23.0351 C.ar    1  UNL1        0.1970
     24 C          -8.1878  -16.4048   24.2835 C.ar    1  UNL1        0.0781
     25 C          -7.4616  -15.5368   25.2682 C.ar    1  UNL1        0.1763
     26 N          -6.1850  -15.0778   24.6282 N.ar    1  UNL1       -0.1664
     27 N          -6.1221  -15.6620   23.2481 N.ar    1  UNL1       -0.2486
     28 H          -5.3960  -15.5303   22.5965 H       1  UNL1        0.1918
     29 C          -7.9299  -15.1890   26.6501 C.3     1  UNL1        0.4366
     30 F          -8.3982  -14.8411   28.0320 F       1  UNL1       -0.1643
     31 F          -6.5199  -15.2865   27.1524 F       1  UNL1       -0.1643
     32 F          -9.3399  -15.0914   26.1477 F       1  UNL1       -0.1643
@<TRIPOS>BOND
     1     3     4    2
     2     4     1    1
     3     1     2    2
     4     2    12    1
     5    12    14    1
     6    14    15   ar
     7    15    16   ar
     8    16    17   ar
     9    17    18   ar
    10    18    19    1
    11    18    20   ar
    12     2    21    1
    13    21    23    1
    14    23    24   ar
    15    24    25   ar
    16    25    29    1
    17    29    30    1
    18    29    31    1
    19    29    32    1
    20    25    26   ar
    21    26    27   ar
    22     4     5    1
    23     5     6   ar
    24     6     7   ar
    25     7     8   ar
    26     8     9   ar
    27     9    10    1
    28     9    11   ar
    29    20    14   ar
    30    27    23   ar
    31    11     5   ar
    32    12    13    1
    33    21    22    1
    34    27    28    1
@<TRIPOS>MOLECULE
*****
 32 34 0 0 0
SMALL
GASTEIGER

@<TRIPOS>ATOM
      1 N          -7.2974  -20.0358   19.7732 N.am    1  UNL1        0.0010
      2 C          -8.4302  -19.3042   20.4302 C.2     1  UNL1        0.3902
      3 O          -5.9412  -21.0900   21.0367 O.2     1  UNL1       -0.2483
      4 C          -6.1063  -20.4561   20.5823 C.2     1  UNL1        0.3418
      5 C          -4.8887  -19.5816   20.6344 C.ar    1  UNL1        0.0736
      6 C          -4.1849  -19.1995   19.3660 C.ar    1  UNL1        0.0062
      7 C          -2.9673  -18.3251   19.4181 C.ar    1  UNL1        0.0011
      8 C          -2.4534  -17.8327   20.7386 C.ar    1  UNL1        0.0114
      9 C          -3.1571  -18.2148   22.0069 C.ar    1  UNL1        0.0579
     10 CL         -2.6432  -17.7225   23.3273 Cl      1  UNL1       -0.0822
     11 C          -4.3748  -19.0893   21.9549 C.ar    1  UNL1        0.0175
     12 N          -9.6212  -18.8840   19.6211 N.pl3   1  UNL1       -0.2434
     13 H          -9.6869  -19.1395   18.6726 H       1  UNL1        0.2647
     14 C         -10.7122  -18.0744   20.2571 C.ar    1  UNL1        0.1175
     15 C         -11.1698  -16.7979   19.6160 C.ar    1  UNL1        0.0335
     16 C         -12.2607  -15.9884   20.2520 C.ar    1  UNL1        0.0038
     17 C         -12.8940  -16.4554   21.5290 C.ar    1  UNL1        0.0116
     18 C         -12.4365  -17.7320   22.1700 C.ar    1  UNL1        0.0605
     19 CL        -13.0698  -18.1990   23.4471 Cl      1  UNL1       -0.0821
     20 C         -11.3455  -18.5415   21.5341 C.ar    1  UNL1        0.0448
     21 N          -8.3718  -18.9930   21.8964 N.pl3   1  UNL1       -0.2286
     22 H          -8.6908  -19.6536   22.5530 H       1  UNL1        0.2662
     23 C          -7.8275  -17.6751   22.3622 C.ar    1  UNL1        0.1970
     24 C          -7.0039  -17.4476   23.5951 C.ar    1  UNL1        0.0781
     25 C          -6.6785  -15.9853   23.6719 C.ar    1  UNL1        0.1763
     26 N          -7.3010  -15.3091   22.4864 N.ar    1  UNL1       -0.1664
     27 N          -8.0111  -16.3535   21.6770 N.ar    1  UNL1       -0.2486
     28 H          -8.5100  -16.1986   20.8426 H       1  UNL1        0.1918
     29 C          -5.8722  -15.3166   24.7455 C.3     1  UNL1        0.4366
     30 F          -5.0659  -14.6479   25.8192 F       1  UNL1       -0.1643
     31 F          -7.0534  -15.3738   25.6682 F       1  UNL1       -0.1643
     32 F          -4.6910  -15.2594   23.8229 F       1  UNL1       -0.1643
@<TRIPOS>BOND
     1     3     4    2
     2     4     1    1
     3     1     2    2
     4     2    12    1
     5    12    14    1
     6    14    15   ar
     7    15    16   ar
     8    16    17   ar
     9    17    18   ar
    10    18    19    1
    11    18    20   ar
    12     2    21    1
    13    21    23    1
    14    23    24   ar
    15    24    25   ar
    16    25    29    1
    17    29    30    1
    18    29    31    1
    19    29    32    1
    20    25    26   ar
    21    26    27   ar
    22     4     5    1
    23     5     6   ar
    24     6     7   ar
    25     7     8   ar
    26     8     9   ar
    27     9    10    1
    28     9    11   ar
    29    20    14   ar
    30    27    23   ar
    31    11     5   ar
    32    12    13    1
    33    21    22    1
    34    27    28    1
@<TRIPOS>MOLECULE
*****
 32 34 0 0 0
SMALL
GASTEIGER

@<TRIPOS>ATOM
      1 N          -6.2442  -15.4388   23.5501 N.am    1  UNL1        0.0010
      2 C          -7.4707  -16.0903   22.9833 C.2     1  UNL1        0.3902
      3 O          -4.9279  -16.5865   24.7736 O.2     1  UNL1       -0.2483
      4 C          -5.1142  -16.2830   24.0604 C.2     1  UNL1        0.3418
      5 C          -4.0263  -16.7238   23.1266 C.ar    1  UNL1        0.0736
      6 C          -3.1609  -15.7034   22.4484 C.ar    1  UNL1        0.0062
      7 C          -2.0730  -16.1441   21.5145 C.ar    1  UNL1        0.0011
      8 C          -1.8503  -17.6053   21.2589 C.ar    1  UNL1        0.0114
      9 C          -2.7156  -18.6257   21.9370 C.ar    1  UNL1        0.0579
     10 CL         -2.4930  -20.0869   21.6814 Cl      1  UNL1       -0.0822
     11 C          -3.8036  -18.1850   22.8709 C.ar    1  UNL1        0.0175
     12 N          -8.6006  -15.2460   22.4730 N.pl3   1  UNL1       -0.2434
     13 H          -8.4881  -14.2716   22.3892 H       1  UNL1        0.2647
     14 C          -9.9020  -15.8865   22.0904 C.ar    1  UNL1        0.1175
     15 C         -10.4323  -15.7322   20.6958 C.ar    1  UNL1        0.0335
     16 C         -11.7337  -16.3726   20.3132 C.ar    1  UNL1        0.0038
     17 C         -12.5046  -17.1673   21.3252 C.ar    1  UNL1        0.0116
     18 C         -11.9742  -17.3216   22.7198 C.ar    1  UNL1        0.0605
     19 CL        -12.7452  -18.1162   23.7318 Cl      1  UNL1       -0.0821
     20 C         -10.6729  -16.6812   23.1023 C.ar    1  UNL1        0.0448
     21 N          -7.5672  -17.5861   22.9267 N.pl3   1  UNL1       -0.2286
     22 H          -7.6554  -18.1055   23.7584 H       1  UNL1        0.2662
     23 C          -7.5292  -18.2907   21.6030 C.ar    1  UNL1        0.1970
     24 C          -8.6672  -19.0313   20.9655 C.ar    1  UNL1        0.0781
     25 C          -8.1879  -19.5766   19.6528 C.ar    1  UNL1        0.1763
     26 N          -6.7537  -19.1729   19.4791 N.ar    1  UNL1       -0.1664
     27 N          -6.3466  -18.3782   20.6844 N.ar    1  UNL1       -0.2486
     28 H          -5.4591  -17.9834   20.8445 H       1  UNL1        0.1918
     29 C          -9.0002  -20.3838   18.6840 C.3     1  UNL1        0.4366
     30 F          -9.8125  -21.1909   17.7152 F       1  UNL1       -0.1643
     31 F         -10.1460  -19.4301   18.8501 F       1  UNL1       -0.1643
     32 F          -7.8544  -21.3374   18.5179 F       1  UNL1       -0.1643
@<TRIPOS>BOND
     1     3     4    2
     2     4     1    1
     3     1     2    2
     4     2    12    1
     5    12    14    1
     6    14    15   ar
     7    15    16   ar
     8    16    17   ar
     9    17    18   ar
    10    18    19    1
    11    18    20   ar
    12     2    21    1
    13    21    23    1
    14    23    24   ar
    15    24    25   ar
    16    25    29    1
    17    29    30    1
    18    29    31    1
    19    29    32    1
    20    25    26   ar
    21    26    27   ar
    22     4     5    1
    23     5     6   ar
    24     6     7   ar
    25     7     8   ar
    26     8     9   ar
    27     9    10    1
    28     9    11   ar
    29    20    14   ar
    30    27    23   ar
    31    11     5   ar
    32    12    13    1
    33    21    22    1
    34    27    28    1
@<TRIPOS>MOLECULE
*****
 32 34 0 0 0
SMALL
GASTEIGER

@<TRIPOS>ATOM
      1 N          -4.1798  -15.9235   23.0737 N.am    1  UNL1        0.0010
      2 C          -5.6236  -16.3147   23.1857 C.2     1  UNL1        0.3902
      3 O          -2.6426  -17.3470   23.4704 O.2     1  UNL1       -0.2483
      4 C          -3.1235  -16.9812   22.9504 C.2     1  UNL1        0.3418
      5 C          -2.8013  -17.5662   21.6073 C.ar    1  UNL1        0.0736
      6 C          -1.7958  -16.8956   20.7188 C.ar    1  UNL1        0.0062
      7 C          -1.4736  -17.4806   19.3757 C.ar    1  UNL1        0.0011
      8 C          -2.1567  -18.7362   18.9211 C.ar    1  UNL1        0.0114
      9 C          -3.1621  -19.4068   19.8095 C.ar    1  UNL1        0.0579
     10 CL         -3.8453  -20.6625   19.3549 Cl      1  UNL1       -0.0822
     11 C          -3.4844  -18.8219   21.1527 C.ar    1  UNL1        0.0175
     12 N          -6.6799  -15.2570   23.3091 N.pl3   1  UNL1       -0.2434
     13 H          -6.4268  -14.3323   23.5332 H       1  UNL1        0.2647
     14 C          -8.1219  -15.6080   23.0910 C.ar    1  UNL1        0.1175
     15 C          -8.9580  -16.0913   24.2387 C.ar    1  UNL1        0.0335
     16 C         -10.4000  -16.4423   24.0207 C.ar    1  UNL1        0.0038
     17 C         -11.0058  -16.3099   22.6548 C.ar    1  UNL1        0.0116
     18 C         -10.1697  -15.8266   21.5071 C.ar    1  UNL1        0.0605
     19 CL        -10.7756  -15.6942   20.1413 Cl      1  UNL1       -0.0821
     20 C          -8.7278  -15.4756   21.7252 C.ar    1  UNL1        0.0448
     21 N          -6.0110  -17.7638   23.1742 N.pl3   1  UNL1       -0.2286
     22 H          -5.6107  -18.3855   23.8242 H       1  UNL1        0.2662
     23 C          -7.0083  -18.2656   22.1724 C.ar    1  UNL1        0.1970
     24 C          -8.3142  -18.9334   22.4869 C.ar    1  UNL1        0.0781
     25 C          -8.9879  -19.2683   21.1891 C.ar    1  UNL1        0.1763
     26 N          -8.0982  -18.8075   20.0726 N.ar    1  UNL1       -0.1664
     27 N          -6.8749  -18.1878   20.6804 N.ar    1  UNL1       -0.2486
     28 H          -6.1173  -17.7984   20.1867 H       1  UNL1        0.1918
     29 C         -10.3175  -19.9451   21.0348 C.3     1  UNL1        0.4366
     30 F         -11.6472  -20.6219   20.8806 F       1  UNL1       -0.1643
     31 F         -10.4779  -19.9698   22.5260 F       1  UNL1       -0.1643
     32 F         -10.1572  -19.9203   19.5437 F       1  UNL1       -0.1643
@<TRIPOS>BOND
     1     3     4    2
     2     4     1    1
     3     1     2    2
     4     2    12    1
     5    12    14    1
     6    14    15   ar
     7    15    16   ar
     8    16    17   ar
     9    17    18   ar
    10    18    19    1
    11    18    20   ar
    12     2    21    1
    13    21    23    1
    14    23    24   ar
    15    24    25   ar
    16    25    29    1
    17    29    30    1
    18    29    31    1
    19    29    32    1
    20    25    26   ar
    21    26    27   ar
    22     4     5    1
    23     5     6   ar
    24     6     7   ar
    25     7     8   ar
    26     8     9   ar
    27     9    10    1
    28     9    11   ar
    29    20    14   ar
    30    27    23   ar
    31    11     5   ar
    32    12    13    1
    33    21    22    1
    34    27    28    1
