@<TRIPOS>MOLECULE
*****
 39 44 0 0 0
SMALL
GASTEIGER

@<TRIPOS>ATOM
      1 O           7.7902   -5.0410   22.0418 O.2     1  UNL1       -0.2749
      2 C           6.8173   -3.9958   22.5010 C.2     1  UNL1        0.2252
      3 N           6.6859   -3.6840   23.9623 N.am    1  UNL1       -0.2794
      4 C           7.5275   -4.4173   24.9643 C.3     1  UNL1        0.0953
      5 C           7.3961   -4.1055   26.4257 C.3     1  UNL1        0.0442
      6 C           6.4231   -3.0602   26.8850 C.3     1  UNL1        0.0933
      7 C           5.5817   -2.3269   25.8830 C.3     1  UNL1        0.0442
      8 C           5.7131   -2.6388   24.4217 C.3     1  UNL1        0.0953
      9 N           6.2918   -2.7483   28.3464 N.ar    1  UNL1       -0.2817
     10 C           5.8674   -1.4346   28.9328 C.ar    1  UNL1        0.3315
     11 O           5.4999   -0.2020   28.1610 O.2     1  UNL1       -0.2463
     12 N           5.8751   -1.5699   30.4267 N.ar    1  UNL1       -0.2785
     13 C           6.3042   -2.9672   30.7635 C.ar    1  UNL1        0.0797
     14 C           6.4937   -3.6704   32.0748 C.ar    1  UNL1        0.0188
     15 C           6.9408   -5.1019   32.1003 C.ar    1  UNL1        0.0016
     16 C           7.1983   -5.8303   30.8145 C.ar    1  UNL1        0.0016
     17 C           7.0088   -5.1271   29.5032 C.ar    1  UNL1        0.0188
     18 C           6.5618   -3.6955   29.4777 C.ar    1  UNL1        0.0796
     19 C           5.5166   -0.4963   31.4111 C.3     1  UNL1        0.1278
     20 C           4.1927   -0.5362   32.1154 C.3     1  UNL1        0.0972
     21 N           2.9737    0.0351   31.4538 N.3     1  UNL1       -0.2668
     22 C           2.3065    1.2483   32.0308 C.3     1  UNL1        0.1047
     23 C           1.0874    1.8196   31.3692 C.3     1  UNL1        0.1595
     24 O           0.5358    1.1777   30.1308 O.3     1  UNL1       -0.3508
     25 C           1.2031   -0.0355   29.5539 C.3     1  UNL1        0.1595
     26 C           2.4221   -0.6068   30.2155 C.3     1  UNL1        0.1047
     27 C           5.9758   -3.2625   21.4990 C.3     1  UNL1        0.0795
     28 C           4.6867   -3.8618   21.0203 C.3     1  UNL1        0.0264
     29 C           3.8452   -3.1284   20.0183 C.3     1  UNL1        0.0729
     30 N           4.2928   -1.7958   19.4950 N.3     1  UNL1       -0.2689
     31 C           5.5819   -1.1965   19.9738 C.3     1  UNL1        0.0729
     32 C           6.4234   -1.9298   20.9758 C.3     1  UNL1        0.0264
     33 C           3.4512   -1.0624   18.4930 C.3     1  UNL1        0.0992
     34 C           2.3561   -0.1492   18.9583 C.ar    1  UNL1       -0.0031
     35 C           2.1638    1.1861   18.3025 C.ar    1  UNL1        0.0178
     36 C           1.0687    2.0995   18.7678 C.ar    1  UNL1        0.0986
     37 N           0.1658    1.6775   19.8888 N.ar    1  UNL1       -0.2423
     38 C           0.3581    0.3422   20.5446 C.ar    1  UNL1        0.0986
     39 C           1.4532   -0.5711   20.0794 C.ar    1  UNL1        0.0178
@<TRIPOS>BOND
     1     1     2    2
     2     2    27    1
     3    27    28    1
     4    28    29    1
     5    29    30    1
     6    30    33    1
     7    33    34    1
     8    34    35   ar
     9    35    36   ar
    10    36    37   ar
    11    37    38   ar
    12    38    39   ar
    13    30    31    1
    14    31    32    1
    15     2     3   am
    16     3     4    1
    17     4     5    1
    18     5     6    1
    19     6     9    1
    20     9    10   ar
    21    10    11    2
    22    10    12   ar
    23    12    19    1
    24    19    20    1
    25    20    21    1
    26    21    22    1
    27    22    23    1
    28    23    24    1
    29    24    25    1
    30    25    26    1
    31    12    13   ar
    32    13    14   ar
    33    14    15   ar
    34    15    16   ar
    35    16    17   ar
    36    17    18   ar
    37     6     7    1
    38     7     8    1
    39    32    27    1
    40     8     3    1
    41    39    34   ar
    42    18     9   ar
    43    26    21    1
    44    18    13   ar
@<TRIPOS>MOLECULE
*****
 39 44 0 0 0
SMALL
GASTEIGER

@<TRIPOS>ATOM
      1 O           6.8588   -6.1051   31.1059 O.2     1  UNL1       -0.2749
      2 C           6.8966   -4.6968   30.5908 C.2     1  UNL1        0.2252
      3 N           6.8170   -4.4353   29.1160 N.am    1  UNL1       -0.2794
      4 C           6.6995   -5.5821   28.1562 C.3     1  UNL1        0.0953
      5 C           6.6198   -5.3206   26.6813 C.3     1  UNL1        0.0442
      6 C           6.6576   -3.9122   26.1662 C.3     1  UNL1        0.0933
      7 C           6.7751   -2.7656   27.1259 C.3     1  UNL1        0.0442
      8 C           6.8547   -3.0271   28.6008 C.3     1  UNL1        0.0953
      9 N           6.5779   -3.6507   24.6913 N.ar    1  UNL1       -0.2817
     10 C           5.6772   -2.6571   24.0194 C.ar    1  UNL1        0.3315
     11 O           4.6979   -1.7506   24.7044 O.2     1  UNL1       -0.2463
     12 N           5.9276   -2.7293   22.5422 N.ar    1  UNL1       -0.2785
     13 C           6.9831   -3.7674   22.3012 C.ar    1  UNL1        0.0797
     14 C           7.6302   -4.2677   21.0438 C.ar    1  UNL1        0.0188
     15 C           8.6792   -5.3375   21.1147 C.ar    1  UNL1        0.0016
     16 C           9.0812   -5.9070   22.4429 C.ar    1  UNL1        0.0016
     17 C           8.4341   -5.4067   23.7002 C.ar    1  UNL1        0.0188
     18 C           7.3851   -4.3369   23.6294 C.ar    1  UNL1        0.0796
     19 C           5.2427   -1.9075   21.4907 C.3     1  UNL1        0.1278
     20 C           3.8082   -2.1769   21.1446 C.3     1  UNL1        0.0972
     21 N           3.0950   -1.2945   20.1635 N.3     1  UNL1       -0.2668
     22 C           1.7289   -0.7654   20.4859 C.3     1  UNL1        0.1047
     23 C           1.0157    0.1171   19.5048 C.3     1  UNL1        0.1595
     24 O           1.6685    0.4704   18.2014 O.3     1  UNL1       -0.3508
     25 C           3.0345   -0.0587   17.8789 C.3     1  UNL1        0.1595
     26 C           3.7477   -0.9412   18.8600 C.3     1  UNL1        0.1047
     27 C           7.0141   -3.5501   31.5506 C.3     1  UNL1        0.0795
     28 C           5.7778   -2.9038   32.1019 C.3     1  UNL1        0.0264
     29 C           5.8953   -1.7571   33.0616 C.3     1  UNL1        0.0729
     30 N           7.2490   -1.2566   33.4701 N.3     1  UNL1       -0.2689
     31 C           8.4854   -1.9029   32.9188 C.3     1  UNL1        0.0729
     32 C           8.3679   -3.0496   31.9590 C.3     1  UNL1        0.0264
     33 C           7.3665   -0.1098   34.4299 C.3     1  UNL1        0.0992
     34 C           6.1390    0.4442   35.0904 C.ar    1  UNL1       -0.0031
     35 C           5.4010    1.5888   34.4617 C.ar    1  UNL1        0.0178
     36 C           4.1735    2.1429   35.1221 C.ar    1  UNL1        0.0986
     37 N           3.6840    1.5524   36.4112 N.ar    1  UNL1       -0.2423
     38 C           4.4221    0.4079   37.0399 C.ar    1  UNL1        0.0986
     39 C           5.6496   -0.1463   36.3795 C.ar    1  UNL1        0.0178
@<TRIPOS>BOND
     1     1     2    2
     2     2    27    1
     3    27    28    1
     4    28    29    1
     5    29    30    1
     6    30    33    1
     7    33    34    1
     8    34    35   ar
     9    35    36   ar
    10    36    37   ar
    11    37    38   ar
    12    38    39   ar
    13    30    31    1
    14    31    32    1
    15     2     3   am
    16     3     4    1
    17     4     5    1
    18     5     6    1
    19     6     9    1
    20     9    10   ar
    21    10    11    2
    22    10    12   ar
    23    12    19    1
    24    19    20    1
    25    20    21    1
    26    21    22    1
    27    22    23    1
    28    23    24    1
    29    24    25    1
    30    25    26    1
    31    12    13   ar
    32    13    14   ar
    33    14    15   ar
    34    15    16   ar
    35    16    17   ar
    36    17    18   ar
    37     6     7    1
    38     7     8    1
    39    32    27    1
    40     8     3    1
    41    39    34   ar
    42    18     9   ar
    43    26    21    1
    44    18    13   ar
@<TRIPOS>MOLECULE
*****
 39 44 0 0 0
SMALL
GASTEIGER

@<TRIPOS>ATOM
      1 O           9.1932   -3.0866   19.3749 O.2     1  UNL1       -0.2749
      2 C           7.9412   -2.9061   20.1809 C.2     1  UNL1        0.2252
      3 N           7.8644   -3.4464   21.5781 N.am    1  UNL1       -0.2794
      4 C           9.0396   -4.1671   22.1692 C.3     1  UNL1        0.0953
      5 C           8.9629   -4.7074   23.5664 C.3     1  UNL1        0.0442
      6 C           7.7108   -4.5269   24.3726 C.3     1  UNL1        0.0933
      7 C           6.5356   -3.8062   23.7815 C.3     1  UNL1        0.0442
      8 C           6.6124   -3.2660   22.3843 C.3     1  UNL1        0.0953
      9 N           7.6340   -5.0672   25.7699 N.ar    1  UNL1       -0.2817
     10 C           6.9353   -4.4195   26.9284 C.ar    1  UNL1        0.3315
     11 O           6.1906   -3.1179   26.8932 O.2     1  UNL1       -0.2463
     12 N           7.1120   -5.3021   28.1284 N.ar    1  UNL1       -0.2785
     13 C           7.9199   -6.4951   27.7114 C.ar    1  UNL1        0.0797
     14 C           8.4035   -7.6949   28.4708 C.ar    1  UNL1        0.0188
     15 C           9.2097   -8.7495   27.7724 C.ar    1  UNL1        0.0016
     16 C           9.5324   -8.6044   26.3147 C.ar    1  UNL1        0.0016
     17 C           9.0488   -7.4046   25.5554 C.ar    1  UNL1        0.0188
     18 C           8.2426   -6.3500   26.2538 C.ar    1  UNL1        0.0796
     19 C           6.5750   -5.0380   29.5038 C.3     1  UNL1        0.1278
     20 C           7.1663   -3.9438   30.3425 C.3     1  UNL1        0.0972
     21 N           6.2688   -2.9615   31.0351 N.3     1  UNL1       -0.2668
     22 C           5.9850   -3.1089   32.5006 C.3     1  UNL1        0.1047
     23 C           5.0876   -2.1266   33.1932 C.3     1  UNL1        0.1595
     24 O           4.4740   -0.9970   32.4203 O.3     1  UNL1       -0.3508
     25 C           4.7578   -0.8495   30.9549 C.3     1  UNL1        0.1595
     26 C           5.6552   -1.8318   30.2622 C.3     1  UNL1        0.1047
     27 C           6.7659   -2.1854   19.5899 C.3     1  UNL1        0.0795
     28 C           5.7598   -2.9375   18.7700 C.3     1  UNL1        0.0264
     29 C           4.5846   -2.2168   18.1790 C.3     1  UNL1        0.0729
     30 N           4.4154   -0.7440   18.4077 N.3     1  UNL1       -0.2689
     31 C           5.4216    0.0081   19.2276 C.3     1  UNL1        0.0729
     32 C           6.5968   -0.7126   19.8187 C.3     1  UNL1        0.0264
     33 C           3.2402   -0.0233   17.8166 C.3     1  UNL1        0.0992
     34 C           2.0862    0.3718   18.6896 C.ar    1  UNL1       -0.0031
     35 C           1.4039    1.6910   18.4791 C.ar    1  UNL1        0.0178
     36 C           0.2499    2.0862   19.3520 C.ar    1  UNL1        0.0986
     37 N          -0.2219    1.1622   20.4353 N.ar    1  UNL1       -0.2423
     38 C           0.4603   -0.1570   20.6458 C.ar    1  UNL1        0.0986
     39 C           1.6144   -0.5522   19.7729 C.ar    1  UNL1        0.0178
@<TRIPOS>BOND
     1     1     2    2
     2     2    27    1
     3    27    28    1
     4    28    29    1
     5    29    30    1
     6    30    33    1
     7    33    34    1
     8    34    35   ar
     9    35    36   ar
    10    36    37   ar
    11    37    38   ar
    12    38    39   ar
    13    30    31    1
    14    31    32    1
    15     2     3   am
    16     3     4    1
    17     4     5    1
    18     5     6    1
    19     6     9    1
    20     9    10   ar
    21    10    11    2
    22    10    12   ar
    23    12    19    1
    24    19    20    1
    25    20    21    1
    26    21    22    1
    27    22    23    1
    28    23    24    1
    29    24    25    1
    30    25    26    1
    31    12    13   ar
    32    13    14   ar
    33    14    15   ar
    34    15    16   ar
    35    16    17   ar
    36    17    18   ar
    37     6     7    1
    38     7     8    1
    39    32    27    1
    40     8     3    1
    41    39    34   ar
    42    18     9   ar
    43    26    21    1
    44    18    13   ar
@<TRIPOS>MOLECULE
*****
 39 44 0 0 0
SMALL
GASTEIGER

@<TRIPOS>ATOM
      1 O           6.5445   -5.4582   32.6073 O.2     1  UNL1       -0.2749
      2 C           6.5513   -4.2122   31.7723 C.2     1  UNL1        0.2252
      3 N           6.7039   -4.3082   30.2831 N.am    1  UNL1       -0.2794
      4 C           6.8497   -5.6502   29.6291 C.3     1  UNL1        0.0953
      5 C           7.0023   -5.7462   28.1400 C.3     1  UNL1        0.0442
      6 C           7.0091   -4.5001   27.3048 C.3     1  UNL1        0.0933
      7 C           6.8632   -3.1582   27.9589 C.3     1  UNL1        0.0442
      8 C           6.7106   -3.0622   29.4480 C.3     1  UNL1        0.0953
      9 N           7.1617   -4.5961   25.8157 N.ar    1  UNL1       -0.2817
     10 C           6.5533   -3.6691   24.8055 C.ar    1  UNL1        0.3315
     11 O           5.6856   -2.4833   25.1070 O.2     1  UNL1       -0.2463
     12 N           6.9651   -4.1361   23.4408 N.ar    1  UNL1       -0.2785
     13 C           7.8280   -5.3518   23.6076 C.ar    1  UNL1        0.0797
     14 C           8.5187   -6.2365   22.6126 C.ar    1  UNL1        0.0188
     15 C           9.3309   -7.4056   23.0854 C.ar    1  UNL1        0.0016
     16 C           9.4524   -7.6899   24.5532 C.ar    1  UNL1        0.0016
     17 C           8.7616   -6.8051   25.5482 C.ar    1  UNL1        0.0188
     18 C           7.9494   -5.6361   25.0754 C.ar    1  UNL1        0.0796
     19 C           6.5815   -3.4993   22.1380 C.3     1  UNL1        0.1278
     20 C           5.2219   -3.7461   21.5542 C.3     1  UNL1        0.0972
     21 N           4.7056   -2.8639   20.4564 N.3     1  UNL1       -0.2668
     22 C           5.2738   -2.9779   19.0729 C.3     1  UNL1        0.1047
     23 C           4.7576   -2.0957   17.9751 C.3     1  UNL1        0.1595
     24 O           3.6733   -1.0995   18.2608 O.3     1  UNL1       -0.3508
     25 C           3.1051   -0.9854   19.6443 C.3     1  UNL1        0.1595
     26 C           3.6213   -1.8676   20.7421 C.3     1  UNL1        0.1047
     27 C           6.4054   -2.8702   32.4263 C.3     1  UNL1        0.0795
     28 C           7.6254   -2.0881   32.8136 C.3     1  UNL1        0.0264
     29 C           7.4795   -0.7461   33.4676 C.3     1  UNL1        0.0729
     30 N           6.1138   -0.1862   33.7343 N.3     1  UNL1       -0.2689
     31 C           4.8937   -0.9683   33.3469 C.3     1  UNL1        0.0729
     32 C           5.0396   -2.3103   32.6929 C.3     1  UNL1        0.0264
     33 C           5.9679    1.1558   34.3883 C.3     1  UNL1        0.0992
     34 C           4.8142    1.4197   35.3099 C.ar    1  UNL1       -0.0031
     35 C           3.7208    2.3580   34.8929 C.ar    1  UNL1        0.0178
     36 C           2.5671    2.6220   35.8145 C.ar    1  UNL1        0.0986
     37 N           2.5067    1.9475   37.1529 N.ar    1  UNL1       -0.2423
     38 C           3.6002    1.0091   37.5698 C.ar    1  UNL1        0.0986
     39 C           4.7539    0.7452   36.6483 C.ar    1  UNL1        0.0178
@<TRIPOS>BOND
     1     1     2    2
     2     2    27    1
     3    27    28    1
     4    28    29    1
     5    29    30    1
     6    30    33    1
     7    33    34    1
     8    34    35   ar
     9    35    36   ar
    10    36    37   ar
    11    37    38   ar
    12    38    39   ar
    13    30    31    1
    14    31    32    1
    15     2     3   am
    16     3     4    1
    17     4     5    1
    18     5     6    1
    19     6     9    1
    20     9    10   ar
    21    10    11    2
    22    10    12   ar
    23    12    19    1
    24    19    20    1
    25    20    21    1
    26    21    22    1
    27    22    23    1
    28    23    24    1
    29    24    25    1
    30    25    26    1
    31    12    13   ar
    32    13    14   ar
    33    14    15   ar
    34    15    16   ar
    35    16    17   ar
    36    17    18   ar
    37     6     7    1
    38     7     8    1
    39    32    27    1
    40     8     3    1
    41    39    34   ar
    42    18     9   ar
    43    26    21    1
    44    18    13   ar
@<TRIPOS>MOLECULE
*****
 39 44 0 0 0
SMALL
GASTEIGER

@<TRIPOS>ATOM
      1 O           1.8743    0.1851   30.6246 O.2     1  UNL1       -0.2749
      2 C           3.2939   -0.2836   30.7466 C.2     1  UNL1        0.2252
      3 N           3.9942   -0.8721   29.5578 N.am    1  UNL1       -0.2794
      4 C           3.2748   -0.9918   28.2470 C.3     1  UNL1        0.0953
      5 C           3.9751   -1.5802   27.0582 C.3     1  UNL1        0.0442
      6 C           5.3949   -2.0491   27.1802 C.3     1  UNL1        0.0933
      7 C           6.1141   -1.9294   28.4910 C.3     1  UNL1        0.0442
      8 C           5.4138   -1.3409   29.6798 C.3     1  UNL1        0.0953
      9 N           6.0951   -2.6375   25.9914 N.ar    1  UNL1       -0.2817
     10 C           6.3947   -1.9280   24.7042 C.ar    1  UNL1        0.3315
     11 O           6.0465   -0.5055   24.3798 O.2     1  UNL1       -0.2463
     12 N           7.1035   -2.8909   23.7983 N.ar    1  UNL1       -0.2785
     13 C           7.2421   -4.1954   24.5257 C.ar    1  UNL1        0.0797
     14 C           7.8552   -5.5056   24.1289 C.ar    1  UNL1        0.0188
     15 C           7.8451   -6.6592   25.0876 C.ar    1  UNL1        0.0016
     16 C           7.2219   -6.5026   26.4430 C.ar    1  UNL1        0.0016
     17 C           6.6087   -5.1924   26.8397 C.ar    1  UNL1        0.0188
     18 C           6.6188   -4.0388   25.8811 C.ar    1  UNL1        0.0796
     19 C           7.5886   -2.6002   22.4090 C.3     1  UNL1        0.1278
     20 C           7.0336   -3.3666   21.2451 C.3     1  UNL1        0.0972
     21 N           5.6706   -3.0377   20.7119 N.3     1  UNL1       -0.2668
     22 C           4.9552   -4.0155   19.8277 C.3     1  UNL1        0.1047
     23 C           3.5923   -3.6866   19.2945 C.3     1  UNL1        0.1595
     24 O           2.9449   -2.3799   19.6456 O.3     1  UNL1       -0.3508
     25 C           3.6603   -1.4020   20.5298 C.3     1  UNL1        0.1595
     26 C           5.0232   -1.7309   21.0630 C.3     1  UNL1        0.1047
     27 C           4.0132   -0.1640   32.0575 C.3     1  UNL1        0.0795
     28 C           4.6404    1.1401   32.4524 C.3     1  UNL1        0.0264
     29 C           5.3597    1.2598   33.7632 C.3     1  UNL1        0.0729
     30 N           5.4518    0.0754   34.6791 N.3     1  UNL1       -0.2689
     31 C           4.8246   -1.2287   34.2841 C.3     1  UNL1        0.0729
     32 C           4.1053   -1.3484   32.9733 C.3     1  UNL1        0.0264
     33 C           6.1711    0.1951   35.9899 C.3     1  UNL1        0.0992
     34 C           5.5172    0.8971   37.1429 C.ar    1  UNL1       -0.0031
     35 C           4.0826    0.6140   37.4773 C.ar    1  UNL1        0.0178
     36 C           3.4286    1.3159   38.6303 C.ar    1  UNL1        0.0986
     37 N           4.2092    2.3010   39.4490 N.ar    1  UNL1       -0.2423
     38 C           5.6438    2.5841   39.1147 C.ar    1  UNL1        0.0986
     39 C           6.2978    1.8821   37.9617 C.ar    1  UNL1        0.0178
@<TRIPOS>BOND
     1     1     2    2
     2     2    27    1
     3    27    28    1
     4    28    29    1
     5    29    30    1
     6    30    33    1
     7    33    34    1
     8    34    35   ar
     9    35    36   ar
    10    36    37   ar
    11    37    38   ar
    12    38    39   ar
    13    30    31    1
    14    31    32    1
    15     2     3   am
    16     3     4    1
    17     4     5    1
    18     5     6    1
    19     6     9    1
    20     9    10   ar
    21    10    11    2
    22    10    12   ar
    23    12    19    1
    24    19    20    1
    25    20    21    1
    26    21    22    1
    27    22    23    1
    28    23    24    1
    29    24    25    1
    30    25    26    1
    31    12    13   ar
    32    13    14   ar
    33    14    15   ar
    34    15    16   ar
    35    16    17   ar
    36    17    18   ar
    37     6     7    1
    38     7     8    1
    39    32    27    1
    40     8     3    1
    41    39    34   ar
    42    18     9   ar
    43    26    21    1
    44    18    13   ar
@<TRIPOS>MOLECULE
*****
 39 44 0 0 0
SMALL
GASTEIGER

@<TRIPOS>ATOM
      1 O           6.5317   -2.4271   17.4745 O.2     1  UNL1       -0.2749
      2 C           6.1003   -1.9716   18.8370 C.2     1  UNL1        0.2252
      3 N           4.9588   -1.0090   18.9794 N.am    1  UNL1       -0.2794
      4 C           4.2486   -0.5020   17.7593 C.3     1  UNL1        0.0953
      5 C           3.1071    0.4606   17.9017 C.3     1  UNL1        0.0442
      6 C           2.6756    0.9162   19.2642 C.3     1  UNL1        0.0933
      7 C           3.3858    0.4091   20.4842 C.3     1  UNL1        0.0442
      8 C           4.5273   -0.5535   20.3418 C.3     1  UNL1        0.0953
      9 N           1.5341    1.8788   19.4066 N.ar    1  UNL1       -0.2817
     10 C           0.2275    1.6021   20.0894 C.ar    1  UNL1        0.3315
     11 O          -0.1670    0.3143   20.7497 O.2     1  UNL1       -0.2463
     12 N          -0.6154    2.8394   19.9960 N.ar    1  UNL1       -0.2785
     13 C           0.1703    3.8807   19.2554 C.ar    1  UNL1        0.0797
     14 C          -0.1523    5.2928   18.8658 C.ar    1  UNL1        0.0188
     15 C           0.8536    6.1112   18.1118 C.ar    1  UNL1        0.0016
     16 C           2.1820    5.5175   17.7476 C.ar    1  UNL1        0.0016
     17 C           2.5046    4.1054   18.1373 C.ar    1  UNL1        0.0188
     18 C           1.4988    3.2870   18.8912 C.ar    1  UNL1        0.0796
     19 C          -2.0008    3.0062   20.5464 C.3     1  UNL1        0.1278
     20 C          -2.1996    3.5963   21.9111 C.3     1  UNL1        0.0972
     21 N          -3.5828    3.7320   22.4753 N.3     1  UNL1       -0.2668
     22 C          -3.7985    3.6592   23.9579 C.3     1  UNL1        0.1047
     23 C          -5.1817    3.7949   24.5221 C.3     1  UNL1        0.1595
     24 O          -6.3492    4.0035   23.6036 O.3     1  UNL1       -0.3508
     25 C          -6.1335    4.0763   22.1210 C.3     1  UNL1        0.1595
     26 C          -4.7503    3.9406   21.5569 C.3     1  UNL1        0.1047
     27 C           6.8105   -2.4787   20.0570 C.3     1  UNL1        0.0795
     28 C           6.2261   -3.6109   20.8486 C.3     1  UNL1        0.0264
     29 C           6.9363   -4.1179   22.0687 C.3     1  UNL1        0.0729
     30 N           8.2307   -3.4928   22.4972 N.3     1  UNL1       -0.2689
     31 C           8.8151   -2.3605   21.7055 C.3     1  UNL1        0.0729
     32 C           8.1049   -1.8534   20.4854 C.3     1  UNL1        0.0264
     33 C           8.9409   -3.9998   23.7173 C.3     1  UNL1        0.0992
     34 C           8.3561   -5.1313   24.5095 C.ar    1  UNL1       -0.0031
     35 C           7.4713   -4.8443   25.6862 C.ar    1  UNL1        0.0178
     36 C           6.8865   -5.9757   26.4785 C.ar    1  UNL1        0.0986
     37 N           7.1865   -7.3943   26.0941 N.ar    1  UNL1       -0.2423
     38 C           8.0713   -7.6813   24.9174 C.ar    1  UNL1        0.0986
     39 C           8.6561   -6.5498   24.1250 C.ar    1  UNL1        0.0178
@<TRIPOS>BOND
     1     1     2    2
     2     2    27    1
     3    27    28    1
     4    28    29    1
     5    29    30    1
     6    30    33    1
     7    33    34    1
     8    34    35   ar
     9    35    36   ar
    10    36    37   ar
    11    37    38   ar
    12    38    39   ar
    13    30    31    1
    14    31    32    1
    15     2     3   am
    16     3     4    1
    17     4     5    1
    18     5     6    1
    19     6     9    1
    20     9    10   ar
    21    10    11    2
    22    10    12   ar
    23    12    19    1
    24    19    20    1
    25    20    21    1
    26    21    22    1
    27    22    23    1
    28    23    24    1
    29    24    25    1
    30    25    26    1
    31    12    13   ar
    32    13    14   ar
    33    14    15   ar
    34    15    16   ar
    35    16    17   ar
    36    17    18   ar
    37     6     7    1
    38     7     8    1
    39    32    27    1
    40     8     3    1
    41    39    34   ar
    42    18     9   ar
    43    26    21    1
    44    18    13   ar
@<TRIPOS>MOLECULE
*****
 39 44 0 0 0
SMALL
GASTEIGER

@<TRIPOS>ATOM
      1 O           3.7902    5.0709   19.1835 O.2     1  UNL1       -0.2749
      2 C           3.0838    3.7799   19.4742 C.2     1  UNL1        0.2252
      3 N           1.6160    3.7813   19.7831 N.am    1  UNL1       -0.2794
      4 C           0.8545    5.0735   19.8012 C.3     1  UNL1        0.0953
      5 C          -0.6133    5.0749   20.1100 C.3     1  UNL1        0.0442
      6 C          -1.3198    3.7839   20.4008 C.3     1  UNL1        0.0933
      7 C          -0.5583    2.4917   20.3826 C.3     1  UNL1        0.0442
      8 C           0.9095    2.4904   20.0738 C.3     1  UNL1        0.0953
      9 N          -2.7877    3.7852   20.7096 N.ar    1  UNL1       -0.2817
     10 C          -3.4015    3.6902   22.0749 C.ar    1  UNL1        0.3315
     11 O          -2.6552    3.5772   23.3712 O.2     1  UNL1       -0.2463
     12 N          -4.8926    3.7281   21.9164 N.ar    1  UNL1       -0.2785
     13 C          -5.2003    3.8465   20.4531 C.ar    1  UNL1        0.0797
     14 C          -6.4971    3.9267   19.7035 C.ar    1  UNL1        0.0188
     15 C          -6.4929    4.0423   18.2080 C.ar    1  UNL1        0.0016
     16 C          -5.1920    4.0776   17.4621 C.ar    1  UNL1        0.0016
     17 C          -3.8952    3.9974   18.2117 C.ar    1  UNL1        0.0188
     18 C          -3.8994    3.8818   19.7072 C.ar    1  UNL1        0.0796
     19 C          -5.8993    3.6596   23.0263 C.3     1  UNL1        0.1278
     20 C          -6.4465    4.9231   23.6216 C.3     1  UNL1        0.0972
     21 N          -6.2206    5.2275   25.0729 N.3     1  UNL1       -0.2668
     22 C          -4.9771    4.7414   25.7565 C.3     1  UNL1        0.1047
     23 C          -4.7512    5.0458   27.2078 C.3     1  UNL1        0.1595
     24 O          -5.7688    5.8365   27.9755 O.3     1  UNL1       -0.3508
     25 C          -7.0123    6.3226   27.2919 C.3     1  UNL1        0.1595
     26 C          -7.2382    6.0181   25.8406 C.3     1  UNL1        0.1047
     27 C           3.8453    2.4877   19.4561 C.3     1  UNL1        0.0795
     28 C           3.8437    1.6335   18.2231 C.3     1  UNL1        0.0264
     29 C           4.6052    0.3413   18.2050 C.3     1  UNL1        0.0729
     30 N           5.3681   -0.0968   19.4199 N.3     1  UNL1       -0.2689
     31 C           5.3697    0.7575   20.6530 C.3     1  UNL1        0.0729
     32 C           4.6082    2.0497   20.6711 C.3     1  UNL1        0.0264
     33 C           6.1296   -1.3890   19.4017 C.3     1  UNL1        0.0992
     34 C           5.4222   -2.6804   19.6876 C.ar    1  UNL1       -0.0031
     35 C           5.1862   -3.6668   18.5824 C.ar    1  UNL1        0.0178
     36 C           4.4789   -4.9583   18.8681 C.ar    1  UNL1        0.0986
     37 N           4.0075   -5.2634   20.2590 N.ar    1  UNL1       -0.2423
     38 C           4.2434   -4.2771   21.3642 C.ar    1  UNL1        0.0986
     39 C           4.9508   -2.9856   21.0785 C.ar    1  UNL1        0.0178
@<TRIPOS>BOND
     1     1     2    2
     2     2    27    1
     3    27    28    1
     4    28    29    1
     5    29    30    1
     6    30    33    1
     7    33    34    1
     8    34    35   ar
     9    35    36   ar
    10    36    37   ar
    11    37    38   ar
    12    38    39   ar
    13    30    31    1
    14    31    32    1
    15     2     3   am
    16     3     4    1
    17     4     5    1
    18     5     6    1
    19     6     9    1
    20     9    10   ar
    21    10    11    2
    22    10    12   ar
    23    12    19    1
    24    19    20    1
    25    20    21    1
    26    21    22    1
    27    22    23    1
    28    23    24    1
    29    24    25    1
    30    25    26    1
    31    12    13   ar
    32    13    14   ar
    33    14    15   ar
    34    15    16   ar
    35    16    17   ar
    36    17    18   ar
    37     6     7    1
    38     7     8    1
    39    32    27    1
    40     8     3    1
    41    39    34   ar
    42    18     9   ar
    43    26    21    1
    44    18    13   ar
@<TRIPOS>MOLECULE
*****
 39 44 0 0 0
SMALL
GASTEIGER

@<TRIPOS>ATOM
      1 O           3.8378   -0.9578   16.6006 O.2     1  UNL1       -0.2749
      2 C           3.8436   -1.0035   18.0998 C.2     1  UNL1        0.2252
      3 N           2.8554   -0.1869   18.8788 N.am    1  UNL1       -0.2794
      4 C           1.8615    0.6752   18.1584 C.3     1  UNL1        0.0953
      5 C           0.8733    1.4917   18.9374 C.3     1  UNL1        0.0442
      6 C           0.8790    1.4462   20.4368 C.3     1  UNL1        0.0933
      7 C           1.8729    0.5841   21.1570 C.3     1  UNL1        0.0442
      8 C           2.8611   -0.2325   20.3781 C.3     1  UNL1        0.0953
      9 N          -0.1091    2.2627   21.2157 N.ar    1  UNL1       -0.2817
     10 C          -1.1486    3.1764   20.6371 C.ar    1  UNL1        0.3315
     11 O          -1.3823    3.4339   19.1780 O.2     1  UNL1       -0.2463
     12 N          -1.9132    3.7873   21.7738 N.ar    1  UNL1       -0.2785
     13 C          -1.3463    3.2512   23.0550 C.ar    1  UNL1        0.0797
     14 C          -1.7014    3.4992   24.4910 C.ar    1  UNL1        0.0188
     15 C          -0.9414    2.8051   25.5821 C.ar    1  UNL1        0.0016
     16 C           0.1736    1.8628   25.2372 C.ar    1  UNL1        0.0016
     17 C           0.5286    1.6148   23.8011 C.ar    1  UNL1        0.0188
     18 C          -0.2313    2.3089   22.7100 C.ar    1  UNL1        0.0796
     19 C          -3.0458    4.7630   21.6510 C.3     1  UNL1        0.1278
     20 C          -4.4605    4.2670   21.5975 C.3     1  UNL1        0.0972
     21 N          -5.4251    4.6323   22.6867 N.3     1  UNL1       -0.2668
     22 C          -4.9212    5.2417   23.9613 C.3     1  UNL1        0.1047
     23 C          -5.8857    5.6070   25.0504 C.3     1  UNL1        0.1595
     24 O          -7.3540    5.3628   24.8650 O.3     1  UNL1       -0.3508
     25 C          -7.8579    4.7534   23.5904 C.3     1  UNL1        0.1595
     26 C          -6.8934    4.3881   22.5012 C.3     1  UNL1        0.1047
     27 C           4.8375   -1.8656   18.8202 C.3     1  UNL1        0.0795
     28 C           4.5213   -3.3061   19.0940 C.3     1  UNL1        0.0264
     29 C           5.5152   -4.1682   19.8144 C.3     1  UNL1        0.0729
     30 N           6.8253   -3.5898   20.2609 N.3     1  UNL1       -0.2689
     31 C           7.1414   -2.1493   19.9870 C.3     1  UNL1        0.0729
     32 C           6.1475   -1.2871   19.2666 C.3     1  UNL1        0.0264
     33 C           7.8192   -4.4520   20.9812 C.3     1  UNL1        0.0992
     34 C           7.6708   -4.6979   22.4534 C.ar    1  UNL1       -0.0031
     35 C           6.6997   -3.8834   23.2557 C.ar    1  UNL1        0.0178
     36 C           6.5513   -4.1293   24.7279 C.ar    1  UNL1        0.0986
     37 N           7.3740   -5.1895   25.3979 N.ar    1  UNL1       -0.2423
     38 C           8.3452   -6.0039   24.5957 C.ar    1  UNL1        0.0986
     39 C           8.4936   -5.7581   23.1234 C.ar    1  UNL1        0.0178
@<TRIPOS>BOND
     1     1     2    2
     2     2    27    1
     3    27    28    1
     4    28    29    1
     5    29    30    1
     6    30    33    1
     7    33    34    1
     8    34    35   ar
     9    35    36   ar
    10    36    37   ar
    11    37    38   ar
    12    38    39   ar
    13    30    31    1
    14    31    32    1
    15     2     3   am
    16     3     4    1
    17     4     5    1
    18     5     6    1
    19     6     9    1
    20     9    10   ar
    21    10    11    2
    22    10    12   ar
    23    12    19    1
    24    19    20    1
    25    20    21    1
    26    21    22    1
    27    22    23    1
    28    23    24    1
    29    24    25    1
    30    25    26    1
    31    12    13   ar
    32    13    14   ar
    33    14    15   ar
    34    15    16   ar
    35    16    17   ar
    36    17    18   ar
    37     6     7    1
    38     7     8    1
    39    32    27    1
    40     8     3    1
    41    39    34   ar
    42    18     9   ar
    43    26    21    1
    44    18    13   ar
@<TRIPOS>MOLECULE
*****
 39 44 0 0 0
SMALL
GASTEIGER

@<TRIPOS>ATOM
      1 O          -0.0625    1.2460   24.9915 O.2     1  UNL1       -0.2749
      2 C           1.3801    1.0818   25.3681 C.2     1  UNL1        0.2252
      3 N           1.7903    1.1412   26.8097 N.am    1  UNL1       -0.2794
      4 C           0.7578    1.3648   27.8746 C.3     1  UNL1        0.0953
      5 C           1.1680    1.4242   29.3162 C.3     1  UNL1        0.0442
      6 C           2.6107    1.2600   29.6929 C.3     1  UNL1        0.0933
      7 C           3.6431    1.0364   28.6280 C.3     1  UNL1        0.0442
      8 C           3.2329    0.9771   27.1864 C.3     1  UNL1        0.0953
      9 N           3.0209    1.3194   31.1346 N.ar    1  UNL1       -0.2817
     10 C           2.9646    2.5303   32.0181 C.ar    1  UNL1        0.3315
     11 O           2.4882    3.8944   31.6151 O.2     1  UNL1       -0.2463
     12 N           3.4683    2.1375   33.3753 N.ar    1  UNL1       -0.2785
     13 C           3.8359    0.6839   33.3306 C.ar    1  UNL1        0.0797
     14 C           4.3866   -0.2445   34.3720 C.ar    1  UNL1        0.0188
     15 C           4.6609   -1.6787   34.0285 C.ar    1  UNL1        0.0016
     16 C           4.3844   -2.1843   32.6436 C.ar    1  UNL1        0.0016
     17 C           3.8336   -1.2558   31.6022 C.ar    1  UNL1        0.0188
     18 C           3.5593    0.1783   31.9457 C.ar    1  UNL1        0.0796
     19 C           3.5841    3.0399   34.5679 C.3     1  UNL1        0.1278
     20 C           2.4058    3.2395   35.4746 C.3     1  UNL1        0.0972
     21 N           2.4105    2.6457   36.8521 N.3     1  UNL1       -0.2668
     22 C           1.4446    3.1431   37.8863 C.3     1  UNL1        0.1047
     23 C           1.4493    2.5493   39.2638 C.3     1  UNL1        0.1595
     24 O           2.4198    1.4583   39.6070 O.3     1  UNL1       -0.3508
     25 C           3.3857    0.9610   38.5728 C.3     1  UNL1        0.1595
     26 C           3.3810    1.5547   37.1953 C.3     1  UNL1        0.1047
     27 C           2.4126    0.8583   24.3032 C.3     1  UNL1        0.0795
     28 C           3.0713    2.0310   23.6392 C.3     1  UNL1        0.0264
     29 C           4.1037    1.8074   22.5743 C.3     1  UNL1        0.0729
     30 N           4.4774    0.4111   22.1733 N.3     1  UNL1       -0.2689
     31 C           3.8187   -0.7616   22.8373 C.3     1  UNL1        0.0729
     32 C           2.7862   -0.5381   23.9022 C.3     1  UNL1        0.0264
     33 C           5.5099    0.1876   21.1084 C.3     1  UNL1        0.0992
     34 C           5.1157   -0.4297   19.7994 C.ar    1  UNL1       -0.0031
     35 C           4.3810    0.3856   18.7769 C.ar    1  UNL1        0.0178
     36 C           3.9868   -0.2315   17.4678 C.ar    1  UNL1        0.0986
     37 N           4.3273   -1.6640   17.1812 N.ar    1  UNL1       -0.2423
     38 C           5.0620   -2.4793   18.2037 C.ar    1  UNL1        0.0986
     39 C           5.4562   -1.8621   19.5128 C.ar    1  UNL1        0.0178
@<TRIPOS>BOND
     1     1     2    2
     2     2    27    1
     3    27    28    1
     4    28    29    1
     5    29    30    1
     6    30    33    1
     7    33    34    1
     8    34    35   ar
     9    35    36   ar
    10    36    37   ar
    11    37    38   ar
    12    38    39   ar
    13    30    31    1
    14    31    32    1
    15     2     3   am
    16     3     4    1
    17     4     5    1
    18     5     6    1
    19     6     9    1
    20     9    10   ar
    21    10    11    2
    22    10    12   ar
    23    12    19    1
    24    19    20    1
    25    20    21    1
    26    21    22    1
    27    22    23    1
    28    23    24    1
    29    24    25    1
    30    25    26    1
    31    12    13   ar
    32    13    14   ar
    33    14    15   ar
    34    15    16   ar
    35    16    17   ar
    36    17    18   ar
    37     6     7    1
    38     7     8    1
    39    32    27    1
    40     8     3    1
    41    39    34   ar
    42    18     9   ar
    43    26    21    1
    44    18    13   ar
