@<TRIPOS>MOLECULE
*****
 29 33 0 0 0
SMALL
GASTEIGER

@<TRIPOS>ATOM
      1 C           5.3681   -0.9923   34.5068 C.ar    1  UNL1        0.0515
      2 C           4.3719   -1.9515   33.9258 C.ar    1  UNL1        0.0160
      3 C           4.7279   -2.7598   32.7135 C.ar    1  UNL1        0.0174
      4 C           6.0801   -2.6090   32.0821 C.ar    1  UNL1        0.0712
      5 C           7.0764   -1.6499   32.6631 C.ar    1  UNL1        0.0729
      6 CL          8.4286   -1.4990   32.0317 Cl      1  UNL1       -0.0809
      7 C           6.7204   -0.8415   33.8755 C.ar    1  UNL1        0.0273
      8 N           6.4363   -3.4173   30.8697 N.am    1  UNL1       -0.2073
      9 C           6.8001   -4.8725   30.8560 C.2     1  UNL1        0.2355
     10 O           6.8717   -5.7747   32.0523 O.2     1  UNL1       -0.2741
     11 C           7.0798   -5.2670   29.4362 C.3     1  UNL1        0.0903
     12 C           6.8888   -4.0557   28.5724 C.3     1  UNL1        0.0903
     13 C           6.4911   -2.9125   29.4584 C.2     1  UNL1        0.2355
     14 O           6.1994   -1.5107   29.0114 O.2     1  UNL1       -0.2741
     15 C           7.1685   -4.4502   27.1524 C.3     1  UNL1        0.0311
     16 C           7.5663   -5.5934   26.2664 C.2     1  UNL1       -0.0305
     17 C           7.7573   -6.8046   27.1303 C.2     1  UNL1       -0.0305
     18 C           7.4776   -6.4102   28.5502 C.3     1  UNL1        0.0311
     19 C           7.1137   -4.9550   28.5639 C.3     1  UNL1        0.0096
     20 O           3.5017    1.3432   34.2573 O.2     1  UNL1       -0.2682
     21 C           4.0789    0.9837   35.5945 C.2     1  UNL1        0.2672
     22 N           5.0120   -0.1839   35.7192 N.am    1  UNL1       -0.2791
     23 H           5.3908   -0.4198   36.5968 H       1  UNL1        0.1552
     24 C           3.7228    1.7921   36.8068 C.ar    1  UNL1        0.1348
     25 C           4.7301    1.9864   37.9011 C.ar    1  UNL1        0.0238
     26 C           4.3740    2.7948   39.1134 C.ar    1  UNL1        0.0033
     27 C           3.0106    3.4088   39.2314 C.ar    1  UNL1        0.0207
     28 C           2.0033    3.2145   38.1371 C.ar    1  UNL1        0.0990
     29 N           2.3593    2.4062   36.9248 N.ar    1  UNL1       -0.2392
@<TRIPOS>BOND
     1    20    21    2
     2    21    22   am
     3    22     1    1
     4     1     2   ar
     5     2     3   ar
     6     3     4   ar
     7     4     8    1
     8     8     9   am
     9     9    10    2
    10    11     9    1
    11    11    12    1
    12    12    13    1
    13    13    14    2
    14    12    15    1
    15    15    16    1
    16    16    17    2
    17    18    17    1
    18    18    19    1
    19     4     5   ar
    20     5     6    1
    21     5     7   ar
    22    21    24    1
    23    24    25   ar
    24    25    26   ar
    25    26    27   ar
    26    27    28   ar
    27    28    29   ar
    28     7     1   ar
    29    29    24   ar
    30    13     8   am
    31    19    15    1
    32    18    11    1
    33    22    23    1
@<TRIPOS>MOLECULE
*****
 29 33 0 0 0
SMALL
GASTEIGER

@<TRIPOS>ATOM
      1 C           5.3806   -0.9944   34.5105 C.ar    1  UNL1        0.0515
      2 C           4.3829   -1.9551   33.9345 C.ar    1  UNL1        0.0160
      3 C           4.7349   -2.7647   32.7218 C.ar    1  UNL1        0.0174
      4 C           6.0846   -2.6134   32.0850 C.ar    1  UNL1        0.0712
      5 C           7.0822   -1.6527   32.6609 C.ar    1  UNL1        0.0729
      6 CL          8.4318   -1.5014   32.0241 Cl      1  UNL1       -0.0809
      7 C           6.7302   -0.8431   33.8736 C.ar    1  UNL1        0.0273
      8 N           6.4367   -3.4229   30.8722 N.am    1  UNL1       -0.2073
      9 C           6.4918   -2.9181   29.4608 C.2     1  UNL1        0.2355
     10 O           6.2043   -1.5151   29.0144 O.2     1  UNL1       -0.2741
     11 C           6.8847   -4.0623   28.5742 C.3     1  UNL1        0.0903
     12 C           7.0724   -5.2745   29.4377 C.3     1  UNL1        0.0903
     13 C           6.7956   -4.8792   30.8579 C.2     1  UNL1        0.2355
     14 O           6.8654   -5.7819   32.0539 O.2     1  UNL1       -0.2741
     15 C           7.4654   -6.4188   28.5510 C.3     1  UNL1        0.0311
     16 C           7.7422   -6.8140   27.1307 C.2     1  UNL1       -0.0305
     17 C           7.5544   -5.6019   26.2673 C.2     1  UNL1       -0.0305
     18 C           7.1615   -4.4576   27.1539 C.3     1  UNL1        0.0311
     19 C           7.1065   -4.9624   28.5653 C.3     1  UNL1        0.0096
     20 O           3.5426    1.3633   34.2584 O.2     1  UNL1       -0.2682
     21 C           4.1096    0.9940   35.5972 C.2     1  UNL1        0.2672
     22 N           5.0285   -0.1848   35.7233 N.am    1  UNL1       -0.2791
     23 H           5.4005   -0.4272   36.6019 H       1  UNL1        0.1552
     24 C           3.7575    1.8035   36.8099 C.ar    1  UNL1        0.1348
     25 C           4.7813    2.0326   37.8820 C.ar    1  UNL1        0.0238
     26 C           4.4292    2.8422   39.0947 C.ar    1  UNL1        0.0033
     27 C           3.0533    3.4226   39.2353 C.ar    1  UNL1        0.0207
     28 C           2.0294    3.1935   38.1633 C.ar    1  UNL1        0.0990
     29 N           2.3815    2.3840   36.9506 N.ar    1  UNL1       -0.2392
@<TRIPOS>BOND
     1    20    21    2
     2    21    22   am
     3    22     1    1
     4     1     2   ar
     5     2     3   ar
     6     3     4   ar
     7     4     8    1
     8     8     9   am
     9     9    10    2
    10    11     9    1
    11    11    12    1
    12    12    13    1
    13    13    14    2
    14    12    15    1
    15    15    16    1
    16    16    17    2
    17    18    17    1
    18    18    19    1
    19     4     5   ar
    20     5     6    1
    21     5     7   ar
    22    21    24    1
    23    24    25   ar
    24    25    26   ar
    25    26    27   ar
    26    27    28   ar
    27    28    29   ar
    28     7     1   ar
    29    29    24   ar
    30    13     8   am
    31    19    15    1
    32    18    11    1
    33    22    23    1
@<TRIPOS>MOLECULE
*****
 29 33 0 0 0
SMALL
GASTEIGER

@<TRIPOS>ATOM
      1 C          -6.1125  -18.6585   21.5385 C.ar    1  UNL1        0.0515
      2 C          -6.7620  -19.9238   22.0153 C.ar    1  UNL1        0.0160
      3 C          -8.1567  -19.8895   22.5663 C.ar    1  UNL1        0.0174
      4 C          -8.9020  -18.5899   22.6405 C.ar    1  UNL1        0.0712
      5 C          -8.2526  -17.3246   22.1637 C.ar    1  UNL1        0.0729
      6 CL         -8.9978  -16.0250   22.2379 Cl      1  UNL1       -0.0809
      7 C          -6.8578  -17.3589   21.6127 C.ar    1  UNL1        0.0273
      8 N         -10.2967  -18.5555   23.1914 N.am    1  UNL1       -0.2073
      9 C         -10.6816  -18.7438   24.6289 C.2     1  UNL1        0.2355
     10 O          -9.7394  -18.9997   25.7677 O.2     1  UNL1       -0.2741
     11 C         -12.1741  -18.6314   24.7277 C.3     1  UNL1        0.0903
     12 C         -12.7116  -18.3736   23.3512 C.3     1  UNL1        0.0903
     13 C         -11.5512  -18.3267   22.4018 C.2     1  UNL1        0.2355
     14 O         -11.6315  -18.0921   20.9224 O.2     1  UNL1       -0.2741
     15 C         -14.2041  -18.2612   23.4500 C.3     1  UNL1        0.0311
     16 C         -15.3645  -18.3081   24.3994 C.2     1  UNL1       -0.0305
     17 C         -14.8270  -18.5660   25.7759 C.2     1  UNL1       -0.0305
     18 C         -13.3344  -18.6784   25.6771 C.3     1  UNL1        0.0311
     19 C         -12.9495  -18.4900   24.2397 C.3     1  UNL1        0.0096
     20 O          -3.9911  -16.8935   22.7151 O.2     1  UNL1       -0.2682
     21 C          -3.6571  -17.8104   21.5758 C.2     1  UNL1        0.2672
     22 N          -4.7178  -18.6929   20.9875 N.am    1  UNL1       -0.2791
     23 H          -4.4985  -19.2946   20.2398 H       1  UNL1        0.1552
     24 C          -2.2624  -17.8447   21.0249 C.ar    1  UNL1        0.1348
     25 C          -1.5010  -16.5670   20.8306 C.ar    1  UNL1        0.0238
     26 C          -0.1063  -16.6013   20.2796 C.ar    1  UNL1        0.0033
     27 C           0.5271  -17.9134   19.9230 C.ar    1  UNL1        0.0207
     28 C          -0.2342  -19.1911   20.1173 C.ar    1  UNL1        0.0990
     29 N          -1.6290  -19.1568   20.6682 N.ar    1  UNL1       -0.2392
@<TRIPOS>BOND
     1    20    21    2
     2    21    22   am
     3    22     1    1
     4     1     2   ar
     5     2     3   ar
     6     3     4   ar
     7     4     8    1
     8     8     9   am
     9     9    10    2
    10    11     9    1
    11    11    12    1
    12    12    13    1
    13    13    14    2
    14    12    15    1
    15    15    16    1
    16    16    17    2
    17    18    17    1
    18    18    19    1
    19     4     5   ar
    20     5     6    1
    21     5     7   ar
    22    21    24    1
    23    24    25   ar
    24    25    26   ar
    25    26    27   ar
    26    27    28   ar
    27    28    29   ar
    28     7     1   ar
    29    29    24   ar
    30    13     8   am
    31    19    15    1
    32    18    11    1
    33    22    23    1
@<TRIPOS>MOLECULE
*****
 29 33 0 0 0
SMALL
GASTEIGER

@<TRIPOS>ATOM
      1 C           6.1069   -3.1366   32.3756 C.ar    1  UNL1        0.0515
      2 C           4.7303   -3.1666   32.9706 C.ar    1  UNL1        0.0160
      3 C           4.2873   -2.0687   33.8917 C.ar    1  UNL1        0.0174
      4 C           5.2209   -0.9409   34.2178 C.ar    1  UNL1        0.0712
      5 C           6.5976   -0.9110   33.6228 C.ar    1  UNL1        0.0729
      6 CL          7.5312    0.2168   33.9489 Cl      1  UNL1       -0.0809
      7 C           7.0406   -2.0089   32.7017 C.ar    1  UNL1        0.0273
      8 N           4.7781    0.1570   35.1389 N.am    1  UNL1       -0.2073
      9 C           3.7698    1.2212   34.8213 C.2     1  UNL1        0.2355
     10 O           3.0275    1.3743   33.5268 O.2     1  UNL1       -0.2741
     11 C           3.6342    2.1055   36.0253 C.3     1  UNL1        0.0903
     12 C           4.5587    1.5877   37.0871 C.3     1  UNL1        0.0903
     13 C           5.2656    0.3835   36.5392 C.2     1  UNL1        0.2355
     14 O           6.2817   -0.4482   37.2645 O.2     1  UNL1       -0.2741
     15 C           4.4231    2.4720   38.2911 C.3     1  UNL1        0.0311
     16 C           3.7162    3.6762   38.8390 C.2     1  UNL1       -0.0305
     17 C           2.7917    4.1939   37.7772 C.2     1  UNL1       -0.0305
     18 C           2.9273    3.3097   36.5732 C.3     1  UNL1        0.0311
     19 C           3.9355    2.2455   36.8908 C.3     1  UNL1        0.0096
     20 O           6.1160   -2.6930   29.4085 O.2     1  UNL1       -0.2682
     21 C           6.5544   -4.0128   29.9710 C.2     1  UNL1        0.2672
     22 N           6.5499   -4.2346   31.4544 N.am    1  UNL1       -0.2791
     23 H           6.8376   -5.1007   31.8235 H       1  UNL1        0.1552
     24 C           6.9973   -5.1106   29.0499 C.ar    1  UNL1        0.1348
     25 C           6.4681   -5.1724   27.6477 C.ar    1  UNL1        0.0238
     26 C           6.9110   -6.2703   26.7265 C.ar    1  UNL1        0.0033
     27 C           7.8832   -7.3063   27.2075 C.ar    1  UNL1        0.0207
     28 C           8.4124   -7.2445   28.6097 C.ar    1  UNL1        0.0990
     29 N           7.9695   -6.1467   29.5309 N.ar    1  UNL1       -0.2392
@<TRIPOS>BOND
     1    20    21    2
     2    21    22   am
     3    22     1    1
     4     1     2   ar
     5     2     3   ar
     6     3     4   ar
     7     4     8    1
     8     8     9   am
     9     9    10    2
    10    11     9    1
    11    11    12    1
    12    12    13    1
    13    13    14    2
    14    12    15    1
    15    15    16    1
    16    16    17    2
    17    18    17    1
    18    18    19    1
    19     4     5   ar
    20     5     6    1
    21     5     7   ar
    22    21    24    1
    23    24    25   ar
    24    25    26   ar
    25    26    27   ar
    26    27    28   ar
    27    28    29   ar
    28     7     1   ar
    29    29    24   ar
    30    13     8   am
    31    19    15    1
    32    18    11    1
    33    22    23    1
@<TRIPOS>MOLECULE
*****
 29 33 0 0 0
SMALL
GASTEIGER

@<TRIPOS>ATOM
      1 C           4.4530   -2.7446   22.2739 C.ar    1  UNL1        0.0515
      2 C           3.9100   -1.5788   23.0460 C.ar    1  UNL1        0.0160
      3 C           3.2785   -0.4276   22.3207 C.ar    1  UNL1        0.0174
      4 C           3.1901   -0.4422   20.8234 C.ar    1  UNL1        0.0712
      5 C           3.7331   -1.6080   20.0514 C.ar    1  UNL1        0.0729
      6 CL          3.6446   -1.6226   18.5541 Cl      1  UNL1       -0.0809
      7 C           4.3645   -2.7592   20.7766 C.ar    1  UNL1        0.0273
      8 N           2.5586    0.7090   20.0980 N.am    1  UNL1       -0.2073
      9 C           3.2881    1.8313   19.4211 C.2     1  UNL1        0.2355
     10 O           4.7770    1.9995   19.3507 O.2     1  UNL1       -0.2741
     11 C           2.2674    2.7559   18.8269 C.3     1  UNL1        0.0903
     12 C           0.9070    2.2050   19.1366 C.3     1  UNL1        0.0903
     13 C           1.0871    0.9399   19.9222 C.2     1  UNL1        0.2355
     14 O          -0.0117    0.0602   20.4409 O.2     1  UNL1       -0.2741
     15 C          -0.1138    3.1296   18.5424 C.3     1  UNL1        0.0311
     16 C          -0.2939    4.3947   17.7568 C.2     1  UNL1       -0.0305
     17 C           1.0664    4.9455   17.4471 C.2     1  UNL1       -0.0305
     18 C           2.0873    4.0210   18.0413 C.3     1  UNL1        0.0311
     19 C           1.3578    2.8986   18.7182 C.3     1  UNL1        0.0096
     20 O           7.4307   -2.8442   22.6254 O.2     1  UNL1       -0.2682
     21 C           6.5732   -3.9456   23.1750 C.2     1  UNL1        0.2672
     22 N           5.0845   -3.8958   22.9993 N.am    1  UNL1       -0.2791
     23 H           4.5217   -4.6186   23.3600 H       1  UNL1        0.1552
     24 C           7.2047   -5.0968   23.9003 C.ar    1  UNL1        0.1348
     25 C           7.0539   -5.2197   25.3877 C.ar    1  UNL1        0.0238
     26 C           7.6854   -6.3708   26.1130 C.ar    1  UNL1        0.0033
     27 C           8.4677   -7.3990   25.3509 C.ar    1  UNL1        0.0207
     28 C           8.6185   -7.2761   23.8636 C.ar    1  UNL1        0.0990
     29 N           7.9870   -6.1250   23.1383 N.ar    1  UNL1       -0.2392
@<TRIPOS>BOND
     1    20    21    2
     2    21    22   am
     3    22     1    1
     4     1     2   ar
     5     2     3   ar
     6     3     4   ar
     7     4     8    1
     8     8     9   am
     9     9    10    2
    10    11     9    1
    11    11    12    1
    12    12    13    1
    13    13    14    2
    14    12    15    1
    15    15    16    1
    16    16    17    2
    17    18    17    1
    18    18    19    1
    19     4     5   ar
    20     5     6    1
    21     5     7   ar
    22    21    24    1
    23    24    25   ar
    24    25    26   ar
    25    26    27   ar
    26    27    28   ar
    27    28    29   ar
    28     7     1   ar
    29    29    24   ar
    30    13     8   am
    31    19    15    1
    32    18    11    1
    33    22    23    1
@<TRIPOS>MOLECULE
*****
 29 33 0 0 0
SMALL
GASTEIGER

@<TRIPOS>ATOM
      1 C           4.3403   -2.6670   21.9804 C.ar    1  UNL1        0.0515
      2 C           3.7017   -1.5796   22.7926 C.ar    1  UNL1        0.0160
      3 C           3.0553   -0.4125   22.1071 C.ar    1  UNL1        0.0174
      4 C           3.0475   -0.3328   20.6092 C.ar    1  UNL1        0.0712
      5 C           3.6861   -1.4202   19.7970 C.ar    1  UNL1        0.0729
      6 CL          3.6783   -1.3406   18.2991 Cl      1  UNL1       -0.0809
      7 C           4.3325   -2.5873   20.4826 C.ar    1  UNL1        0.0273
      8 N           2.4011    0.8342   19.9235 N.am    1  UNL1       -0.2073
      9 C           0.9274    1.1004   19.8372 C.2     1  UNL1        0.2355
     10 O          -0.1585    0.2462   20.4214 O.2     1  UNL1       -0.2741
     11 C           0.7302    2.3705   19.0641 C.3     1  UNL1        0.0903
     12 C           2.0821    2.8894   18.6726 C.3     1  UNL1        0.0903
     13 C           3.1147    1.9399   19.2038 C.2     1  UNL1        0.2355
     14 O           4.6002    2.0728   19.0433 O.2     1  UNL1       -0.2741
     15 C           1.8850    4.1596   17.8995 C.3     1  UNL1        0.0311
     16 C           0.8524    5.1092   17.3683 C.2     1  UNL1       -0.0305
     17 C          -0.4994    4.5903   17.7598 C.2     1  UNL1       -0.0305
     18 C          -0.3024    3.3201   18.5329 C.3     1  UNL1        0.0311
     19 C           1.1713    3.0539   18.6192 C.3     1  UNL1        0.0096
     20 O           7.0382   -2.3522   23.2543 O.2     1  UNL1       -0.2682
     21 C           6.3356   -3.6767   23.3030 C.2     1  UNL1        0.2672
     22 N           4.9868   -3.8341   22.6661 N.am    1  UNL1       -0.2791
     23 H           4.5257   -4.7034   22.6981 H       1  UNL1        0.1552
     24 C           6.9821   -4.8437   23.9886 C.ar    1  UNL1        0.1348
     25 C           6.8740   -4.9930   25.4773 C.ar    1  UNL1        0.0238
     26 C           7.5204   -6.1600   26.1630 C.ar    1  UNL1        0.0033
     27 C           8.2750   -7.1777   25.3600 C.ar    1  UNL1        0.0207
     28 C           8.3831   -7.0285   23.8713 C.ar    1  UNL1        0.0990
     29 N           7.7367   -5.8614   23.1857 N.ar    1  UNL1       -0.2392
@<TRIPOS>BOND
     1    20    21    2
     2    21    22   am
     3    22     1    1
     4     1     2   ar
     5     2     3   ar
     6     3     4   ar
     7     4     8    1
     8     8     9   am
     9     9    10    2
    10    11     9    1
    11    11    12    1
    12    12    13    1
    13    13    14    2
    14    12    15    1
    15    15    16    1
    16    16    17    2
    17    18    17    1
    18    18    19    1
    19     4     5   ar
    20     5     6    1
    21     5     7   ar
    22    21    24    1
    23    24    25   ar
    24    25    26   ar
    25    26    27   ar
    26    27    28   ar
    27    28    29   ar
    28     7     1   ar
    29    29    24   ar
    30    13     8   am
    31    19    15    1
    32    18    11    1
    33    22    23    1
@<TRIPOS>MOLECULE
*****
 29 33 0 0 0
SMALL
GASTEIGER

@<TRIPOS>ATOM
      1 C           3.9209   -1.3899   27.5561 C.ar    1  UNL1        0.0515
      2 C           5.2209   -1.7119   28.2317 C.ar    1  UNL1        0.0160
      3 C           5.4316   -1.3393   29.6693 C.ar    1  UNL1        0.0174
      4 C           4.3422   -0.6447   30.4314 C.ar    1  UNL1        0.0712
      5 C           3.0422   -0.3227   29.7559 C.ar    1  UNL1        0.0729
      6 CL          1.9529    0.3718   30.5180 Cl      1  UNL1       -0.0809
      7 C           2.8315   -0.6953   28.3183 C.ar    1  UNL1        0.0273
      8 N           4.5528   -0.2720   31.8690 N.am    1  UNL1       -0.2073
      9 C           5.0366    1.0550   32.3740 C.2     1  UNL1        0.2355
     10 O           5.3947    2.2422   31.5300 O.2     1  UNL1       -0.2741
     11 C           5.0994    0.9864   33.8711 C.3     1  UNL1        0.0903
     12 C           4.6543   -0.3831   34.2914 C.3     1  UNL1        0.0903
     13 C           4.3166   -1.1608   33.0540 C.2     1  UNL1        0.2355
     14 O           3.8282   -2.5784   33.0095 O.2     1  UNL1       -0.2741
     15 C           4.7171   -0.4517   35.7885 C.3     1  UNL1        0.0311
     16 C           5.0549    0.3260   37.0259 C.2     1  UNL1       -0.0305
     17 C           5.4999    1.6954   36.6056 C.2     1  UNL1       -0.0305
     18 C           5.4371    1.7641   35.1085 C.3     1  UNL1        0.0311
     19 C           4.9533    0.4371   34.6035 C.3     1  UNL1        0.0096
     20 O           4.4145    0.6314   25.3949 O.2     1  UNL1       -0.2682
     21 C           3.9571   -0.7520   25.0379 C.2     1  UNL1        0.2672
     22 N           3.7103   -1.7626   26.1184 N.am    1  UNL1       -0.2791
     23 H           3.4101   -2.6704   25.8841 H       1  UNL1        0.1552
     24 C           3.7465   -1.1246   23.6003 C.ar    1  UNL1        0.1348
     25 C           2.7625   -0.3613   22.7640 C.ar    1  UNL1        0.0238
     26 C           2.5519   -0.7339   21.3264 C.ar    1  UNL1        0.0033
     27 C           3.3253   -1.8697   20.7250 C.ar    1  UNL1        0.0207
     28 C           4.3092   -2.6330   21.5612 C.ar    1  UNL1        0.0990
     29 N           4.5198   -2.2604   22.9988 N.ar    1  UNL1       -0.2392
@<TRIPOS>BOND
     1    20    21    2
     2    21    22   am
     3    22     1    1
     4     1     2   ar
     5     2     3   ar
     6     3     4   ar
     7     4     8    1
     8     8     9   am
     9     9    10    2
    10    11     9    1
    11    11    12    1
    12    12    13    1
    13    13    14    2
    14    12    15    1
    15    15    16    1
    16    16    17    2
    17    18    17    1
    18    18    19    1
    19     4     5   ar
    20     5     6    1
    21     5     7   ar
    22    21    24    1
    23    24    25   ar
    24    25    26   ar
    25    26    27   ar
    26    27    28   ar
    27    28    29   ar
    28     7     1   ar
    29    29    24   ar
    30    13     8   am
    31    19    15    1
    32    18    11    1
    33    22    23    1
@<TRIPOS>MOLECULE
*****
 29 33 0 0 0
SMALL
GASTEIGER

@<TRIPOS>ATOM
      1 C           6.3566   -2.9598   32.5968 C.ar    1  UNL1        0.0515
      2 C           4.8999   -3.0815   32.9336 C.ar    1  UNL1        0.0160
      3 C           4.1757   -1.9264   33.5591 C.ar    1  UNL1        0.0174
      4 C           4.9082   -0.6496   33.8478 C.ar    1  UNL1        0.0712
      5 C           6.3648   -0.5279   33.5109 C.ar    1  UNL1        0.0729
      6 CL          7.0972    0.7488   33.7996 Cl      1  UNL1       -0.0809
      7 C           7.0890   -1.6830   32.8855 C.ar    1  UNL1        0.0273
      8 N           4.1841    0.5056   34.4732 N.am    1  UNL1       -0.2073
      9 C           4.2101    0.8804   35.9254 C.2     1  UNL1        0.2355
     10 O           4.9648    0.1657   37.0071 O.2     1  UNL1       -0.2741
     11 C           3.3490    2.0952   36.1062 C.3     1  UNL1        0.0903
     12 C           2.7908    2.4712   34.7657 C.3     1  UNL1        0.0903
     13 C           3.3069    1.4887   33.7565 C.2     1  UNL1        0.2355
     14 O           2.9997    1.4895   32.2883 O.2     1  UNL1       -0.2741
     15 C           1.9296    3.6860   34.9465 C.3     1  UNL1        0.0311
     16 C           1.4135    4.6685   35.9556 C.2     1  UNL1       -0.0305
     17 C           1.9718    4.2924   37.2961 C.2     1  UNL1       -0.0305
     18 C           2.8329    3.0776   37.1154 C.3     1  UNL1        0.0311
     19 C           2.8069    2.7028   35.6632 C.3     1  UNL1        0.0096
     20 O           6.1954   -3.4045   29.6343 O.2     1  UNL1       -0.2682
     21 C           7.0002   -4.3373   30.4901 C.2     1  UNL1        0.2672
     22 N           7.0808   -4.1150   31.9713 N.am    1  UNL1       -0.2791
     23 H           7.6089   -4.7273   32.5329 H       1  UNL1        0.1552
     24 C           7.7243   -5.4925   29.8646 C.ar    1  UNL1        0.1348
     25 C           8.7790   -6.2251   30.6399 C.ar    1  UNL1        0.0238
     26 C           9.5031   -7.3802   30.0143 C.ar    1  UNL1        0.0033
     27 C           9.1726   -7.8027   28.6135 C.ar    1  UNL1        0.0207
     28 C           8.1179   -7.0701   27.8383 C.ar    1  UNL1        0.0990
     29 N           7.3938   -5.9150   28.4638 N.ar    1  UNL1       -0.2392
@<TRIPOS>BOND
     1    20    21    2
     2    21    22   am
     3    22     1    1
     4     1     2   ar
     5     2     3   ar
     6     3     4   ar
     7     4     8    1
     8     8     9   am
     9     9    10    2
    10    11     9    1
    11    11    12    1
    12    12    13    1
    13    13    14    2
    14    12    15    1
    15    15    16    1
    16    16    17    2
    17    18    17    1
    18    18    19    1
    19     4     5   ar
    20     5     6    1
    21     5     7   ar
    22    21    24    1
    23    24    25   ar
    24    25    26   ar
    25    26    27   ar
    26    27    28   ar
    27    28    29   ar
    28     7     1   ar
    29    29    24   ar
    30    13     8   am
    31    19    15    1
    32    18    11    1
    33    22    23    1
@<TRIPOS>MOLECULE
*****
 29 33 0 0 0
SMALL
GASTEIGER

@<TRIPOS>ATOM
      1 C           3.8015   -1.3448   27.5337 C.ar    1  UNL1        0.0515
      2 C           5.1090   -1.6844   28.1856 C.ar    1  UNL1        0.0160
      3 C           5.3446   -1.3296   29.6238 C.ar    1  UNL1        0.0174
      4 C           4.2725   -0.6351   30.4102 C.ar    1  UNL1        0.0712
      5 C           2.9650   -0.2954   29.7583 C.ar    1  UNL1        0.0729
      6 CL          1.8929    0.3991   30.5446 Cl      1  UNL1       -0.0809
      7 C           2.7295   -0.6503   28.3200 C.ar    1  UNL1        0.0273
      8 N           4.5079   -0.2802   31.8485 N.am    1  UNL1       -0.2073
      9 C           4.3028   -1.1874   33.0253 C.2     1  UNL1        0.2355
     10 O           3.8262   -2.6087   32.9704 O.2     1  UNL1       -0.2741
     11 C           4.6578   -0.4239   34.2666 C.3     1  UNL1        0.0903
     12 C           5.0824    0.9553   33.8569 C.3     1  UNL1        0.0903
     13 C           4.9897    1.0440   32.3624 C.2     1  UNL1        0.2355
     14 O           5.3208    2.2460   31.5284 O.2     1  UNL1       -0.2741
     15 C           5.4374    1.7188   35.0983 C.3     1  UNL1        0.0311
     16 C           5.5301    1.6301   36.5928 C.2     1  UNL1       -0.0305
     17 C           5.1055    0.2511   37.0024 C.2     1  UNL1       -0.0305
     18 C           4.7504   -0.5126   35.7611 C.3     1  UNL1        0.0311
     19 C           4.9556    0.3946   34.5843 C.3     1  UNL1        0.0096
     20 O           4.3803    0.6615   25.3796 O.2     1  UNL1       -0.2682
     21 C           3.8554   -0.6966   25.0183 C.2     1  UNL1        0.2672
     22 N           3.5660   -1.6996   26.0953 N.am    1  UNL1       -0.2791
     23 H           3.2215   -2.5909   25.8582 H       1  UNL1        0.1552
     24 C           3.6200   -1.0514   23.5801 C.ar    1  UNL1        0.1348
     25 C           4.3597   -2.1996   22.9600 C.ar    1  UNL1        0.0238
     26 C           4.1243   -2.5544   21.5217 C.ar    1  UNL1        0.0033
     27 C           3.1491   -1.7610   20.7035 C.ar    1  UNL1        0.0207
     28 C           2.4093   -0.6128   21.3236 C.ar    1  UNL1        0.0990
     29 N           2.6448   -0.2580   22.7618 N.ar    1  UNL1       -0.2392
@<TRIPOS>BOND
     1    20    21    2
     2    21    22   am
     3    22     1    1
     4     1     2   ar
     5     2     3   ar
     6     3     4   ar
     7     4     8    1
     8     8     9   am
     9     9    10    2
    10    11     9    1
    11    11    12    1
    12    12    13    1
    13    13    14    2
    14    12    15    1
    15    15    16    1
    16    16    17    2
    17    18    17    1
    18    18    19    1
    19     4     5   ar
    20     5     6    1
    21     5     7   ar
    22    21    24    1
    23    24    25   ar
    24    25    26   ar
    25    26    27   ar
    26    27    28   ar
    27    28    29   ar
    28     7     1   ar
    29    29    24   ar
    30    13     8   am
    31    19    15    1
    32    18    11    1
    33    22    23    1
