@<TRIPOS>MOLECULE
*****
 39 43 0 0 0
SMALL
GASTEIGER

@<TRIPOS>ATOM
      1 O           3.1951   -0.5225   29.7833 O.2     1  UNL1       -0.2726
      2 C           2.8545   -0.0366   28.4056 C.2     1  UNL1        0.2513
      3 C           3.9101   -0.0014   27.3405 C.3     1  UNL1        0.1278
      4 C           3.5697    0.4845   25.9628 C.2     1  UNL1        0.0321
      5 C           2.1735    0.9352   25.6502 C.ar    1  UNL1        0.0245
      6 C           1.8330    1.4211   24.2726 C.ar    1  UNL1       -0.0014
      7 C           0.4370    1.8718   23.9600 C.ar    1  UNL1       -0.0122
      8 C          -0.6187    1.8367   25.0251 C.ar    1  UNL1       -0.0022
      9 C          -0.2782    1.3508   26.4028 C.ar    1  UNL1        0.0163
     10 C           1.1179    0.9001   26.7153 C.ar    1  UNL1        0.0742
     11 N           1.4584    0.4142   28.0930 N.am    1  UNL1       -0.1789
     12 N           4.6253    0.5196   24.8977 N.pl3   1  UNL1       -0.3368
     13 H           5.3338    1.2025   24.9292 H       1  UNL1        0.1465
     14 C           4.6015   -0.4856   23.7847 C.3     1  UNL1        0.0716
     15 C           4.5655   -0.0241   22.3579 C.3     1  UNL1        0.0386
     16 C           4.5417   -1.0294   21.2449 C.3     1  UNL1        0.0974
     17 N           4.5539   -2.4962   21.5586 N.3     1  UNL1       -0.1520
     18 C           4.5898   -2.9577   22.9853 C.3     1  UNL1        0.0974
     19 C           4.6136   -1.9524   24.0985 C.3     1  UNL1        0.0386
     20 S           4.5301   -3.5014   20.4456 S.O2    1  UNL1        0.1302
     21 O           4.6779   -2.3953   19.4434 O.2     1  UNL1       -0.1495
     22 O           4.3823   -4.6076   21.4478 O.2     1  UNL1       -0.1495
     23 C           4.5063   -4.5068   19.3325 C.3     1  UNL1        0.5359
     24 F           3.4641   -5.2961   20.0679 F       1  UNL1       -0.1493
     25 F           5.5484   -3.7174   18.5972 F       1  UNL1       -0.1493
     26 F           4.4824   -5.5121   18.2196 F       1  UNL1       -0.1493
     27 C           0.0964    2.3577   22.5823 C.3     1  UNL1        0.0909
     28 C           0.8112    1.7939   21.3902 C.ar    1  UNL1       -0.0122
     29 C           1.8671    2.6029   20.6969 C.ar    1  UNL1       -0.0027
     30 C           2.5818    2.0390   19.5048 C.ar    1  UNL1        0.0111
     31 C           2.2407    0.6661   19.0059 C.ar    1  UNL1        0.0577
     32 CL          2.9554    0.1022   17.8138 Cl      1  UNL1       -0.0822
     33 C           1.1848   -0.1429   19.6992 C.ar    1  UNL1        0.0111
     34 C           0.4701    0.4210   20.8914 C.ar    1  UNL1       -0.0027
     35 C          -0.9588    3.4075   22.3968 C.ar    1  UNL1        0.0961
     36 N          -2.2917    3.2109   21.7374 N.ar    1  UNL1       -0.2405
     37 C          -3.0232    4.5201   21.7712 C.ar    1  UNL1        0.1061
     38 C          -2.1422    5.5257   22.4514 C.ar    1  UNL1        0.0572
     39 S          -0.8665    4.8381   22.8381 S.2     1  UNL1       -0.0696
@<TRIPOS>BOND
     1     1     2    2
     2     2     3    1
     3     3     4    1
     4     4    12    1
     5    12    14    1
     6    14    15    1
     7    15    16    1
     8    16    17    1
     9    17    20    1
    10    20    21    2
    11    20    22    2
    12    20    23    1
    13    23    24    1
    14    23    25    1
    15    23    26    1
    16    17    18    1
    17    18    19    1
    18     4     5    2
    19     5     6   ar
    20     6     7   ar
    21     7    27    1
    22    27    28    1
    23    28    29   ar
    24    29    30   ar
    25    30    31   ar
    26    31    32    1
    27    31    33   ar
    28    33    34   ar
    29    27    35    1
    30    35    36   ar
    31    36    37   ar
    32    37    38   ar
    33    38    39   ar
    34     7     8   ar
    35     8     9   ar
    36     9    10   ar
    37    10    11    2
    38    11     2    1
    39    19    14    1
    40    10     5   ar
    41    34    28   ar
    42    39    35   ar
    43    12    13    1
@<TRIPOS>MOLECULE
*****
 39 43 0 0 0
SMALL
GASTEIGER

@<TRIPOS>ATOM
      1 O           6.9787   -6.1912   32.0969 O.2     1  UNL1       -0.2726
      2 C           6.9090   -5.4612   30.7883 C.2     1  UNL1        0.2513
      3 C           6.6598   -3.9822   30.7669 C.3     1  UNL1        0.1278
      4 C           6.5901   -3.2523   29.4584 C.2     1  UNL1        0.0321
      5 C           6.7696   -4.0013   28.1712 C.ar    1  UNL1        0.0245
      6 C           6.6999   -3.2714   26.8627 C.ar    1  UNL1       -0.0014
      7 C           6.8793   -4.0204   25.5756 C.ar    1  UNL1       -0.0122
      8 C           7.1285   -5.4994   25.5970 C.ar    1  UNL1       -0.0022
      9 C           7.1982   -6.2294   26.9055 C.ar    1  UNL1        0.0163
     10 C           7.0187   -5.4803   28.1926 C.ar    1  UNL1        0.0742
     11 N           7.0884   -6.2103   29.5012 N.am    1  UNL1       -0.1789
     12 N           6.3409   -1.7733   29.4370 N.pl3   1  UNL1       -0.3368
     13 H           7.0871   -1.1463   29.5760 H       1  UNL1        0.1465
     14 C           4.9548   -1.2495   29.2038 C.3     1  UNL1        0.0716
     15 C           4.0497   -0.9781   30.3688 C.3     1  UNL1        0.0386
     16 C           2.6636   -0.4544   30.1356 C.3     1  UNL1        0.0974
     17 N           2.1826   -0.2020   28.7375 N.3     1  UNL1       -0.1520
     18 C           3.0876   -0.4734   27.5725 C.3     1  UNL1        0.0974
     19 C           4.4738   -0.9972   27.8056 C.3     1  UNL1        0.0386
     20 S           0.7965    0.3217   28.5043 S.O2    1  UNL1        0.1302
     21 O           1.2320    0.8870   27.1849 O.2     1  UNL1       -0.1495
     22 O           0.3610   -0.2435   29.8237 O.2     1  UNL1       -0.1495
     23 C          -0.5897    0.8455   28.2711 C.3     1  UNL1        0.5359
     24 F          -0.0586    2.2483   28.2651 F       1  UNL1       -0.1493
     25 F          -1.1208   -0.5573   28.2772 F       1  UNL1       -0.1493
     26 F          -1.9757    1.3693   28.0380 F       1  UNL1       -0.1493
     27 C           6.8096   -3.2905   24.2670 C.3     1  UNL1        0.0909
     28 C           5.9074   -2.1014   24.1186 C.ar    1  UNL1       -0.0122
     29 C           6.4567   -0.7166   24.2938 C.ar    1  UNL1       -0.0027
     30 C           5.5545    0.4725   24.1454 C.ar    1  UNL1        0.0111
     31 C           4.1029    0.2768   23.8219 C.ar    1  UNL1        0.0577
     32 CL          3.2006    1.4659   23.6736 Cl      1  UNL1       -0.0822
     33 C           3.5536   -1.1080   23.6468 C.ar    1  UNL1        0.0111
     34 C           4.4558   -2.2971   23.7951 C.ar    1  UNL1       -0.0027
     35 C           7.6422   -3.7496   23.1068 C.ar    1  UNL1        0.0961
     36 N           7.1405   -4.4771   21.8947 N.ar    1  UNL1       -0.2405
     37 C           8.3108   -4.7390   20.9938 C.ar    1  UNL1        0.1061
     38 C           9.5358   -4.1734   21.6491 C.ar    1  UNL1        0.0572
     39 S           9.1226   -3.5619   22.9550 S.2     1  UNL1       -0.0696
@<TRIPOS>BOND
     1     1     2    2
     2     2     3    1
     3     3     4    1
     4     4    12    1
     5    12    14    1
     6    14    15    1
     7    15    16    1
     8    16    17    1
     9    17    20    1
    10    20    21    2
    11    20    22    2
    12    20    23    1
    13    23    24    1
    14    23    25    1
    15    23    26    1
    16    17    18    1
    17    18    19    1
    18     4     5    2
    19     5     6   ar
    20     6     7   ar
    21     7    27    1
    22    27    28    1
    23    28    29   ar
    24    29    30   ar
    25    30    31   ar
    26    31    32    1
    27    31    33   ar
    28    33    34   ar
    29    27    35    1
    30    35    36   ar
    31    36    37   ar
    32    37    38   ar
    33    38    39   ar
    34     7     8   ar
    35     8     9   ar
    36     9    10   ar
    37    10    11    2
    38    11     2    1
    39    19    14    1
    40    10     5   ar
    41    34    28   ar
    42    39    35   ar
    43    12    13    1
@<TRIPOS>MOLECULE
*****
 39 43 0 0 0
SMALL
GASTEIGER

@<TRIPOS>ATOM
      1 O          -1.1788    2.0920   24.9683 O.2     1  UNL1       -0.2726
      2 C           0.0096    1.5610   25.7139 C.2     1  UNL1        0.2513
      3 C           1.3196    1.3802   25.0060 C.3     1  UNL1        0.1278
      4 C           2.5080    0.8493   25.7514 C.2     1  UNL1        0.0321
      5 C           2.3864    0.4990   27.2049 C.ar    1  UNL1        0.0245
      6 C           3.5748   -0.0320   27.9504 C.ar    1  UNL1       -0.0014
      7 C           3.4532   -0.3822   29.4038 C.ar    1  UNL1       -0.0122
      8 C           2.1431   -0.2015   30.1118 C.ar    1  UNL1       -0.0022
      9 C           0.9548    0.3295   29.3663 C.ar    1  UNL1        0.0163
     10 C           1.0764    0.6797   27.9129 C.ar    1  UNL1        0.0742
     11 N          -0.1120    1.2107   27.1673 N.am    1  UNL1       -0.1789
     12 N           3.8180    0.6685   25.0435 N.pl3   1  UNL1       -0.3368
     13 H           4.6009    1.2010   25.3133 H       1  UNL1        0.1465
     14 C           3.9352   -0.3234   23.9245 C.3     1  UNL1        0.0716
     15 C           3.6619    0.1030   22.5125 C.3     1  UNL1        0.0386
     16 C           3.7791   -0.8890   21.3935 C.3     1  UNL1        0.0974
     17 N           4.1696   -2.3074   21.6864 N.3     1  UNL1       -0.1520
     18 C           4.4429   -2.7338   23.0983 C.3     1  UNL1        0.0974
     19 C           4.3258   -1.7418   24.2174 C.3     1  UNL1        0.0386
     20 S           4.2868   -3.2993   20.5674 S.O2    1  UNL1        0.1302
     21 O           3.6678   -2.3098   19.6253 O.2     1  UNL1       -0.1495
     22 O           4.9059   -4.2889   21.5094 O.2     1  UNL1       -0.1495
     23 C           4.4041   -4.2914   19.4483 C.3     1  UNL1        0.5359
     24 F           5.8825   -4.3827   19.6842 F       1  UNL1       -0.1493
     25 F           2.9256   -4.2001   19.2124 F       1  UNL1       -0.1493
     26 F           4.5213   -5.2834   18.3294 F       1  UNL1       -0.1493
     27 C           4.6416   -0.9132   30.1494 C.3     1  UNL1        0.0909
     28 C           4.6913   -0.8197   31.6457 C.ar    1  UNL1       -0.0122
     29 C           4.2890   -1.9964   32.4845 C.ar    1  UNL1       -0.0027
     30 C           4.3387   -1.9029   33.9807 C.ar    1  UNL1        0.0111
     31 C           4.7908   -0.6326   34.6382 C.ar    1  UNL1        0.0577
     32 CL          4.8405   -0.5391   36.1344 Cl      1  UNL1       -0.0822
     33 C           5.1931    0.5440   33.7994 C.ar    1  UNL1        0.0111
     34 C           5.1433    0.4505   32.3031 C.ar    1  UNL1       -0.0027
     35 C           5.7802   -1.5377   29.3987 C.ar    1  UNL1        0.0961
     36 N           5.7174   -2.8014   28.5930 N.ar    1  UNL1       -0.2405
     37 C           7.0799   -3.0528   28.0182 C.ar    1  UNL1        0.1061
     38 C           7.9847   -1.9445   28.4688 C.ar    1  UNL1        0.0572
     39 S           7.1815   -1.0081   29.3219 S.2     1  UNL1       -0.0696
@<TRIPOS>BOND
     1     1     2    2
     2     2     3    1
     3     3     4    1
     4     4    12    1
     5    12    14    1
     6    14    15    1
     7    15    16    1
     8    16    17    1
     9    17    20    1
    10    20    21    2
    11    20    22    2
    12    20    23    1
    13    23    24    1
    14    23    25    1
    15    23    26    1
    16    17    18    1
    17    18    19    1
    18     4     5    2
    19     5     6   ar
    20     6     7   ar
    21     7    27    1
    22    27    28    1
    23    28    29   ar
    24    29    30   ar
    25    30    31   ar
    26    31    32    1
    27    31    33   ar
    28    33    34   ar
    29    27    35    1
    30    35    36   ar
    31    36    37   ar
    32    37    38   ar
    33    38    39   ar
    34     7     8   ar
    35     8     9   ar
    36     9    10   ar
    37    10    11    2
    38    11     2    1
    39    19    14    1
    40    10     5   ar
    41    34    28   ar
    42    39    35   ar
    43    12    13    1
@<TRIPOS>MOLECULE
*****
 39 43 0 0 0
SMALL
GASTEIGER

@<TRIPOS>ATOM
      1 O          -6.9557    4.8610   17.5045 O.2     1  UNL1       -0.2726
      2 C          -5.7274    4.4191   18.2436 C.2     1  UNL1        0.2513
      3 C          -5.8582    3.7022   19.5546 C.3     1  UNL1        0.1278
      4 C          -4.6300    3.2603   20.2937 C.2     1  UNL1        0.0321
      5 C          -3.2708    3.5355   19.7217 C.ar    1  UNL1        0.0245
      6 C          -2.0426    3.0936   20.4607 C.ar    1  UNL1       -0.0014
      7 C          -0.6836    3.3688   19.8887 C.ar    1  UNL1       -0.0122
      8 C          -0.5527    4.0857   18.5777 C.ar    1  UNL1       -0.0022
      9 C          -1.7809    4.5276   17.8386 C.ar    1  UNL1        0.0163
     10 C          -3.1400    4.2524   18.4106 C.ar    1  UNL1        0.0742
     11 N          -4.3683    4.6943   17.6716 N.am    1  UNL1       -0.1789
     12 N          -4.7608    2.5434   21.6047 N.pl3   1  UNL1       -0.3368
     13 H          -4.6346    1.5679   21.6470 H       1  UNL1        0.1465
     14 C          -5.0840    3.3126   22.8512 C.3     1  UNL1        0.0716
     15 C          -4.1106    3.3350   23.9923 C.3     1  UNL1        0.0386
     16 C          -4.4337    4.1042   25.2388 C.3     1  UNL1        0.0974
     17 N          -5.7302    4.8511   25.3443 N.3     1  UNL1       -0.1520
     18 C          -6.7037    4.8287   24.2033 C.3     1  UNL1        0.0974
     19 C          -6.3805    4.0595   22.9567 C.3     1  UNL1        0.0386
     20 S          -6.0534    5.6203   26.5908 S.O2    1  UNL1        0.1302
     21 O          -4.8613    5.0166   27.2724 O.2     1  UNL1       -0.1495
     22 O          -7.2454    6.2239   25.9093 O.2     1  UNL1       -0.1495
     23 C          -6.3766    6.3896   27.8374 C.3     1  UNL1        0.5359
     24 F          -7.8234    6.0227   27.6886 F       1  UNL1       -0.1493
     25 F          -4.9298    6.7564   27.9862 F       1  UNL1       -0.1493
     26 F          -6.6998    7.1588   29.0839 F       1  UNL1       -0.1493
     27 C           0.5447    2.9269   20.6278 C.3     1  UNL1        0.0909
     28 C           1.2962    1.7106   20.1739 C.ar    1  UNL1       -0.0122
     29 C           0.9700    0.3671   20.7559 C.ar    1  UNL1       -0.0027
     30 C           1.7215   -0.8492   20.3020 C.ar    1  UNL1        0.0111
     31 C           2.7990   -0.7220   19.2663 C.ar    1  UNL1        0.0577
     32 CL          3.5505   -1.9382   18.8124 Cl      1  UNL1       -0.0822
     33 C           3.1251    0.6216   18.6844 C.ar    1  UNL1        0.0111
     34 C           2.3737    1.8378   19.1383 C.ar    1  UNL1       -0.0027
     35 C           1.0215    3.7014   21.8206 C.ar    1  UNL1        0.0961
     36 N           1.7865    3.1450   22.9848 N.ar    1  UNL1       -0.2405
     37 C           2.0548    4.2679   23.9424 C.ar    1  UNL1        0.1061
     38 C           1.4556    5.5183   23.3700 C.ar    1  UNL1        0.0572
     39 S           0.8170    5.1681   22.0587 S.2     1  UNL1       -0.0696
@<TRIPOS>BOND
     1     1     2    2
     2     2     3    1
     3     3     4    1
     4     4    12    1
     5    12    14    1
     6    14    15    1
     7    15    16    1
     8    16    17    1
     9    17    20    1
    10    20    21    2
    11    20    22    2
    12    20    23    1
    13    23    24    1
    14    23    25    1
    15    23    26    1
    16    17    18    1
    17    18    19    1
    18     4     5    2
    19     5     6   ar
    20     6     7   ar
    21     7    27    1
    22    27    28    1
    23    28    29   ar
    24    29    30   ar
    25    30    31   ar
    26    31    32    1
    27    31    33   ar
    28    33    34   ar
    29    27    35    1
    30    35    36   ar
    31    36    37   ar
    32    37    38   ar
    33    38    39   ar
    34     7     8   ar
    35     8     9   ar
    36     9    10   ar
    37    10    11    2
    38    11     2    1
    39    19    14    1
    40    10     5   ar
    41    34    28   ar
    42    39    35   ar
    43    12    13    1
@<TRIPOS>MOLECULE
*****
 39 43 0 0 0
SMALL
GASTEIGER

@<TRIPOS>ATOM
      1 O           6.9263   -6.1653   31.5007 O.2     1  UNL1       -0.2726
      2 C           6.8568   -5.3137   30.2677 C.2     1  UNL1        0.2513
      3 C           6.5675   -3.8465   30.3849 C.3     1  UNL1        0.1278
      4 C           6.4980   -2.9950   29.1521 C.2     1  UNL1        0.0321
      5 C           6.7179   -3.6105   27.8020 C.ar    1  UNL1        0.0245
      6 C           6.6484   -2.7590   26.5691 C.ar    1  UNL1       -0.0014
      7 C           6.8683   -3.3745   25.2191 C.ar    1  UNL1       -0.0122
      8 C           7.1576   -4.8417   25.1019 C.ar    1  UNL1       -0.0022
      9 C           7.2271   -5.6933   26.3347 C.ar    1  UNL1        0.0163
     10 C           7.0072   -5.0777   27.6848 C.ar    1  UNL1        0.0742
     11 N           7.0767   -5.9293   28.9177 N.am    1  UNL1       -0.1789
     12 N           6.2087   -1.5278   29.2693 N.pl3   1  UNL1       -0.3368
     13 H           6.9359   -0.8978   29.4783 H       1  UNL1        0.1465
     14 C           4.8116   -1.0204   29.0682 C.3     1  UNL1        0.0716
     15 C           4.3637   -0.5759   27.7073 C.3     1  UNL1        0.0386
     16 C           2.9665   -0.0686   27.5062 C.3     1  UNL1        0.0974
     17 N           2.0172   -0.0057   28.6658 N.3     1  UNL1       -0.1520
     18 C           2.4650   -0.4502   30.0266 C.3     1  UNL1        0.0974
     19 C           3.8622   -0.9576   30.2278 C.3     1  UNL1        0.0386
     20 S           0.6200    0.5016   28.4647 S.O2    1  UNL1        0.1302
     21 O           0.2505    0.0289   29.8394 O.2     1  UNL1       -0.1495
     22 O           0.9896    0.9743   27.0899 O.2     1  UNL1       -0.1495
     23 C          -0.7772    1.0090   28.2635 C.3     1  UNL1        0.5359
     24 F          -1.2540    0.1432   29.3917 F       1  UNL1       -0.1493
     25 F          -0.3003    1.8748   27.1352 F       1  UNL1       -0.1493
     26 F          -2.1743    1.5164   28.0623 F       1  UNL1       -0.1493
     27 C           6.7988   -2.5230   23.9861 C.3     1  UNL1        0.0909
     28 C           6.2200   -3.0819   22.7202 C.ar    1  UNL1       -0.0122
     29 C           7.0905   -3.2579   21.5113 C.ar    1  UNL1       -0.0027
     30 C           6.5117   -3.8168   20.2453 C.ar    1  UNL1        0.0111
     31 C           5.0625   -4.1999   20.1884 C.ar    1  UNL1        0.0577
     32 CL          4.4837   -4.7588   18.9224 Cl      1  UNL1       -0.0822
     33 C           4.1921   -4.0239   21.3973 C.ar    1  UNL1        0.0111
     34 C           4.7709   -3.4649   22.6632 C.ar    1  UNL1       -0.0027
     35 C           7.3081   -1.1125   24.0192 C.ar    1  UNL1        0.0961
     36 N           6.4661    0.1288   24.0377 N.ar    1  UNL1       -0.2405
     37 C           7.3865    1.3128   24.0694 C.ar    1  UNL1        0.1061
     38 C           8.7973    0.8033   24.0705 C.ar    1  UNL1        0.0572
     39 S           8.7489   -0.6956   24.0395 S.2     1  UNL1       -0.0696
@<TRIPOS>BOND
     1     1     2    2
     2     2     3    1
     3     3     4    1
     4     4    12    1
     5    12    14    1
     6    14    15    1
     7    15    16    1
     8    16    17    1
     9    17    20    1
    10    20    21    2
    11    20    22    2
    12    20    23    1
    13    23    24    1
    14    23    25    1
    15    23    26    1
    16    17    18    1
    17    18    19    1
    18     4     5    2
    19     5     6   ar
    20     6     7   ar
    21     7    27    1
    22    27    28    1
    23    28    29   ar
    24    29    30   ar
    25    30    31   ar
    26    31    32    1
    27    31    33   ar
    28    33    34   ar
    29    27    35    1
    30    35    36   ar
    31    36    37   ar
    32    37    38   ar
    33    38    39   ar
    34     7     8   ar
    35     8     9   ar
    36     9    10   ar
    37    10    11    2
    38    11     2    1
    39    19    14    1
    40    10     5   ar
    41    34    28   ar
    42    39    35   ar
    43    12    13    1
@<TRIPOS>MOLECULE
*****
 39 43 0 0 0
SMALL
GASTEIGER

@<TRIPOS>ATOM
      1 O           9.0432   -7.7076   27.4723 O.2     1  UNL1       -0.2726
      2 C           8.4327   -6.4768   28.0746 C.2     1  UNL1        0.2513
      3 C           8.2334   -5.2504   27.2343 C.3     1  UNL1        0.1278
      4 C           7.6229   -4.0197   27.8366 C.2     1  UNL1        0.0321
      5 C           7.2118   -4.0155   29.2792 C.ar    1  UNL1        0.0245
      6 C           6.6014   -2.7848   29.8814 C.ar    1  UNL1       -0.0014
      7 C           6.1903   -2.7806   31.3240 C.ar    1  UNL1       -0.0122
      8 C           6.3897   -4.0070   32.1643 C.ar    1  UNL1       -0.0022
      9 C           7.0001   -5.2377   31.5620 C.ar    1  UNL1        0.0163
     10 C           7.4112   -5.2419   30.1195 C.ar    1  UNL1        0.0742
     11 N           8.0217   -6.4726   29.5171 N.am    1  UNL1       -0.1789
     12 N           7.4235   -2.7933   26.9963 N.pl3   1  UNL1       -0.3368
     13 H           7.7495   -1.9204   27.3143 H       1  UNL1        0.1465
     14 C           6.7276   -2.8967   25.6716 C.3     1  UNL1        0.0716
     15 C           7.2904   -3.7772   24.5954 C.3     1  UNL1        0.0386
     16 C           6.5944   -3.8806   23.2707 C.3     1  UNL1        0.0974
     17 N           5.3356   -3.1037   23.0221 N.3     1  UNL1       -0.1520
     18 C           4.7728   -2.2232   24.0982 C.3     1  UNL1        0.0974
     19 C           5.4688   -2.1197   25.4230 C.3     1  UNL1        0.0386
     20 S           4.6397   -3.2071   21.6974 S.O2    1  UNL1        0.1302
     21 O           3.7080   -2.1029   22.1007 O.2     1  UNL1       -0.1495
     22 O           5.5714   -4.3113   21.2941 O.2     1  UNL1       -0.1495
     23 C           3.9437   -3.3106   20.3726 C.3     1  UNL1        0.5359
     24 F           3.1822   -2.0541   20.6746 F       1  UNL1       -0.1493
     25 F           4.7052   -4.5671   20.0707 F       1  UNL1       -0.1493
     26 F           3.2477   -3.4141   19.0479 F       1  UNL1       -0.1493
     27 C           5.5798   -1.5499   31.9263 C.3     1  UNL1        0.0909
     28 C           6.0658   -1.0435   33.2520 C.ar    1  UNL1       -0.0122
     29 C           7.4963   -0.6225   33.4154 C.ar    1  UNL1       -0.0027
     30 C           7.9823   -0.1161   34.7410 C.ar    1  UNL1        0.0111
     31 C           7.0378   -0.0307   35.9033 C.ar    1  UNL1        0.0577
     32 CL          7.5238    0.4757   37.2289 Cl      1  UNL1       -0.0822
     33 C           5.6074   -0.4516   35.7398 C.ar    1  UNL1        0.0111
     34 C           5.1214   -0.9580   34.4142 C.ar    1  UNL1       -0.0027
     35 C           4.4834   -0.8256   31.2030 C.ar    1  UNL1        0.0961
     36 N           3.0167   -1.1258   31.2971 N.ar    1  UNL1       -0.2405
     37 C           2.2880   -0.1597   30.4109 C.ar    1  UNL1        0.1061
     38 C           3.3043    0.7376   29.7689 C.ar    1  UNL1        0.0572
     39 S           4.6611    0.3261   30.2585 S.2     1  UNL1       -0.0696
@<TRIPOS>BOND
     1     1     2    2
     2     2     3    1
     3     3     4    1
     4     4    12    1
     5    12    14    1
     6    14    15    1
     7    15    16    1
     8    16    17    1
     9    17    20    1
    10    20    21    2
    11    20    22    2
    12    20    23    1
    13    23    24    1
    14    23    25    1
    15    23    26    1
    16    17    18    1
    17    18    19    1
    18     4     5    2
    19     5     6   ar
    20     6     7   ar
    21     7    27    1
    22    27    28    1
    23    28    29   ar
    24    29    30   ar
    25    30    31   ar
    26    31    32    1
    27    31    33   ar
    28    33    34   ar
    29    27    35    1
    30    35    36   ar
    31    36    37   ar
    32    37    38   ar
    33    38    39   ar
    34     7     8   ar
    35     8     9   ar
    36     9    10   ar
    37    10    11    2
    38    11     2    1
    39    19    14    1
    40    10     5   ar
    41    34    28   ar
    42    39    35   ar
    43    12    13    1
@<TRIPOS>MOLECULE
*****
 39 43 0 0 0
SMALL
GASTEIGER

@<TRIPOS>ATOM
      1 O           9.5360   -8.7318   27.0037 O.2     1  UNL1       -0.2726
      2 C           8.9612   -7.3980   27.3791 C.2     1  UNL1        0.2513
      3 C           9.0243   -6.2546   26.4103 C.3     1  UNL1        0.1278
      4 C           8.4496   -4.9209   26.7857 C.2     1  UNL1        0.0321
      5 C           7.8117   -4.7306   28.1299 C.ar    1  UNL1        0.0245
      6 C           7.2369   -3.3970   28.5053 C.ar    1  UNL1       -0.0014
      7 C           6.5991   -3.2067   29.8495 C.ar    1  UNL1       -0.0122
      8 C           6.5359   -4.3502   30.8183 C.ar    1  UNL1       -0.0022
      9 C           7.1107   -5.6838   30.4429 C.ar    1  UNL1        0.0163
     10 C           7.7485   -5.8741   29.0987 C.ar    1  UNL1        0.0742
     11 N           8.3233   -7.2078   28.7233 N.am    1  UNL1       -0.1789
     12 N           8.5127   -3.7775   25.8169 N.pl3   1  UNL1       -0.3368
     13 H           9.1482   -3.0405   25.9660 H       1  UNL1        0.1465
     14 C           7.6076   -3.7570   24.6209 C.3     1  UNL1        0.0716
     15 C           8.1419   -4.1290   23.2695 C.3     1  UNL1        0.0386
     16 C           7.2368   -4.1085   22.0736 C.3     1  UNL1        0.0974
     17 N           5.7974   -3.7159   22.2289 N.3     1  UNL1       -0.1520
     18 C           5.2632   -3.3438   23.5803 C.3     1  UNL1        0.0974
     19 C           6.1683   -3.3644   24.7763 C.3     1  UNL1        0.0386
     20 S           4.8923   -3.6953   21.0330 S.O2    1  UNL1        0.1302
     21 O           5.7970   -4.6646   20.3316 O.2     1  UNL1       -0.1495
     22 O           3.9876   -2.7261   21.7344 O.2     1  UNL1       -0.1495
     23 C           3.9871   -3.6747   19.8370 C.3     1  UNL1        0.5359
     24 F           3.9631   -5.1745   19.8295 F       1  UNL1       -0.1493
     25 F           4.0112   -2.1750   19.8445 F       1  UNL1       -0.1493
     26 F           3.0820   -3.6542   18.6411 F       1  UNL1       -0.1493
     27 C           6.0243   -1.8730   30.2249 C.3     1  UNL1        0.0909
     28 C           5.7827   -1.5397   31.6673 C.ar    1  UNL1       -0.0122
     29 C           6.7982   -0.7451   32.4338 C.ar    1  UNL1       -0.0027
     30 C           6.5566   -0.4117   33.8762 C.ar    1  UNL1        0.0111
     31 C           5.2994   -0.8730   34.5521 C.ar    1  UNL1        0.0577
     32 CL          5.0578   -0.5396   35.9945 Cl      1  UNL1       -0.0822
     33 C           4.2839   -1.6675   33.7857 C.ar    1  UNL1        0.0111
     34 C           4.5256   -2.0008   32.3433 C.ar    1  UNL1       -0.0027
     35 C           5.6912   -0.8727   29.1580 C.ar    1  UNL1        0.0961
     36 N           6.5792    0.2392   28.6836 N.ar    1  UNL1       -0.2405
     37 C           5.8484    0.9905   27.6105 C.ar    1  UNL1        0.1061
     38 C           4.5086    0.3428   27.4217 C.ar    1  UNL1        0.0572
     39 S           4.4115   -0.8087   28.3781 S.2     1  UNL1       -0.0696
@<TRIPOS>BOND
     1     1     2    2
     2     2     3    1
     3     3     4    1
     4     4    12    1
     5    12    14    1
     6    14    15    1
     7    15    16    1
     8    16    17    1
     9    17    20    1
    10    20    21    2
    11    20    22    2
    12    20    23    1
    13    23    24    1
    14    23    25    1
    15    23    26    1
    16    17    18    1
    17    18    19    1
    18     4     5    2
    19     5     6   ar
    20     6     7   ar
    21     7    27    1
    22    27    28    1
    23    28    29   ar
    24    29    30   ar
    25    30    31   ar
    26    31    32    1
    27    31    33   ar
    28    33    34   ar
    29    27    35    1
    30    35    36   ar
    31    36    37   ar
    32    37    38   ar
    33    38    39   ar
    34     7     8   ar
    35     8     9   ar
    36     9    10   ar
    37    10    11    2
    38    11     2    1
    39    19    14    1
    40    10     5   ar
    41    34    28   ar
    42    39    35   ar
    43    12    13    1
@<TRIPOS>MOLECULE
*****
 39 43 0 0 0
SMALL
GASTEIGER

@<TRIPOS>ATOM
      1 O          -5.5713    3.2061   18.8772 O.2     1  UNL1       -0.2726
      2 C          -4.7240    3.3923   20.1009 C.2     1  UNL1        0.2513
      3 C          -3.2529    3.6507   19.9623 C.3     1  UNL1        0.1278
      4 C          -2.4055    3.8369   21.1859 C.2     1  UNL1        0.0321
      5 C          -3.0292    3.7646   22.5483 C.ar    1  UNL1        0.0245
      6 C          -2.1819    3.9508   23.7719 C.ar    1  UNL1       -0.0014
      7 C          -2.8056    3.8785   25.1341 C.ar    1  UNL1       -0.0122
      8 C          -4.2766    3.6201   25.2727 C.ar    1  UNL1       -0.0022
      9 C          -5.1240    3.4339   24.0491 C.ar    1  UNL1        0.0163
     10 C          -4.5003    3.5062   22.6869 C.ar    1  UNL1        0.0742
     11 N          -5.3476    3.3200   21.4632 N.am    1  UNL1       -0.1789
     12 N          -0.9345    4.0953   21.0473 N.pl3   1  UNL1       -0.3368
     13 H          -0.5619    4.9696   21.3045 H       1  UNL1        0.1465
     14 C          -0.0311    3.0218   20.5169 C.3     1  UNL1        0.0716
     15 C          -0.0337    1.6604   21.1468 C.3     1  UNL1        0.0386
     16 C           0.8697    0.5869   20.6163 C.3     1  UNL1        0.0974
     17 N           1.7757    0.8747   19.4560 N.3     1  UNL1       -0.1520
     18 C           1.7783    2.2359   18.8261 C.3     1  UNL1        0.0974
     19 C           0.8749    3.3096   19.3565 C.3     1  UNL1        0.0386
     20 S           2.6790   -0.1989   18.9256 S.O2    1  UNL1        0.1302
     21 O           2.0175   -1.2001   19.8255 O.2     1  UNL1       -0.1495
     22 O           3.3405    0.8024   18.0257 O.2     1  UNL1       -0.1495
     23 C           3.5825   -1.2724   18.3951 C.3     1  UNL1        0.5359
     24 F           3.4959   -0.6682   17.0250 F       1  UNL1       -0.1493
     25 F           3.6691   -1.8767   19.7652 F       1  UNL1       -0.1493
     26 F           4.4859   -2.3459   17.8646 F       1  UNL1       -0.1493
     27 C          -1.9582    4.0647   26.3578 C.3     1  UNL1        0.0909
     28 C          -0.9404    3.0277   26.7301 C.ar    1  UNL1       -0.0122
     29 C           0.4713    3.1517   26.2381 C.ar    1  UNL1       -0.0027
     30 C           1.4891    2.1147   26.6104 C.ar    1  UNL1        0.0111
     31 C           1.0953    0.9537   27.4747 C.ar    1  UNL1        0.0577
     32 CL          2.1131   -0.0834   27.8470 Cl      1  UNL1       -0.0822
     33 C          -0.3163    0.8297   27.9667 C.ar    1  UNL1        0.0111
     34 C          -1.3341    1.8667   27.5944 C.ar    1  UNL1       -0.0027
     35 C          -2.1287    5.2879   27.2091 C.ar    1  UNL1        0.0961
     36 N          -3.4208    5.7907   27.7814 N.ar    1  UNL1       -0.2405
     37 C          -3.1277    7.0366   28.5636 C.ar    1  UNL1        0.1061
     38 C          -1.6543    7.3037   28.4748 C.ar    1  UNL1        0.0572
     39 S          -1.0369    6.2229   27.6377 S.2     1  UNL1       -0.0696
@<TRIPOS>BOND
     1     1     2    2
     2     2     3    1
     3     3     4    1
     4     4    12    1
     5    12    14    1
     6    14    15    1
     7    15    16    1
     8    16    17    1
     9    17    20    1
    10    20    21    2
    11    20    22    2
    12    20    23    1
    13    23    24    1
    14    23    25    1
    15    23    26    1
    16    17    18    1
    17    18    19    1
    18     4     5    2
    19     5     6   ar
    20     6     7   ar
    21     7    27    1
    22    27    28    1
    23    28    29   ar
    24    29    30   ar
    25    30    31   ar
    26    31    32    1
    27    31    33   ar
    28    33    34   ar
    29    27    35    1
    30    35    36   ar
    31    36    37   ar
    32    37    38   ar
    33    38    39   ar
    34     7     8   ar
    35     8     9   ar
    36     9    10   ar
    37    10    11    2
    38    11     2    1
    39    19    14    1
    40    10     5   ar
    41    34    28   ar
    42    39    35   ar
    43    12    13    1
@<TRIPOS>MOLECULE
*****
 39 43 0 0 0
SMALL
GASTEIGER

@<TRIPOS>ATOM
      1 O          -1.9340    5.7244   19.2164 O.2     1  UNL1       -0.2726
      2 C          -1.2995    4.7514   20.1655 C.2     1  UNL1        0.2513
      3 C          -1.1987    3.3010   19.7965 C.3     1  UNL1        0.1278
      4 C          -0.5642    2.3280   20.7455 C.2     1  UNL1        0.0321
      5 C          -0.0305    2.8054   22.0636 C.ar    1  UNL1        0.0245
      6 C           0.6040    1.8324   23.0126 C.ar    1  UNL1       -0.0014
      7 C           1.1378    2.3098   24.3306 C.ar    1  UNL1       -0.0122
      8 C           1.0370    3.7602   24.6996 C.ar    1  UNL1       -0.0022
      9 C           0.4026    4.7332   23.7506 C.ar    1  UNL1        0.0163
     10 C          -0.1312    4.2558   22.4326 C.ar    1  UNL1        0.0742
     11 N          -0.7657    5.2288   21.4835 N.am    1  UNL1       -0.1789
     12 N          -0.4635    0.8775   20.3766 N.pl3   1  UNL1       -0.3368
     13 H          -1.2550    0.2961   20.4452 H       1  UNL1        0.1465
     14 C           0.8431    0.3131   19.9031 C.3     1  UNL1        0.0716
     15 C           1.5736   -0.6930   20.7423 C.3     1  UNL1        0.0386
     16 C           2.8801   -1.2575   20.2688 C.3     1  UNL1        0.0974
     17 N           3.4563   -0.8158   18.9561 N.3     1  UNL1       -0.1520
     18 C           2.7259    0.1903   18.1170 C.3     1  UNL1        0.0974
     19 C           1.4192    0.7548   18.5905 C.3     1  UNL1        0.0386
     20 S           4.7629   -1.3803   18.4826 S.O2    1  UNL1        0.1302
     21 O           5.2440   -1.4567   19.9013 O.2     1  UNL1       -0.1495
     22 O           4.2817   -1.3039   17.0640 O.2     1  UNL1       -0.1495
     23 C           6.0695   -1.9447   18.0091 C.3     1  UNL1        0.5359
     24 F           5.4527   -3.3100   17.9348 F       1  UNL1       -0.1493
     25 F           6.6863   -0.5795   18.0834 F       1  UNL1       -0.1493
     26 F           7.3760   -2.5092   17.5355 F       1  UNL1       -0.1493
     27 C           1.7723    1.3368   25.2797 C.3     1  UNL1        0.0909
     28 C           3.0539    0.6524   24.9066 C.ar    1  UNL1       -0.0122
     29 C           4.3684    1.3227   25.1770 C.ar    1  UNL1       -0.0027
     30 C           5.6499    0.6383   24.8039 C.ar    1  UNL1        0.0111
     31 C           5.6170   -0.7163   24.1604 C.ar    1  UNL1        0.0577
     32 CL          6.8986   -1.4007   23.7873 Cl      1  UNL1       -0.0822
     33 C           4.3026   -1.3865   23.8901 C.ar    1  UNL1        0.0111
     34 C           3.0210   -0.7021   24.2632 C.ar    1  UNL1       -0.0027
     35 C           1.1253    1.0483   26.6018 C.ar    1  UNL1        0.0961
     36 N          -0.3393    1.1534   26.9083 N.ar    1  UNL1       -0.2405
     37 C          -0.5405    0.7740   28.3455 C.ar    1  UNL1        0.1061
     38 C           0.7997    0.4343   28.9273 C.ar    1  UNL1        0.0572
     39 S           1.8292    0.6038   27.8496 S.2     1  UNL1       -0.0696
@<TRIPOS>BOND
     1     1     2    2
     2     2     3    1
     3     3     4    1
     4     4    12    1
     5    12    14    1
     6    14    15    1
     7    15    16    1
     8    16    17    1
     9    17    20    1
    10    20    21    2
    11    20    22    2
    12    20    23    1
    13    23    24    1
    14    23    25    1
    15    23    26    1
    16    17    18    1
    17    18    19    1
    18     4     5    2
    19     5     6   ar
    20     6     7   ar
    21     7    27    1
    22    27    28    1
    23    28    29   ar
    24    29    30   ar
    25    30    31   ar
    26    31    32    1
    27    31    33   ar
    28    33    34   ar
    29    27    35    1
    30    35    36   ar
    31    36    37   ar
    32    37    38   ar
    33    38    39   ar
    34     7     8   ar
    35     8     9   ar
    36     9    10   ar
    37    10    11    2
    38    11     2    1
    39    19    14    1
    40    10     5   ar
    41    34    28   ar
    42    39    35   ar
    43    12    13    1
