@<TRIPOS>MOLECULE
*****
 43 49 0 0 0
SMALL
GASTEIGER

@<TRIPOS>ATOM
      1 N           3.1375    0.3139   31.5075 N.am    1  UNL1       -0.2222
      2 C           2.4612    0.4223   30.1729 C.2     1  UNL1        0.3219
      3 O           2.7589   -0.4131   28.9632 O.2     1  UNL1       -0.2512
      4 N           1.4350    1.5129   30.2606 N.am    1  UNL1       -0.1907
      5 C           1.4770    2.0784   31.6493 C.2     1  UNL1        0.2529
      6 O           0.6177    3.1897   32.1751 O.2     1  UNL1       -0.2724
      7 C           2.5292    1.3374   32.4200 C.3     1  UNL1        0.1391
      8 C           3.6068    0.5132   33.0599 C.3     1  UNL1        0.0449
      9 C           3.9843    0.7535   34.4915 C.3     1  UNL1        0.0746
     10 N           3.2844    1.8180   35.2832 N.3     1  UNL1       -0.2676
     11 C           2.2069    2.6423   34.6433 C.3     1  UNL1        0.0746
     12 C           1.8293    2.4019   33.2117 C.3     1  UNL1        0.0449
     13 C           6.7506   -1.2780   31.9091 C.ar    1  UNL1        0.2293
     14 C           5.6579   -0.3152   31.5500 C.ar    1  UNL1        0.0924
     15 C           4.2302   -0.6490   31.8666 C.ar    1  UNL1        0.1453
     16 N           3.8952   -1.9456   32.5422 N.ar    1  UNL1       -0.2084
     17 C           4.9878   -2.9085   32.9013 C.ar    1  UNL1        0.2027
     18 N           6.4156   -2.5747   32.5847 N.ar    1  UNL1       -0.1892
     19 C           9.1020   -2.0100   31.0815 C.3     1  UNL1        0.2542
     20 O           8.1783   -0.9443   31.5926 O.3     1  UNL1       -0.4560
     21 C           0.5263    1.9594   29.1539 C.ar    1  UNL1        0.0622
     22 C          -0.4487    0.9937   28.5483 C.ar    1  UNL1        0.0154
     23 C          -1.3574    1.4403   27.4416 C.ar    1  UNL1        0.0010
     24 C          -1.2911    2.8526   26.9405 C.ar    1  UNL1       -0.0035
     25 C          -0.3161    3.8183   27.5461 C.ar    1  UNL1        0.0010
     26 C           0.5926    3.3717   28.6529 C.ar    1  UNL1        0.0154
     27 C          -2.1998    3.2991   25.8337 C.2     1  UNL1       -0.0161
     28 C          -1.6873    3.3722   24.4259 C.2     1  UNL1       -0.0038
     29 C          -2.5960    3.8188   23.3192 C.2     1  UNL1        0.0025
     30 C          -4.0172    4.1923   23.6204 C.2     1  UNL1        0.0366
     31 C          -5.1381    4.6651   22.7429 C.2     1  UNL1        0.1233
     32 N          -6.3435    4.8843   23.6085 N.2     1  UNL1       -0.1467
     33 N          -5.9675    4.5469   25.0208 N.2     1  UNL1       -0.1520
     34 C          -4.5297    4.1191   25.0282 C.2     1  UNL1        0.0864
     35 C          -3.6211    3.6726   26.1349 C.3     1  UNL1        0.0739
     36 C           3.6621    2.0583   36.7149 C.3     1  UNL1        0.1183
     37 C           2.6533    1.8402   37.8034 C.ar    1  UNL1        0.0712
     38 N           2.5239    0.4914   38.4467 N.ar    1  UNL1       -0.2471
     39 C           1.5151    0.2733   39.5353 C.ar    1  UNL1        0.0985
     40 C           0.6358    1.4040   39.9804 C.ar    1  UNL1        0.0203
     41 C           0.7652    2.7529   39.3371 C.ar    1  UNL1       -0.0015
     42 C           1.7739    2.9710   38.2486 C.ar    1  UNL1       -0.0069
     43 C           1.9034    4.3198   37.6053 C.3     1  UNL1        0.0323
@<TRIPOS>BOND
     1    19    20    1
     2    20    13    1
     3    13    14   ar
     4    14    15   ar
     5    15     1    1
     6     1     2   am
     7     2     3    2
     8     2     4   am
     9     4    21    1
    10    21    22   ar
    11    22    23   ar
    12    23    24   ar
    13    24    27    1
    14    27    28    2
    15    28    29    1
    16    29    30    2
    17    30    31    1
    18    31    32    2
    19    32    33    1
    20    33    34    2
    21    34    35    1
    22    24    25   ar
    23    25    26   ar
    24     4     5   am
    25     5     6    2
    26     5     7    1
    27     7     8    1
    28     8     9    1
    29     9    10    1
    30    10    36    1
    31    36    37    1
    32    37    38   ar
    33    38    39   ar
    34    39    40   ar
    35    40    41   ar
    36    41    42   ar
    37    42    43    1
    38    10    11    1
    39    11    12    1
    40    15    16   ar
    41    16    17   ar
    42    17    18   ar
    43    18    13   ar
    44     7     1    1
    45    42    37   ar
    46    26    21   ar
    47    12     7    1
    48    35    27    1
    49    34    30    1
@<TRIPOS>MOLECULE
*****
 43 49 0 0 0
SMALL
GASTEIGER

@<TRIPOS>ATOM
      1 N           2.8957    0.8895   31.4918 N.am    1  UNL1       -0.2222
      2 C           2.3402    0.8525   30.0989 C.2     1  UNL1        0.3219
      3 O           2.7368   -0.1076   29.0168 O.2     1  UNL1       -0.2512
      4 N           1.3185    1.9441   29.9782 N.am    1  UNL1       -0.1907
      5 C           1.2426    2.6558   31.2964 C.2     1  UNL1        0.2529
      6 O           0.3489    3.8156   31.6221 O.2     1  UNL1       -0.2724
      7 C           2.2174    2.0040   32.2319 C.3     1  UNL1        0.1391
      8 C           3.2282    1.2555   33.0491 C.3     1  UNL1        0.0449
      9 C           3.4803    1.6491   34.4744 C.3     1  UNL1        0.0746
     10 N           2.7216    2.7912   35.0825 N.3     1  UNL1       -0.2676
     11 C           1.7107    3.5398   34.2653 C.3     1  UNL1        0.0746
     12 C           1.4586    3.1462   32.8401 C.3     1  UNL1        0.0449
     13 C           6.4453   -0.5775   32.4910 C.ar    1  UNL1        0.2293
     14 C           5.3957    0.3391   31.9358 C.ar    1  UNL1        0.0924
     15 C           3.9453   -0.0270   32.0471 C.ar    1  UNL1        0.1453
     16 N           3.5446   -1.3096   32.7136 N.ar    1  UNL1       -0.2084
     17 C           4.5940   -2.2262   33.2689 C.ar    1  UNL1        0.2027
     18 N           6.0445   -1.8601   33.1576 N.ar    1  UNL1       -0.1892
     19 C           8.9520   -1.2243   32.7087 C.3     1  UNL1        0.2542
     20 O           7.8956   -0.2115   32.3798 O.3     1  UNL1       -0.4560
     21 C           0.5140    2.2673   28.7542 C.ar    1  UNL1        0.0622
     22 C           0.3852    3.6896   28.2953 C.ar    1  UNL1        0.0154
     23 C          -0.4193    4.0128   27.0713 C.ar    1  UNL1        0.0010
     24 C          -1.0950    2.9137   26.3061 C.ar    1  UNL1       -0.0035
     25 C          -0.9662    1.4914   26.7649 C.ar    1  UNL1        0.0010
     26 C          -0.1616    1.1683   27.9890 C.ar    1  UNL1        0.0154
     27 C          -1.8995    3.2369   25.0820 C.2     1  UNL1       -0.0161
     28 C          -1.2214    3.3601   23.7497 C.2     1  UNL1       -0.0038
     29 C          -2.0259    3.6833   22.5257 C.2     1  UNL1        0.0025
     30 C          -3.5086    3.8833   22.6340 C.2     1  UNL1        0.0366
     31 C          -4.5548    4.2086   21.6095 C.2     1  UNL1        0.1233
     32 N          -5.8797    4.2866   22.3087 N.2     1  UNL1       -0.1467
     33 N          -5.6522    4.0094   23.7652 N.2     1  UNL1       -0.1520
     34 C          -4.1867    3.7601   23.9663 C.2     1  UNL1        0.0864
     35 C          -3.3823    3.4369   25.1903 C.3     1  UNL1        0.0739
     36 C           2.9737    3.1848   36.5079 C.3     1  UNL1        0.1183
     37 C           2.2277    2.5043   37.6170 C.ar    1  UNL1        0.0712
     38 N           0.9406    3.0858   38.1224 N.ar    1  UNL1       -0.2471
     39 C           0.1946    2.4052   39.2316 C.ar    1  UNL1        0.0985
     40 C           0.7356    1.1433   39.8355 C.ar    1  UNL1        0.0203
     41 C           2.0227    0.5618   39.3302 C.ar    1  UNL1       -0.0015
     42 C           2.7688    1.2423   38.2210 C.ar    1  UNL1       -0.0069
     43 C           4.0558    0.6609   37.7157 C.3     1  UNL1        0.0323
@<TRIPOS>BOND
     1    19    20    1
     2    20    13    1
     3    13    14   ar
     4    14    15   ar
     5    15     1    1
     6     1     2   am
     7     2     3    2
     8     2     4   am
     9     4    21    1
    10    21    22   ar
    11    22    23   ar
    12    23    24   ar
    13    24    27    1
    14    27    28    2
    15    28    29    1
    16    29    30    2
    17    30    31    1
    18    31    32    2
    19    32    33    1
    20    33    34    2
    21    34    35    1
    22    24    25   ar
    23    25    26   ar
    24     4     5   am
    25     5     6    2
    26     5     7    1
    27     7     8    1
    28     8     9    1
    29     9    10    1
    30    10    36    1
    31    36    37    1
    32    37    38   ar
    33    38    39   ar
    34    39    40   ar
    35    40    41   ar
    36    41    42   ar
    37    42    43    1
    38    10    11    1
    39    11    12    1
    40    15    16   ar
    41    16    17   ar
    42    17    18   ar
    43    18    13   ar
    44     7     1    1
    45    42    37   ar
    46    26    21   ar
    47    12     7    1
    48    35    27    1
    49    34    30    1
@<TRIPOS>MOLECULE
*****
 43 49 0 0 0
SMALL
GASTEIGER

@<TRIPOS>ATOM
      1 N           2.8652    0.8820   31.4777 N.am    1  UNL1       -0.2222
      2 C           2.2974    0.8531   30.0896 C.2     1  UNL1        0.3219
      3 O           2.6882   -0.0972   28.9968 O.2     1  UNL1       -0.2512
      4 N           1.2701    1.9412   29.9862 N.am    1  UNL1       -0.1907
      5 C           1.2030    2.6427   31.3104 C.2     1  UNL1        0.2529
      6 O           0.3074    3.7962   31.6528 O.2     1  UNL1       -0.2724
      7 C           2.1889    1.9881   32.2322 C.3     1  UNL1        0.1391
      8 C           3.2102    1.2378   33.0347 C.3     1  UNL1        0.0449
      9 C           3.4735    1.6218   34.4606 C.3     1  UNL1        0.0746
     10 N           2.7155    2.7562   35.0840 N.3     1  UNL1       -0.2676
     11 C           1.6942    3.5065   34.2815 C.3     1  UNL1        0.0746
     12 C           1.4309    3.1225   32.8557 C.3     1  UNL1        0.0449
     13 C           6.4278   -0.5618   32.4641 C.ar    1  UNL1        0.2293
     14 C           5.3695    0.3544   31.9252 C.ar    1  UNL1        0.0924
     15 C           3.9236   -0.0342   32.0166 C.ar    1  UNL1        0.1453
     16 N           3.5360   -1.3389   32.6470 N.ar    1  UNL1       -0.2084
     17 C           4.5943   -2.2552   33.1859 C.ar    1  UNL1        0.2027
     18 N           6.0403   -1.8666   33.0945 N.ar    1  UNL1       -0.1892
     19 C           8.7694   -0.3306   33.5657 C.3     1  UNL1        0.2542
     20 O           7.8737   -0.1733   32.3727 O.3     1  UNL1       -0.4560
     21 C           0.4533    2.2701   28.7720 C.ar    1  UNL1        0.0622
     22 C           0.2367    3.7014   28.3789 C.ar    1  UNL1        0.0154
     23 C          -0.5802    4.0303   27.1646 C.ar    1  UNL1        0.0010
     24 C          -1.1804    2.9280   26.3433 C.ar    1  UNL1       -0.0035
     25 C          -0.9638    1.4966   26.7363 C.ar    1  UNL1        0.0010
     26 C          -0.1470    1.1678   27.9507 C.ar    1  UNL1        0.0154
     27 C          -1.9973    3.2569   25.1289 C.2     1  UNL1       -0.0161
     28 C          -3.4538    3.5860   25.2714 C.2     1  UNL1       -0.0038
     29 C          -4.2706    3.9149   24.0570 C.2     1  UNL1        0.0025
     30 C          -3.6308    3.9147   22.7003 C.2     1  UNL1        0.0366
     31 C          -4.1783    4.1969   21.3326 C.2     1  UNL1        0.1233
     32 N          -3.0600    4.0422   20.3447 N.2     1  UNL1       -0.1467
     33 N          -1.8215    3.6645   21.1020 N.2     1  UNL1       -0.1520
     34 C          -2.1743    3.5856   22.5579 C.2     1  UNL1        0.0864
     35 C          -1.3575    3.2567   23.7721 C.3     1  UNL1        0.0739
     36 C           2.9788    3.1402   36.5099 C.3     1  UNL1        0.1183
     37 C           2.2051    2.4883   37.6173 C.ar    1  UNL1        0.0712
     38 N           0.9350    3.1132   38.1137 N.ar    1  UNL1       -0.2471
     39 C           0.1613    2.4613   39.2212 C.ar    1  UNL1        0.0985
     40 C           0.6576    1.1845   39.8322 C.ar    1  UNL1        0.0203
     41 C           1.9277    0.5596   39.3358 C.ar    1  UNL1       -0.0015
     42 C           2.7014    1.2114   38.2284 C.ar    1  UNL1       -0.0069
     43 C           3.9714    0.5865   37.7320 C.3     1  UNL1        0.0323
@<TRIPOS>BOND
     1    19    20    1
     2    20    13    1
     3    13    14   ar
     4    14    15   ar
     5    15     1    1
     6     1     2   am
     7     2     3    2
     8     2     4   am
     9     4    21    1
    10    21    22   ar
    11    22    23   ar
    12    23    24   ar
    13    24    27    1
    14    27    28    2
    15    28    29    1
    16    29    30    2
    17    30    31    1
    18    31    32    2
    19    32    33    1
    20    33    34    2
    21    34    35    1
    22    24    25   ar
    23    25    26   ar
    24     4     5   am
    25     5     6    2
    26     5     7    1
    27     7     8    1
    28     8     9    1
    29     9    10    1
    30    10    36    1
    31    36    37    1
    32    37    38   ar
    33    38    39   ar
    34    39    40   ar
    35    40    41   ar
    36    41    42   ar
    37    42    43    1
    38    10    11    1
    39    11    12    1
    40    15    16   ar
    41    16    17   ar
    42    17    18   ar
    43    18    13   ar
    44     7     1    1
    45    42    37   ar
    46    26    21   ar
    47    12     7    1
    48    35    27    1
    49    34    30    1
@<TRIPOS>MOLECULE
*****
 43 49 0 0 0
SMALL
GASTEIGER

@<TRIPOS>ATOM
      1 N           3.6451   -1.2250   21.5520 N.am    1  UNL1       -0.2222
      2 C           2.4477   -0.3213   21.5518 C.2     1  UNL1        0.3219
      3 O           1.5841   -0.0023   20.3676 O.2     1  UNL1       -0.2512
      4 N           2.2657    0.2072   22.9438 N.am    1  UNL1       -0.1907
      5 C           3.3505   -0.3697   23.8043 C.2     1  UNL1        0.2529
      6 O           3.5481   -0.1076   25.2679 O.2     1  UNL1       -0.2724
      7 C           4.2030   -1.2549   22.9441 C.3     1  UNL1        0.1391
      8 C           4.9606   -2.1017   21.9649 C.3     1  UNL1        0.0449
      9 C           6.1603   -2.8800   22.4174 C.3     1  UNL1        0.0746
     10 N           6.6025   -2.8115   23.8491 N.3     1  UNL1       -0.2676
     11 C           5.8450   -1.9646   24.8283 C.3     1  UNL1        0.0746
     12 C           4.6452   -1.1863   24.3758 C.3     1  UNL1        0.0449
     13 C           5.6597   -2.0221   18.2270 C.ar    1  UNL1        0.2293
     14 C           5.1158   -1.2789   19.4110 C.ar    1  UNL1        0.0924
     15 C           4.1890   -1.9681   20.3680 C.ar    1  UNL1        0.1453
     16 N           3.8061   -3.4006   20.1411 N.ar    1  UNL1       -0.2084
     17 C           4.3499   -4.1438   18.9572 C.ar    1  UNL1        0.2027
     18 N           5.2768   -3.4545   18.0001 N.ar    1  UNL1       -0.1892
     19 C           6.5923    0.1643   17.1784 C.3     1  UNL1        0.2542
     20 O           6.5864   -1.3329   17.2699 O.3     1  UNL1       -0.4560
     21 C           1.1881    1.1475   23.3959 C.ar    1  UNL1        0.0622
     22 C           0.5368    0.9545   24.7333 C.ar    1  UNL1        0.0154
     23 C          -0.5408    1.8949   25.1854 C.ar    1  UNL1        0.0010
     24 C          -0.9672    3.0282   24.3001 C.ar    1  UNL1       -0.0035
     25 C          -0.3159    3.2213   22.9627 C.ar    1  UNL1        0.0010
     26 C           0.7617    2.2809   22.5106 C.ar    1  UNL1        0.0154
     27 C          -2.0449    3.9686   24.7522 C.2     1  UNL1       -0.0161
     28 C          -2.3399    5.2077   23.9601 C.2     1  UNL1       -0.0038
     29 C          -3.4176    6.1481   24.4122 C.2     1  UNL1        0.0025
     30 C          -4.2002    5.8492   25.6565 C.2     1  UNL1        0.0366
     31 C          -5.3128    6.5845   26.3431 C.2     1  UNL1        0.1233
     32 N          -5.7055    5.7997   27.5597 N.2     1  UNL1       -0.1467
     33 N          -4.8355    4.5795   27.6249 N.2     1  UNL1       -0.1520
     34 C          -3.9051    4.6101   26.4486 C.2     1  UNL1        0.0864
     35 C          -2.8276    3.6698   25.9966 C.3     1  UNL1        0.0739
     36 C           7.8023   -3.5899   24.3015 C.3     1  UNL1        0.1183
     37 C           7.6314   -4.9652   24.8752 C.ar    1  UNL1        0.0712
     38 N           6.9225   -5.1491   26.1843 N.ar    1  UNL1       -0.2471
     39 C           6.7516   -6.5245   26.7579 C.ar    1  UNL1        0.0985
     40 C           7.2896   -7.7160   26.0225 C.ar    1  UNL1        0.0203
     41 C           7.9985   -7.5322   24.7135 C.ar    1  UNL1       -0.0015
     42 C           8.1694   -6.1568   24.1398 C.ar    1  UNL1       -0.0069
     43 C           8.8784   -5.9729   22.8308 C.3     1  UNL1        0.0323
@<TRIPOS>BOND
     1    19    20    1
     2    20    13    1
     3    13    14   ar
     4    14    15   ar
     5    15     1    1
     6     1     2   am
     7     2     3    2
     8     2     4   am
     9     4    21    1
    10    21    22   ar
    11    22    23   ar
    12    23    24   ar
    13    24    27    1
    14    27    28    2
    15    28    29    1
    16    29    30    2
    17    30    31    1
    18    31    32    2
    19    32    33    1
    20    33    34    2
    21    34    35    1
    22    24    25   ar
    23    25    26   ar
    24     4     5   am
    25     5     6    2
    26     5     7    1
    27     7     8    1
    28     8     9    1
    29     9    10    1
    30    10    36    1
    31    36    37    1
    32    37    38   ar
    33    38    39   ar
    34    39    40   ar
    35    40    41   ar
    36    41    42   ar
    37    42    43    1
    38    10    11    1
    39    11    12    1
    40    15    16   ar
    41    16    17   ar
    42    17    18   ar
    43    18    13   ar
    44     7     1    1
    45    42    37   ar
    46    26    21   ar
    47    12     7    1
    48    35    27    1
    49    34    30    1
@<TRIPOS>MOLECULE
*****
 43 49 0 0 0
SMALL
GASTEIGER

@<TRIPOS>ATOM
      1 N           3.5490   -0.5500   22.2046 N.am    1  UNL1       -0.2222
      2 C           2.2914    0.2668   22.2412 C.2     1  UNL1        0.3219
      3 O           1.4937    0.7112   21.0511 O.2     1  UNL1       -0.2512
      4 N           1.9715    0.5612   23.6769 N.am    1  UNL1       -0.1907
      5 C           3.0314   -0.0736   24.5275 C.2     1  UNL1        0.2529
      6 O           3.1037   -0.0295   26.0251 O.2     1  UNL1       -0.2724
      7 C           4.0064   -0.7604   23.6177 C.3     1  UNL1        0.1391
      8 C           4.8925   -1.3970   22.5884 C.3     1  UNL1        0.0449
      9 C           6.1109   -2.1601   23.0164 C.3     1  UNL1        0.0746
     10 N           6.4430   -2.2867   24.4737 N.3     1  UNL1       -0.2676
     11 C           5.5568   -1.6502   25.5030 C.3     1  UNL1        0.0746
     12 C           4.3385   -0.8870   25.0749 C.3     1  UNL1        0.0449
     13 C           4.5938   -2.9555   19.2261 C.ar    1  UNL1        0.2293
     14 C           3.9131   -2.4396   20.4591 C.ar    1  UNL1        0.0924
     15 C           4.2297   -1.0659   20.9716 C.ar    1  UNL1        0.1453
     16 N           5.2271   -0.2080   20.2509 N.ar    1  UNL1       -0.2084
     17 C           5.9078   -0.7238   19.0179 C.ar    1  UNL1        0.2027
     18 N           5.5912   -2.0976   18.5054 N.ar    1  UNL1       -0.1892
     19 C           3.4568   -5.2695   19.5459 C.3     1  UNL1        0.2542
     20 O           4.2773   -4.3292   18.7136 O.3     1  UNL1       -0.4560
     21 C           0.7979    1.3517   24.1744 C.ar    1  UNL1        0.0622
     22 C           0.1640    2.3877   23.2943 C.ar    1  UNL1        0.0154
     23 C          -1.0097    3.1782   23.7919 C.ar    1  UNL1        0.0010
     24 C          -1.5495    2.9326   25.1696 C.ar    1  UNL1       -0.0035
     25 C          -0.9156    1.8965   26.0499 C.ar    1  UNL1        0.0010
     26 C           0.2581    1.1061   25.5522 C.ar    1  UNL1        0.0154
     27 C          -2.7232    3.7231   25.6672 C.2     1  UNL1       -0.0161
     28 C          -4.0749    3.5305   25.0460 C.2     1  UNL1       -0.0038
     29 C          -5.2486    4.3210   25.5436 C.2     1  UNL1        0.0025
     30 C          -5.0705    5.3041   26.6625 C.2     1  UNL1        0.0366
     31 C          -6.0350    6.2184   27.3580 C.2     1  UNL1        0.1233
     32 N          -5.2794    6.9761   28.4093 N.2     1  UNL1       -0.1467
     33 N          -3.8480    6.5300   28.3634 N.2     1  UNL1       -0.1520
     34 C          -3.7189    5.4966   27.2838 C.2     1  UNL1        0.0864
     35 C          -2.5453    4.7062   26.7862 C.3     1  UNL1        0.0739
     36 C           7.6614   -3.0499   24.9017 C.3     1  UNL1        0.1183
     37 C           7.5558   -4.5105   25.2264 C.ar    1  UNL1        0.0712
     38 N           6.9133   -4.9492   26.5089 N.ar    1  UNL1       -0.2471
     39 C           6.8077   -6.4099   26.8336 C.ar    1  UNL1        0.0985
     40 C           7.3446   -7.4318   25.8758 C.ar    1  UNL1        0.0203
     41 C           7.9871   -6.9931   24.5933 C.ar    1  UNL1       -0.0015
     42 C           8.0927   -5.5326   24.2686 C.ar    1  UNL1       -0.0069
     43 C           8.7353   -5.0939   22.9861 C.3     1  UNL1        0.0323
@<TRIPOS>BOND
     1    19    20    1
     2    20    13    1
     3    13    14   ar
     4    14    15   ar
     5    15     1    1
     6     1     2   am
     7     2     3    2
     8     2     4   am
     9     4    21    1
    10    21    22   ar
    11    22    23   ar
    12    23    24   ar
    13    24    27    1
    14    27    28    2
    15    28    29    1
    16    29    30    2
    17    30    31    1
    18    31    32    2
    19    32    33    1
    20    33    34    2
    21    34    35    1
    22    24    25   ar
    23    25    26   ar
    24     4     5   am
    25     5     6    2
    26     5     7    1
    27     7     8    1
    28     8     9    1
    29     9    10    1
    30    10    36    1
    31    36    37    1
    32    37    38   ar
    33    38    39   ar
    34    39    40   ar
    35    40    41   ar
    36    41    42   ar
    37    42    43    1
    38    10    11    1
    39    11    12    1
    40    15    16   ar
    41    16    17   ar
    42    17    18   ar
    43    18    13   ar
    44     7     1    1
    45    42    37   ar
    46    26    21   ar
    47    12     7    1
    48    35    27    1
    49    34    30    1
@<TRIPOS>MOLECULE
*****
 43 49 0 0 0
SMALL
GASTEIGER

@<TRIPOS>ATOM
      1 N           4.2494   -0.0764   31.3885 N.am    1  UNL1       -0.2222
      2 C           3.5024    0.1456   30.1067 C.2     1  UNL1        0.3219
      3 O           3.8502   -0.4408   28.7706 O.2     1  UNL1       -0.2512
      4 N           2.3466    1.0571   30.3956 N.am    1  UNL1       -0.1907
      5 C           2.3792    1.3983   31.8559 C.2     1  UNL1        0.2529
      6 O           1.4067    2.2845   32.5762 O.2     1  UNL1       -0.2724
      7 C           3.5552    0.6978   32.4696 C.3     1  UNL1        0.1391
      8 C           4.7610   -0.0601   32.9401 C.3     1  UNL1        0.0449
      9 C           5.1708    0.0026   34.3817 C.3     1  UNL1        0.0746
     10 N           4.3747    0.8232   35.3527 N.3     1  UNL1       -0.2676
     11 C           3.1689    1.5812   34.8821 C.3     1  UNL1        0.0746
     12 C           2.7591    1.5185   33.4406 C.3     1  UNL1        0.0449
     13 C           6.5653   -3.2345   32.0306 C.ar    1  UNL1        0.2293
     14 C           5.3395   -2.3870   31.8599 C.ar    1  UNL1        0.0924
     15 C           5.4752   -0.9238   31.5591 C.ar    1  UNL1        0.1453
     16 N           6.8368   -0.3080   31.4290 N.ar    1  UNL1       -0.2084
     17 C           8.0626   -1.1553   31.5997 C.ar    1  UNL1        0.2027
     18 N           7.9269   -2.6187   31.9005 N.ar    1  UNL1       -0.1892
     19 C           7.0888   -5.7103   31.4424 C.3     1  UNL1        0.2542
     20 O           6.4297   -4.6977   32.3314 O.3     1  UNL1       -0.4560
     21 C           1.3357    1.5421   29.3993 C.ar    1  UNL1        0.0622
     22 C           0.3053    0.5972   28.8558 C.ar    1  UNL1        0.0154
     23 C          -0.7056    1.0822   27.8593 C.ar    1  UNL1        0.0010
     24 C          -0.6861    2.5121   27.4064 C.ar    1  UNL1       -0.0035
     25 C           0.3444    3.4570   27.9499 C.ar    1  UNL1        0.0010
     26 C           1.3553    2.9719   28.9463 C.ar    1  UNL1        0.0154
     27 C          -1.6970    2.9971   26.4100 C.2     1  UNL1       -0.0161
     28 C          -3.0466    3.4582   26.8746 C.2     1  UNL1       -0.0038
     29 C          -4.0575    3.9432   25.8782 C.2     1  UNL1        0.0025
     30 C          -3.7187    3.9671   24.4171 C.2     1  UNL1        0.0366
     31 C          -4.5049    4.3890   23.2114 C.2     1  UNL1        0.1233
     32 N          -3.6411    4.1887   22.0014 N.2     1  UNL1       -0.1467
     33 N          -2.3212    3.6429   22.4595 N.2     1  UNL1       -0.1520
     34 C          -2.3691    3.5060   23.9525 C.2     1  UNL1        0.0864
     35 C          -1.3582    3.0210   24.9489 C.3     1  UNL1        0.0739
     36 C           4.7846    0.8859   36.7943 C.3     1  UNL1        0.1183
     37 C           4.5147    2.1235   37.5976 C.ar    1  UNL1        0.0712
     38 N           5.4341    3.3037   37.4887 N.ar    1  UNL1       -0.2471
     39 C           5.1642    4.5414   38.2920 C.ar    1  UNL1        0.0985
     40 C           3.9749    4.5989   39.2043 C.ar    1  UNL1        0.0203
     41 C           3.0555    3.4187   39.3132 C.ar    1  UNL1       -0.0015
     42 C           3.3253    2.1811   38.5099 C.ar    1  UNL1       -0.0069
     43 C           2.4059    1.0009   38.6188 C.3     1  UNL1        0.0323
@<TRIPOS>BOND
     1    19    20    1
     2    20    13    1
     3    13    14   ar
     4    14    15   ar
     5    15     1    1
     6     1     2   am
     7     2     3    2
     8     2     4   am
     9     4    21    1
    10    21    22   ar
    11    22    23   ar
    12    23    24   ar
    13    24    27    1
    14    27    28    2
    15    28    29    1
    16    29    30    2
    17    30    31    1
    18    31    32    2
    19    32    33    1
    20    33    34    2
    21    34    35    1
    22    24    25   ar
    23    25    26   ar
    24     4     5   am
    25     5     6    2
    26     5     7    1
    27     7     8    1
    28     8     9    1
    29     9    10    1
    30    10    36    1
    31    36    37    1
    32    37    38   ar
    33    38    39   ar
    34    39    40   ar
    35    40    41   ar
    36    41    42   ar
    37    42    43    1
    38    10    11    1
    39    11    12    1
    40    15    16   ar
    41    16    17   ar
    42    17    18   ar
    43    18    13   ar
    44     7     1    1
    45    42    37   ar
    46    26    21   ar
    47    12     7    1
    48    35    27    1
    49    34    30    1
@<TRIPOS>MOLECULE
*****
 43 49 0 0 0
SMALL
GASTEIGER

@<TRIPOS>ATOM
      1 N           3.7460   -0.7445   23.1081 N.am    1  UNL1       -0.2222
      2 C           2.5195    0.1088   22.9750 C.2     1  UNL1        0.3219
      3 O           1.8830    0.5432   21.6881 O.2     1  UNL1       -0.2512
      4 N           2.0412    0.4513   24.3549 N.am    1  UNL1       -0.1907
      5 C           2.9721   -0.1902   25.3407 C.2     1  UNL1        0.2529
      6 O           2.8678   -0.1072   26.8347 O.2     1  UNL1       -0.2724
      7 C           4.0258   -0.9292   24.5701 C.3     1  UNL1        0.1391
      8 C           5.0071   -1.6188   23.6693 C.3     1  UNL1        0.0449
      9 C           6.1413   -2.4046   24.2575 C.3     1  UNL1        0.0746
     10 N           6.2942   -2.5008   25.7466 N.3     1  UNL1       -0.2676
     11 C           5.3129   -1.8113   26.6474 C.3     1  UNL1        0.0746
     12 C           4.1787   -1.0255   26.0592 C.3     1  UNL1        0.0449
     13 C           5.0774   -3.2695   20.3510 C.ar    1  UNL1        0.2293
     14 C           4.2720   -2.7009   21.4815 C.ar    1  UNL1        0.0924
     15 C           4.5514   -1.3131   21.9775 C.ar    1  UNL1        0.1453
     16 N           5.6360   -0.4940   21.3430 N.ar    1  UNL1       -0.2084
     17 C           6.4413   -1.0625   20.2126 C.ar    1  UNL1        0.2027
     18 N           6.1620   -2.4503   19.7165 N.ar    1  UNL1       -0.1892
     19 C           3.4272   -5.0162   19.3633 C.3     1  UNL1        0.2542
     20 O           4.7981   -4.6572   19.8549 O.3     1  UNL1       -0.4560
     21 C           0.8426    1.2884   24.6900 C.ar    1  UNL1        0.0622
     22 C           0.2204    1.1961   26.0518 C.ar    1  UNL1        0.0154
     23 C          -0.9784    2.0332   26.3869 C.ar    1  UNL1        0.0010
     24 C          -1.5549    2.9626   25.3604 C.ar    1  UNL1       -0.0035
     25 C          -0.9327    3.0549   23.9985 C.ar    1  UNL1        0.0010
     26 C           0.2660    2.2178   23.6635 C.ar    1  UNL1        0.0154
     27 C          -2.7537    3.7997   25.6955 C.2     1  UNL1       -0.0161
     28 C          -2.7107    4.7364   26.8663 C.2     1  UNL1       -0.0038
     29 C          -3.9094    5.5735   27.2015 C.2     1  UNL1        0.0025
     30 C          -5.1511    5.4738   26.3658 C.2     1  UNL1        0.0366
     31 C          -6.4778    6.1683   26.4529 C.2     1  UNL1        0.1233
     32 N          -7.3408    5.6608   25.3358 N.2     1  UNL1       -0.1467
     33 N          -6.5474    4.6527   24.5584 N.2     1  UNL1       -0.1520
     34 C          -5.1940    4.5372   25.1950 C.2     1  UNL1        0.0864
     35 C          -3.9954    3.7001   24.8598 C.3     1  UNL1        0.0739
     36 C           7.4285   -3.2867   26.3348 C.3     1  UNL1        0.1183
     37 C           7.5977   -4.7356   25.9854 C.ar    1  UNL1        0.0712
     38 N           8.3955   -5.1275   24.7771 N.ar    1  UNL1       -0.2471
     39 C           8.5647   -6.5765   24.4278 C.ar    1  UNL1        0.0985
     40 C           7.9361   -7.6334   25.2867 C.ar    1  UNL1        0.0203
     41 C           7.1384   -7.2414   26.4950 C.ar    1  UNL1       -0.0015
     42 C           6.9692   -5.7926   26.8444 C.ar    1  UNL1       -0.0069
     43 C           6.1714   -5.4006   28.0527 C.3     1  UNL1        0.0323
@<TRIPOS>BOND
     1    19    20    1
     2    20    13    1
     3    13    14   ar
     4    14    15   ar
     5    15     1    1
     6     1     2   am
     7     2     3    2
     8     2     4   am
     9     4    21    1
    10    21    22   ar
    11    22    23   ar
    12    23    24   ar
    13    24    27    1
    14    27    28    2
    15    28    29    1
    16    29    30    2
    17    30    31    1
    18    31    32    2
    19    32    33    1
    20    33    34    2
    21    34    35    1
    22    24    25   ar
    23    25    26   ar
    24     4     5   am
    25     5     6    2
    26     5     7    1
    27     7     8    1
    28     8     9    1
    29     9    10    1
    30    10    36    1
    31    36    37    1
    32    37    38   ar
    33    38    39   ar
    34    39    40   ar
    35    40    41   ar
    36    41    42   ar
    37    42    43    1
    38    10    11    1
    39    11    12    1
    40    15    16   ar
    41    16    17   ar
    42    17    18   ar
    43    18    13   ar
    44     7     1    1
    45    42    37   ar
    46    26    21   ar
    47    12     7    1
    48    35    27    1
    49    34    30    1
@<TRIPOS>MOLECULE
*****
 43 49 0 0 0
SMALL
GASTEIGER

@<TRIPOS>ATOM
      1 N           3.5089   -0.1417   30.5471 N.am    1  UNL1       -0.2222
      2 C           2.2533    0.6385   30.2921 C.2     1  UNL1        0.3219
      3 O           1.3686    1.2513   31.3370 O.2     1  UNL1       -0.2512
      4 N           2.0379    0.6982   28.8088 N.am    1  UNL1       -0.1907
      5 C           3.1603   -0.0450   28.1471 C.2     1  UNL1        0.2529
      6 O           3.3417   -0.2357   26.6704 O.2     1  UNL1       -0.2724
      7 C           4.0695   -0.5641   29.2214 C.3     1  UNL1        0.1391
      8 C           4.8811   -1.0162   30.3990 C.3     1  UNL1        0.0449
      9 C           6.1312   -1.8171   30.1851 C.3     1  UNL1        0.0746
     10 N           6.5697   -2.1658   28.7937 N.3     1  UNL1       -0.2676
     11 C           5.7581   -1.7137   27.6161 C.3     1  UNL1        0.0746
     12 C           4.5079   -0.9128   27.8300 C.3     1  UNL1        0.0449
     13 C           5.6414    0.2193   33.8746 C.ar    1  UNL1        0.2293
     14 C           5.0502    0.5236   32.5300 C.ar    1  UNL1        0.0924
     15 C           4.1002   -0.4459   31.8917 C.ar    1  UNL1        0.1453
     16 N           3.7414   -1.7197   32.5979 N.ar    1  UNL1       -0.2084
     17 C           4.3326   -2.0241   33.9424 C.ar    1  UNL1        0.2027
     18 N           5.2826   -1.0545   34.5808 N.ar    1  UNL1       -0.1892
     19 C           7.4281    0.7596   35.6816 C.3     1  UNL1        0.2542
     20 O           6.5914    1.1888   34.5130 O.3     1  UNL1       -0.4560
     21 C           0.8999    1.3812   28.1100 C.ar    1  UNL1        0.0622
     22 C          -0.5106    0.9395   28.3656 C.ar    1  UNL1        0.0154
     23 C          -1.6487    1.6226   27.6668 C.ar    1  UNL1        0.0010
     24 C          -1.3762    2.7472   26.7123 C.ar    1  UNL1       -0.0035
     25 C           0.0344    3.1889   26.4567 C.ar    1  UNL1        0.0010
     26 C           1.1724    2.5058   27.1556 C.ar    1  UNL1        0.0154
     27 C          -2.5142    3.4302   26.0135 C.2     1  UNL1       -0.0161
     28 C          -2.5493    3.4856   24.5149 C.2     1  UNL1       -0.0038
     29 C          -3.6874    4.1686   23.8161 C.2     1  UNL1        0.0025
     30 C          -4.7903    4.7962   24.6159 C.2     1  UNL1        0.0366
     31 C          -6.0316    5.5330   24.2082 C.2     1  UNL1        0.1233
     32 N          -6.7638    5.9330   25.4548 N.2     1  UNL1       -0.1467
     33 N          -5.9749    5.4435   26.6329 N.2     1  UNL1       -0.1520
     34 C          -4.7552    4.7409   26.1145 C.2     1  UNL1        0.0864
     35 C          -3.6172    4.0579   26.8133 C.3     1  UNL1        0.0739
     36 C           7.8199   -2.9667   28.5799 C.3     1  UNL1        0.1183
     37 C           7.8142   -4.1262   27.6284 C.ar    1  UNL1        0.0712
     38 N           8.2842   -3.9399   26.2162 N.ar    1  UNL1       -0.2471
     39 C           8.2785   -5.0996   25.2647 C.ar    1  UNL1        0.0985
     40 C           7.8029   -6.4455   25.7255 C.ar    1  UNL1        0.0203
     41 C           7.3329   -6.6318   27.1377 C.ar    1  UNL1       -0.0015
     42 C           7.3386   -5.4722   28.0892 C.ar    1  UNL1       -0.0069
     43 C           6.8686   -5.6585   29.5014 C.3     1  UNL1        0.0323
@<TRIPOS>BOND
     1    19    20    1
     2    20    13    1
     3    13    14   ar
     4    14    15   ar
     5    15     1    1
     6     1     2   am
     7     2     3    2
     8     2     4   am
     9     4    21    1
    10    21    22   ar
    11    22    23   ar
    12    23    24   ar
    13    24    27    1
    14    27    28    2
    15    28    29    1
    16    29    30    2
    17    30    31    1
    18    31    32    2
    19    32    33    1
    20    33    34    2
    21    34    35    1
    22    24    25   ar
    23    25    26   ar
    24     4     5   am
    25     5     6    2
    26     5     7    1
    27     7     8    1
    28     8     9    1
    29     9    10    1
    30    10    36    1
    31    36    37    1
    32    37    38   ar
    33    38    39   ar
    34    39    40   ar
    35    40    41   ar
    36    41    42   ar
    37    42    43    1
    38    10    11    1
    39    11    12    1
    40    15    16   ar
    41    16    17   ar
    42    17    18   ar
    43    18    13   ar
    44     7     1    1
    45    42    37   ar
    46    26    21   ar
    47    12     7    1
    48    35    27    1
    49    34    30    1
@<TRIPOS>MOLECULE
*****
 43 49 0 0 0
SMALL
GASTEIGER

@<TRIPOS>ATOM
      1 N           6.1100   -2.1952   25.9878 N.am    1  UNL1       -0.2222
      2 C           6.2283   -1.9640   27.4652 C.2     1  UNL1        0.3219
      3 O           7.3349   -2.4581   28.3491 O.2     1  UNL1       -0.2512
      4 N           5.0456   -1.1519   27.9034 N.am    1  UNL1       -0.1907
      5 C           4.1965   -0.8812   26.6969 C.2     1  UNL1        0.2529
      6 O           2.9146   -0.1025   26.6776 O.2     1  UNL1       -0.2724
      7 C           4.8543   -1.5260   25.5129 C.3     1  UNL1        0.1391
      8 C           5.6241   -2.2188   24.4280 C.3     1  UNL1        0.0449
      9 C           5.1154   -2.1981   23.0170 C.3     1  UNL1        0.0746
     10 N           3.8370   -1.4844   22.6911 N.3     1  UNL1       -0.2676
     11 C           3.0672   -0.7915   23.7760 C.3     1  UNL1        0.0746
     12 C           3.5758   -0.8123   25.1870 C.3     1  UNL1        0.0449
     13 C           7.9075   -5.2141   24.1426 C.ar    1  UNL1        0.2293
     14 C           6.9399   -4.4482   24.9954 C.ar    1  UNL1        0.0924
     15 C           7.0775   -2.9611   25.1350 C.ar    1  UNL1        0.1453
     16 N           8.1825   -2.2398   24.4217 N.ar    1  UNL1       -0.2084
     17 C           9.1501   -3.0056   23.5690 C.ar    1  UNL1        0.2027
     18 N           9.0125   -4.4929   23.4294 N.ar    1  UNL1       -0.1892
     19 C           8.1783   -7.6013   25.1313 C.3     1  UNL1        0.2542
     20 O           7.7700   -6.7012   24.0029 O.3     1  UNL1       -0.4560
     21 C           4.7620   -0.6914   29.3024 C.ar    1  UNL1        0.0622
     22 C           5.8406   -0.0287   30.1071 C.ar    1  UNL1        0.0154
     23 C           5.5570    0.4319   31.5062 C.ar    1  UNL1        0.0010
     24 C           4.1948    0.2297   32.1007 C.ar    1  UNL1       -0.0035
     25 C           3.1161   -0.4330   31.2960 C.ar    1  UNL1        0.0010
     26 C           3.3998   -0.8935   29.8969 C.ar    1  UNL1        0.0154
     27 C           3.9111    0.6902   33.4998 C.2     1  UNL1       -0.0161
     28 C           4.5727    0.0104   34.6617 C.2     1  UNL1       -0.0038
     29 C           4.2891    0.4710   36.0609 C.2     1  UNL1        0.0025
     30 C           3.3438    1.6113   36.2979 C.2     1  UNL1        0.0366
     31 C           2.8736    2.2802   37.5554 C.2     1  UNL1        0.1233
     32 N           1.9212    3.3735   37.1706 N.2     1  UNL1       -0.1467
     33 N           1.8030    3.3802   35.6754 N.2     1  UNL1       -0.1520
     34 C           2.6822    2.2911   35.1359 C.2     1  UNL1        0.0864
     35 C           2.9659    1.8306   33.7369 C.3     1  UNL1        0.0739
     36 C           3.3284   -1.4637   21.2800 C.3     1  UNL1        0.1183
     37 C           4.2943   -1.5167   20.1337 C.ar    1  UNL1        0.0712
     38 N           5.0825   -0.2964   19.7600 N.ar    1  UNL1       -0.2471
     39 C           6.0485   -0.3495   18.6136 C.ar    1  UNL1        0.0985
     40 C           6.2263   -1.6229   17.8411 C.ar    1  UNL1        0.0203
     41 C           5.4382   -2.8432   18.2148 C.ar    1  UNL1       -0.0015
     42 C           4.4722   -2.7901   19.3611 C.ar    1  UNL1       -0.0069
     43 C           3.6840   -4.0104   19.7348 C.3     1  UNL1        0.0323
@<TRIPOS>BOND
     1    19    20    1
     2    20    13    1
     3    13    14   ar
     4    14    15   ar
     5    15     1    1
     6     1     2   am
     7     2     3    2
     8     2     4   am
     9     4    21    1
    10    21    22   ar
    11    22    23   ar
    12    23    24   ar
    13    24    27    1
    14    27    28    2
    15    28    29    1
    16    29    30    2
    17    30    31    1
    18    31    32    2
    19    32    33    1
    20    33    34    2
    21    34    35    1
    22    24    25   ar
    23    25    26   ar
    24     4     5   am
    25     5     6    2
    26     5     7    1
    27     7     8    1
    28     8     9    1
    29     9    10    1
    30    10    36    1
    31    36    37    1
    32    37    38   ar
    33    38    39   ar
    34    39    40   ar
    35    40    41   ar
    36    41    42   ar
    37    42    43    1
    38    10    11    1
    39    11    12    1
    40    15    16   ar
    41    16    17   ar
    42    17    18   ar
    43    18    13   ar
    44     7     1    1
    45    42    37   ar
    46    26    21   ar
    47    12     7    1
    48    35    27    1
    49    34    30    1
