@<TRIPOS>MOLECULE
*****
 34 36 0 0 0
SMALL
GASTEIGER

@<TRIPOS>ATOM
      1 C          -9.5371  -18.8757   21.3240 C.3     1  UNL1        0.1102
      2 C          -8.5670  -19.3040   22.3848 C.3     1  UNL1        0.0296
      3 C          -7.2607  -19.9312   21.9974 C.3     1  UNL1        0.0730
      4 N          -6.9245  -20.1301   20.5491 N.3     1  UNL1       -0.2689
      5 C          -7.8946  -19.7018   19.4883 C.3     1  UNL1        0.0730
      6 C          -9.2009  -19.0746   19.8757 C.3     1  UNL1        0.0296
      7 C         -10.7731  -18.3101   20.6897 C.2     1  UNL1        0.3177
      8 O         -12.1270  -18.7617   21.1514 O.2     1  UNL1       -0.2501
      9 C         -11.4401  -16.0168   19.6670 C.3     1  UNL1        0.2556
     10 O         -10.6553  -17.2930   19.5935 O.3     1  UNL1       -0.4444
     11 C         -10.3025  -18.4804   22.5520 C.3     1  UNL1        0.1002
     12 N          -9.5772  -17.9236   23.7410 N.am    1  UNL1       -0.3003
     13 C          -8.8690  -16.6053   23.6379 C.2     1  UNL1        0.2459
     14 O          -8.8863  -15.8438   22.3457 O.2     1  UNL1       -0.2701
     15 H          -9.5659  -18.4235   24.5891 H       1  UNL1        0.1498
     16 C          -8.1437  -16.0485   24.8270 C.ar    1  UNL1        0.0550
     17 C          -8.9161  -15.5739   26.0220 C.ar    1  UNL1        0.0160
     18 C          -8.1907  -15.0171   27.2110 C.ar    1  UNL1        0.0587
     19 CL         -8.9632  -14.5424   28.4061 Cl      1  UNL1       -0.0822
     20 C          -6.6930  -14.9350   27.2051 C.ar    1  UNL1        0.0228
     21 C          -5.9206  -15.4097   26.0100 C.ar    1  UNL1        0.0587
     22 CL         -4.4229  -15.3276   26.0041 Cl      1  UNL1       -0.0822
     23 C          -6.6459  -15.9664   24.8210 C.ar    1  UNL1        0.0160
     24 C          -5.6181  -20.7573   20.1617 C.3     1  UNL1        0.0991
     25 C          -4.3609  -19.9393   20.1731 C.ar    1  UNL1       -0.0062
     26 C          -4.1510  -18.8722   19.1400 C.ar    1  UNL1       -0.0030
     27 C          -2.8937  -18.0541   19.1514 C.ar    1  UNL1        0.0036
     28 C          -1.8462  -18.3033   20.1958 C.ar    1  UNL1        0.0714
     29 C          -2.0561  -19.3704   21.2289 C.ar    1  UNL1        0.0036
     30 C          -3.3134  -20.1884   21.2175 C.ar    1  UNL1       -0.0030
     31 C          -0.5890  -17.4853   20.2072 C.3     1  UNL1        0.4186
     32 F           0.6682  -16.6673   20.2186 F       1  UNL1       -0.1659
     33 F          -1.3341  -16.3490   20.8425 F       1  UNL1       -0.1659
     34 F           0.1561  -18.6216   19.5719 F       1  UNL1       -0.1659
@<TRIPOS>BOND
     1     9    10    1
     2    10     7    1
     3     7     8    2
     4     7     1    1
     5     1    11    1
     6    11    12    1
     7    12    13   am
     8    13    14    2
     9    13    16    1
    10    16    17   ar
    11    17    18   ar
    12    18    19    1
    13    18    20   ar
    14    20    21   ar
    15    21    22    1
    16    21    23   ar
    17     1     2    1
    18     2     3    1
    19     3     4    1
    20     4    24    1
    21    24    25    1
    22    25    26   ar
    23    26    27   ar
    24    27    28   ar
    25    28    31    1
    26    31    32    1
    27    31    33    1
    28    31    34    1
    29    28    29   ar
    30    29    30   ar
    31     4     5    1
    32     5     6    1
    33     6     1    1
    34    23    16   ar
    35    30    25   ar
    36    12    15    1
@<TRIPOS>MOLECULE
*****
 34 36 0 0 0
SMALL
GASTEIGER

@<TRIPOS>ATOM
      1 C          -6.7298  -15.6944   24.7225 C.3     1  UNL1        0.1102
      2 C          -6.6348  -15.9659   23.2504 C.3     1  UNL1        0.0296
      3 C          -7.8132  -16.5315   22.5144 C.3     1  UNL1        0.0730
      4 N          -9.0866  -16.8255   23.2507 N.3     1  UNL1       -0.2689
      5 C          -9.1816  -16.5540   24.7228 C.3     1  UNL1        0.0730
      6 C          -8.0033  -15.9884   25.4587 C.3     1  UNL1        0.0296
      7 C          -6.3350  -15.2695   26.1059 C.2     1  UNL1        0.3177
      8 O          -5.1055  -14.4353   26.3119 O.2     1  UNL1       -0.2501
      9 C          -8.0287  -14.6668   27.9815 C.3     1  UNL1        0.2556
     10 O          -7.1696  -15.6788   27.2830 O.3     1  UNL1       -0.4444
     11 C          -5.3193  -15.2528   24.4667 C.3     1  UNL1        0.1002
     12 N          -4.5735  -15.7774   23.2757 N.am    1  UNL1       -0.3003
     13 C          -3.8837  -17.1075   23.3489 C.2     1  UNL1        0.2459
     14 O          -3.9398  -17.9128   24.6131 O.2     1  UNL1       -0.2701
     15 H          -4.5367  -15.2488   22.4459 H       1  UNL1        0.1498
     16 C          -3.1379  -17.6321   22.1579 C.ar    1  UNL1        0.0550
     17 C          -1.8547  -16.9831   21.7310 C.ar    1  UNL1        0.0160
     18 C          -1.1089  -17.5078   20.5400 C.ar    1  UNL1        0.0587
     19 CL          0.1744  -16.8588   20.1131 Cl      1  UNL1       -0.0822
     20 C          -1.6463  -18.6813   19.7758 C.ar    1  UNL1        0.0228
     21 C          -2.9295  -19.3303   20.2027 C.ar    1  UNL1        0.0587
     22 CL         -3.4669  -20.5039   19.4385 Cl      1  UNL1       -0.0822
     23 C          -3.6753  -18.8057   21.3937 C.ar    1  UNL1        0.0160
     24 C         -10.2649  -17.3910   22.5147 C.3     1  UNL1        0.0991
     25 C         -10.0505  -18.2760   21.3228 C.ar    1  UNL1       -0.0062
     26 C          -8.7532  -19.0110   21.1581 C.ar    1  UNL1       -0.0030
     27 C          -8.5387  -19.8961   19.9661 C.ar    1  UNL1        0.0036
     28 C          -9.6214  -20.0461   18.9389 C.ar    1  UNL1        0.0714
     29 C         -10.9186  -19.3111   19.1036 C.ar    1  UNL1        0.0036
     30 C         -11.1331  -18.4261   20.2955 C.ar    1  UNL1       -0.0030
     31 C          -9.4069  -20.9311   17.7470 C.3     1  UNL1        0.4186
     32 F          -9.1924  -21.8162   16.5551 F       1  UNL1       -0.1659
     33 F          -8.1972  -21.5250   18.4056 F       1  UNL1       -0.1659
     34 F         -10.6166  -20.3373   17.0883 F       1  UNL1       -0.1659
@<TRIPOS>BOND
     1     9    10    1
     2    10     7    1
     3     7     8    2
     4     7     1    1
     5     1    11    1
     6    11    12    1
     7    12    13   am
     8    13    14    2
     9    13    16    1
    10    16    17   ar
    11    17    18   ar
    12    18    19    1
    13    18    20   ar
    14    20    21   ar
    15    21    22    1
    16    21    23   ar
    17     1     2    1
    18     2     3    1
    19     3     4    1
    20     4    24    1
    21    24    25    1
    22    25    26   ar
    23    26    27   ar
    24    27    28   ar
    25    28    31    1
    26    31    32    1
    27    31    33    1
    28    31    34    1
    29    28    29   ar
    30    29    30   ar
    31     4     5    1
    32     5     6    1
    33     6     1    1
    34    23    16   ar
    35    30    25   ar
    36    12    15    1
@<TRIPOS>MOLECULE
*****
 34 36 0 0 0
SMALL
GASTEIGER

@<TRIPOS>ATOM
      1 C          -6.6212  -15.6155   25.4146 C.3     1  UNL1        0.1102
      2 C          -6.5001  -15.9225   23.9514 C.3     1  UNL1        0.0296
      3 C          -5.3163  -16.6898   23.4415 C.3     1  UNL1        0.0730
      4 N          -4.2537  -17.1502   24.3950 N.3     1  UNL1       -0.2689
      5 C          -4.3749  -16.8432   25.8582 C.3     1  UNL1        0.0730
      6 C          -5.5586  -16.0759   26.3680 C.3     1  UNL1        0.0296
      7 C          -7.1786  -15.0846   26.7020 C.2     1  UNL1        0.3177
      8 O          -6.3228  -14.2386   27.5975 O.2     1  UNL1       -0.2501
      9 C          -8.8960  -16.6525   27.8606 C.3     1  UNL1        0.2556
     10 O          -8.5918  -15.3996   27.0939 O.3     1  UNL1       -0.4444
     11 C          -7.8773  -14.9708   24.9083 C.3     1  UNL1        0.1002
     12 N          -8.4509  -15.3827   23.5849 N.am    1  UNL1       -0.3003
     13 C          -9.3544  -16.5770   23.4981 C.2     1  UNL1        0.2459
     14 O          -9.6841  -17.3594   24.7347 O.2     1  UNL1       -0.2701
     15 H          -8.2345  -14.8691   22.7733 H       1  UNL1        0.1498
     16 C          -9.9280  -16.9889   22.1747 C.ar    1  UNL1        0.0550
     17 C         -10.8510  -16.0649   21.4372 C.ar    1  UNL1        0.0160
     18 C         -11.4246  -16.4767   20.1138 C.ar    1  UNL1        0.0587
     19 CL        -12.3478  -15.5526   19.3762 Cl      1  UNL1       -0.0822
     20 C         -11.0752  -17.8126   19.5280 C.ar    1  UNL1        0.0228
     21 C         -10.1521  -18.7367   20.2656 C.ar    1  UNL1        0.0587
     22 CL         -9.8026  -20.0727   19.6798 Cl      1  UNL1       -0.0822
     23 C          -9.5785  -18.3249   21.5890 C.ar    1  UNL1        0.0160
     24 C          -3.0700  -17.9176   23.8851 C.3     1  UNL1        0.0991
     25 C          -2.6993  -17.8472   22.4334 C.ar    1  UNL1       -0.0062
     26 C          -3.0575  -18.9757   21.5123 C.ar    1  UNL1       -0.0030
     27 C          -2.6868  -18.9054   20.0605 C.ar    1  UNL1        0.0036
     28 C          -1.9579  -17.7066   19.5298 C.ar    1  UNL1        0.0714
     29 C          -1.5997  -16.5781   20.4509 C.ar    1  UNL1        0.0036
     30 C          -1.9704  -16.6485   21.9026 C.ar    1  UNL1       -0.0030
     31 C          -1.5872  -17.6362   18.0780 C.3     1  UNL1        0.4186
     32 F          -1.2166  -17.5658   16.6263 F       1  UNL1       -0.1659
     33 F          -2.9384  -17.0673   17.7607 F       1  UNL1       -0.1659
     34 F          -0.2362  -18.2051   18.3954 F       1  UNL1       -0.1659
@<TRIPOS>BOND
     1     9    10    1
     2    10     7    1
     3     7     8    2
     4     7     1    1
     5     1    11    1
     6    11    12    1
     7    12    13   am
     8    13    14    2
     9    13    16    1
    10    16    17   ar
    11    17    18   ar
    12    18    19    1
    13    18    20   ar
    14    20    21   ar
    15    21    22    1
    16    21    23   ar
    17     1     2    1
    18     2     3    1
    19     3     4    1
    20     4    24    1
    21    24    25    1
    22    25    26   ar
    23    26    27   ar
    24    27    28   ar
    25    28    31    1
    26    31    32    1
    27    31    33    1
    28    31    34    1
    29    28    29   ar
    30    29    30   ar
    31     4     5    1
    32     5     6    1
    33     6     1    1
    34    23    16   ar
    35    30    25   ar
    36    12    15    1
@<TRIPOS>MOLECULE
*****
 34 36 0 0 0
SMALL
GASTEIGER

@<TRIPOS>ATOM
      1 C          -0.4485    3.1236   21.7849 C.3     1  UNL1        0.1102
      2 C           0.9918    2.9798   22.1782 C.3     1  UNL1        0.0296
      3 C           2.0029    2.5234   21.1686 C.3     1  UNL1        0.0730
      4 N           1.5737    2.2107   19.7657 N.3     1  UNL1       -0.2689
      5 C           0.1333    2.3545   19.3725 C.3     1  UNL1        0.0730
      6 C          -0.8778    2.8109   20.3820 C.3     1  UNL1        0.0296
      7 C          -1.9170    3.4105   21.8917 C.2     1  UNL1        0.3177
      8 O          -2.4293    4.3028   22.9833 O.2     1  UNL1       -0.2501
      9 C          -4.3238    3.1850   20.9397 C.3     1  UNL1        0.2556
     10 O          -2.8730    2.8052   20.9071 O.3     1  UNL1       -0.4444
     11 C          -0.5292    3.5359   23.2248 C.3     1  UNL1        0.1002
     12 N          -0.3798    2.5095   24.3084 N.am    1  UNL1       -0.3003
     13 C           0.1303    2.9143   25.6598 C.2     1  UNL1        0.2459
     14 O           0.4908    4.3455   25.9275 O.2     1  UNL1       -0.2701
     15 H          -0.6164    1.5701   24.1327 H       1  UNL1        0.1498
     16 C           0.2798    1.8879   26.7433 C.ar    1  UNL1        0.0550
     17 C           1.6261    1.2931   27.0324 C.ar    1  UNL1        0.0160
     18 C           1.7756    0.2667   28.1159 C.ar    1  UNL1        0.0587
     19 CL          3.1220   -0.3282   28.4050 Cl      1  UNL1       -0.0822
     20 C           0.5788   -0.1649   28.9105 C.ar    1  UNL1        0.0228
     21 C          -0.7676    0.4299   28.6215 C.ar    1  UNL1        0.0587
     22 CL         -1.9644   -0.0016   29.4160 Cl      1  UNL1       -0.0822
     23 C          -0.9171    1.4563   27.5379 C.ar    1  UNL1        0.0160
     24 C           2.5848    1.7543   18.7561 C.3     1  UNL1        0.0991
     25 C           3.0229    0.3200   18.7290 C.ar    1  UNL1       -0.0062
     26 C           2.5507   -0.6286   19.7907 C.ar    1  UNL1       -0.0030
     27 C           2.9889   -2.0630   19.7637 C.ar    1  UNL1        0.0036
     28 C           3.8992   -2.5488   18.6749 C.ar    1  UNL1        0.0714
     29 C           4.3714   -1.6001   17.6132 C.ar    1  UNL1        0.0036
     30 C           3.9332   -0.1658   17.6403 C.ar    1  UNL1       -0.0030
     31 C           4.3373   -3.9830   18.6478 C.3     1  UNL1        0.4186
     32 F           4.7753   -5.4174   18.6208 F       1  UNL1       -0.1659
     33 F           2.9510   -4.4136   19.0258 F       1  UNL1       -0.1659
     34 F           5.7235   -3.5526   18.2699 F       1  UNL1       -0.1659
@<TRIPOS>BOND
     1     9    10    1
     2    10     7    1
     3     7     8    2
     4     7     1    1
     5     1    11    1
     6    11    12    1
     7    12    13   am
     8    13    14    2
     9    13    16    1
    10    16    17   ar
    11    17    18   ar
    12    18    19    1
    13    18    20   ar
    14    20    21   ar
    15    21    22    1
    16    21    23   ar
    17     1     2    1
    18     2     3    1
    19     3     4    1
    20     4    24    1
    21    24    25    1
    22    25    26   ar
    23    26    27   ar
    24    27    28   ar
    25    28    31    1
    26    31    32    1
    27    31    33    1
    28    31    34    1
    29    28    29   ar
    30    29    30   ar
    31     4     5    1
    32     5     6    1
    33     6     1    1
    34    23    16   ar
    35    30    25   ar
    36    12    15    1
@<TRIPOS>MOLECULE
*****
 34 36 0 0 0
SMALL
GASTEIGER

@<TRIPOS>ATOM
      1 C           1.9476    0.6102   27.3233 C.3     1  UNL1        0.1102
      2 C           1.9577    1.5176   26.1291 C.3     1  UNL1        0.0296
      3 C           0.9919    2.6625   26.0488 C.3     1  UNL1        0.0730
      4 N           0.0158    2.8998   27.1629 N.3     1  UNL1       -0.2689
      5 C           0.0056    1.9923   28.3571 C.3     1  UNL1        0.0730
      6 C           0.9715    0.8475   28.4374 C.3     1  UNL1        0.0296
      7 C           2.3215   -0.5156   28.2415 C.2     1  UNL1        0.3177
      8 O           3.1732   -1.6428   27.7377 O.2     1  UNL1       -0.2501
      9 C           2.8176   -0.7369   30.7821 C.3     1  UNL1        0.2556
     10 O           1.8437   -0.5140   29.6633 O.3     1  UNL1       -0.4444
     11 C           3.0534   -0.0181   26.5282 C.3     1  UNL1        0.1002
     12 N           2.8344   -0.3696   25.0865 N.am    1  UNL1       -0.3003
     13 C           3.8926   -1.1134   24.3268 C.2     1  UNL1        0.2459
     14 O           5.1696   -1.5057   25.0088 O.2     1  UNL1       -0.2701
     15 H           1.9962   -0.1121   24.6389 H       1  UNL1        0.1498
     16 C           3.6736   -1.4650   22.8851 C.ar    1  UNL1        0.0550
     17 C           2.6661   -0.7065   22.0729 C.ar    1  UNL1        0.0160
     18 C           2.4471   -1.0580   20.6312 C.ar    1  UNL1        0.0587
     19 CL          1.4396   -0.2995   19.8190 Cl      1  UNL1       -0.0822
     20 C           3.2355   -2.1680   20.0017 C.ar    1  UNL1        0.0228
     21 C           4.2431   -2.9265   20.8139 C.ar    1  UNL1        0.0587
     22 CL          5.0315   -4.0365   20.1845 Cl      1  UNL1       -0.0822
     23 C           4.4621   -2.5750   22.2556 C.ar    1  UNL1        0.0160
     24 C          -0.9501    4.0446   27.0826 C.3     1  UNL1        0.0991
     25 C          -2.1465    3.9547   26.1824 C.ar    1  UNL1       -0.0062
     26 C          -3.5273    4.0758   26.7559 C.ar    1  UNL1       -0.0030
     27 C          -4.7239    3.9859   25.8557 C.ar    1  UNL1        0.0036
     28 C          -4.5397    3.7749   24.3821 C.ar    1  UNL1        0.0714
     29 C          -3.1589    3.6538   23.8087 C.ar    1  UNL1        0.0036
     30 C          -1.9624    3.7437   24.7088 C.ar    1  UNL1       -0.0030
     31 C          -5.7361    3.6851   23.4820 C.3     1  UNL1        0.4186
     32 F          -6.9327    3.5953   22.5819 F       1  UNL1       -0.1659
     33 F          -6.4666    4.6615   24.3555 F       1  UNL1       -0.1659
     34 F          -5.0057    2.7087   22.6085 F       1  UNL1       -0.1659
@<TRIPOS>BOND
     1     9    10    1
     2    10     7    1
     3     7     8    2
     4     7     1    1
     5     1    11    1
     6    11    12    1
     7    12    13   am
     8    13    14    2
     9    13    16    1
    10    16    17   ar
    11    17    18   ar
    12    18    19    1
    13    18    20   ar
    14    20    21   ar
    15    21    22    1
    16    21    23   ar
    17     1     2    1
    18     2     3    1
    19     3     4    1
    20     4    24    1
    21    24    25    1
    22    25    26   ar
    23    26    27   ar
    24    27    28   ar
    25    28    31    1
    26    31    32    1
    27    31    33    1
    28    31    34    1
    29    28    29   ar
    30    29    30   ar
    31     4     5    1
    32     5     6    1
    33     6     1    1
    34    23    16   ar
    35    30    25   ar
    36    12    15    1
@<TRIPOS>MOLECULE
*****
 34 36 0 0 0
SMALL
GASTEIGER

@<TRIPOS>ATOM
      1 C          -0.9078    3.1765   19.5133 C.3     1  UNL1        0.1102
      2 C          -0.5993    2.3608   20.7336 C.3     1  UNL1        0.0296
      3 C           0.7772    1.7986   20.9317 C.3     1  UNL1        0.0730
      4 N           1.8452    2.0523   19.9093 N.3     1  UNL1       -0.2689
      5 C           1.5367    2.8680   18.6890 C.3     1  UNL1        0.0730
      6 C           0.1602    3.4301   18.4909 C.3     1  UNL1        0.0296
      7 C          -1.6804    4.0040   18.5292 C.2     1  UNL1        0.3177
      8 O          -1.4833    3.7966   17.0568 O.2     1  UNL1       -0.2501
      9 C          -3.0861    6.1476   18.1063 C.3     1  UNL1        0.2556
     10 O          -2.6502    5.0389   19.0176 O.3     1  UNL1       -0.4444
     11 C          -2.2440    3.2103   20.1939 C.3     1  UNL1        0.1002
     12 N          -2.3273    3.4565   21.6712 N.am    1  UNL1       -0.3003
     13 C          -3.6660    3.5547   22.3409 C.2     1  UNL1        0.2459
     14 O          -4.9213    3.4067   21.5333 O.2     1  UNL1       -0.2701
     15 H          -1.5034    3.5537   22.2012 H       1  UNL1        0.1498
     16 C          -3.7492    3.8009   23.8182 C.ar    1  UNL1        0.0550
     17 C          -2.6418    3.3402   24.7189 C.ar    1  UNL1        0.0160
     18 C          -2.7251    3.5864   26.1962 C.ar    1  UNL1        0.0587
     19 CL         -1.6176    3.1257   27.0969 Cl      1  UNL1       -0.0822
     20 C          -3.9157    4.2934   26.7728 C.ar    1  UNL1        0.0228
     21 C          -5.0232    4.7542   25.8721 C.ar    1  UNL1        0.0587
     22 CL         -6.2139    5.4611   26.4486 Cl      1  UNL1       -0.0822
     23 C          -4.9400    4.5079   24.3947 C.ar    1  UNL1        0.0160
     24 C           3.2217    1.4901   20.1074 C.3     1  UNL1        0.0991
     25 C           3.4876    0.0409   19.8262 C.ar    1  UNL1       -0.0062
     26 C           3.7366   -0.4167   18.4195 C.ar    1  UNL1       -0.0030
     27 C           4.0026   -1.8659   18.1382 C.ar    1  UNL1        0.0036
     28 C           4.0196   -2.8575   19.2635 C.ar    1  UNL1        0.0714
     29 C           3.7705   -2.3999   20.6702 C.ar    1  UNL1        0.0036
     30 C           3.5046   -0.9507   20.9515 C.ar    1  UNL1       -0.0030
     31 C           4.2855   -4.3067   18.9823 C.3     1  UNL1        0.4186
     32 F           4.5513   -5.7558   18.7010 F       1  UNL1       -0.1659
     33 F           2.8358   -4.5090   18.6544 F       1  UNL1       -0.1659
     34 F           5.7351   -4.1043   19.3101 F       1  UNL1       -0.1659
@<TRIPOS>BOND
     1     9    10    1
     2    10     7    1
     3     7     8    2
     4     7     1    1
     5     1    11    1
     6    11    12    1
     7    12    13   am
     8    13    14    2
     9    13    16    1
    10    16    17   ar
    11    17    18   ar
    12    18    19    1
    13    18    20   ar
    14    20    21   ar
    15    21    22    1
    16    21    23   ar
    17     1     2    1
    18     2     3    1
    19     3     4    1
    20     4    24    1
    21    24    25    1
    22    25    26   ar
    23    26    27   ar
    24    27    28   ar
    25    28    31    1
    26    31    32    1
    27    31    33    1
    28    31    34    1
    29    28    29   ar
    30    29    30   ar
    31     4     5    1
    32     5     6    1
    33     6     1    1
    34    23    16   ar
    35    30    25   ar
    36    12    15    1
@<TRIPOS>MOLECULE
*****
 34 36 0 0 0
SMALL
GASTEIGER

@<TRIPOS>ATOM
      1 C           1.1042    1.3108   25.9705 C.3     1  UNL1        0.1102
      2 C           2.6037    1.2755   25.9829 C.3     1  UNL1        0.0296
      3 C           3.3619    1.1620   24.6937 C.3     1  UNL1        0.0730
      4 N           2.6206    1.0838   23.3920 N.3     1  UNL1       -0.2689
      5 C           1.1211    1.1191   23.3796 C.3     1  UNL1        0.0730
      6 C           0.3629    1.2326   24.6688 C.3     1  UNL1        0.0296
      7 C          -0.3083    1.3818   26.4705 C.2     1  UNL1        0.3177
      8 O          -0.7366    0.5335   27.6310 O.2     1  UNL1       -0.2501
      9 C          -2.0554    3.2980   26.6310 C.3     1  UNL1        0.2556
     10 O          -1.2923    2.3012   25.8100 O.3     1  UNL1       -0.4444
     11 C           1.3550    1.4137   27.4458 C.3     1  UNL1        0.1002
     12 N           2.4680    0.6285   28.0739 N.am    1  UNL1       -0.3003
     13 C           2.3746    0.2142   29.5126 C.2     1  UNL1        0.2459
     14 O           1.1682    0.5852   30.3231 O.2     1  UNL1       -0.2701
     15 H           3.2598    0.3850   27.5420 H       1  UNL1        0.1498
     16 C           3.4877   -0.5710   30.1407 C.ar    1  UNL1        0.0550
     17 C           3.3960   -0.9821   31.5804 C.ar    1  UNL1        0.0160
     18 C           4.5090   -1.7673   32.2085 C.ar    1  UNL1        0.0587
     19 CL          4.4173   -2.1784   33.6482 Cl      1  UNL1       -0.0822
     20 C           5.7137   -2.1415   31.3970 C.ar    1  UNL1        0.0228
     21 C           5.8055   -1.7305   29.9573 C.ar    1  UNL1        0.0587
     22 CL          7.0102   -2.1047   29.1458 Cl      1  UNL1       -0.0822
     23 C           4.6924   -0.9452   29.3291 C.ar    1  UNL1        0.0160
     24 C           3.3788    0.9703   22.1027 C.3     1  UNL1        0.0991
     25 C           3.5809   -0.3733   21.4673 C.ar    1  UNL1       -0.0062
     26 C           3.2581   -0.5728   20.0160 C.ar    1  UNL1       -0.0030
     27 C           3.4601   -1.9165   19.3805 C.ar    1  UNL1        0.0036
     28 C           3.9850   -3.0606   20.1962 C.ar    1  UNL1        0.0714
     29 C           4.3079   -2.8611   21.6475 C.ar    1  UNL1        0.0036
     30 C           4.1058   -1.5175   22.2829 C.ar    1  UNL1       -0.0030
     31 C           4.1871   -4.4042   19.5607 C.3     1  UNL1        0.4186
     32 F           4.3890   -5.7478   18.9252 F       1  UNL1       -0.1659
     33 F           2.7629   -4.3957   19.0900 F       1  UNL1       -0.1659
     34 F           5.6112   -4.4127   20.0315 F       1  UNL1       -0.1659
@<TRIPOS>BOND
     1     9    10    1
     2    10     7    1
     3     7     8    2
     4     7     1    1
     5     1    11    1
     6    11    12    1
     7    12    13   am
     8    13    14    2
     9    13    16    1
    10    16    17   ar
    11    17    18   ar
    12    18    19    1
    13    18    20   ar
    14    20    21   ar
    15    21    22    1
    16    21    23   ar
    17     1     2    1
    18     2     3    1
    19     3     4    1
    20     4    24    1
    21    24    25    1
    22    25    26   ar
    23    26    27   ar
    24    27    28   ar
    25    28    31    1
    26    31    32    1
    27    31    33    1
    28    31    34    1
    29    28    29   ar
    30    29    30   ar
    31     4     5    1
    32     5     6    1
    33     6     1    1
    34    23    16   ar
    35    30    25   ar
    36    12    15    1
@<TRIPOS>MOLECULE
*****
 34 36 0 0 0
SMALL
GASTEIGER

@<TRIPOS>ATOM
      1 C           0.5554    1.8379   25.1886 C.3     1  UNL1        0.1102
      2 C           0.1411    2.6309   23.9847 C.3     1  UNL1        0.0296
      3 C           0.9533    2.5621   22.7255 C.3     1  UNL1        0.0730
      4 N           2.1799    1.7004   22.6703 N.3     1  UNL1       -0.2689
      5 C           2.5942    0.9074   23.8742 C.3     1  UNL1        0.0730
      6 C           1.7820    0.9762   25.1334 C.3     1  UNL1        0.0296
      7 C           0.5422    1.2765   26.5796 C.2     1  UNL1        0.3177
      8 O           1.8164    0.7909   27.2045 O.2     1  UNL1       -0.2501
      9 C          -0.9517    0.1151   28.3599 C.3     1  UNL1        0.2556
     10 O          -0.7452    1.2006   27.3455 O.3     1  UNL1       -0.4444
     11 C          -0.6757    2.5046   25.7269 C.3     1  UNL1        0.1002
     12 N          -1.8194    2.8208   24.8094 N.am    1  UNL1       -0.3003
     13 C          -3.1025    3.3603   25.3686 C.2     1  UNL1        0.2459
     14 O          -3.2418    3.5836   26.8453 O.2     1  UNL1       -0.2701
     15 H          -1.7280    2.6742   23.8401 H       1  UNL1        0.1498
     16 C          -4.2463    3.6764   24.4511 C.ar    1  UNL1        0.0550
     17 C          -4.1651    3.3122   22.9983 C.ar    1  UNL1        0.0160
     18 C          -5.3089    3.6283   22.0807 C.ar    1  UNL1        0.0587
     19 CL         -5.2277    3.2640   20.6278 Cl      1  UNL1       -0.0822
     20 C          -6.5338    4.3087   22.6160 C.ar    1  UNL1        0.0228
     21 C          -6.6150    4.6731   24.0688 C.ar    1  UNL1        0.0587
     22 CL         -7.8399    5.3535   24.6041 Cl      1  UNL1       -0.0822
     23 C          -5.4713    4.3569   24.9864 C.ar    1  UNL1        0.0160
     24 C           2.9921    1.6317   21.4111 C.3     1  UNL1        0.0991
     25 C           3.3235    0.3007   20.8041 C.ar    1  UNL1       -0.0062
     26 C           4.7557   -0.1193   20.6535 C.ar    1  UNL1       -0.0030
     27 C           5.0872   -1.4503   20.0465 C.ar    1  UNL1        0.0036
     28 C           3.9865   -2.3615   19.5900 C.ar    1  UNL1        0.0714
     29 C           2.5544   -1.9415   19.7406 C.ar    1  UNL1        0.0036
     30 C           2.2229   -0.6105   20.3476 C.ar    1  UNL1       -0.0030
     31 C           4.3180   -3.6925   18.9830 C.3     1  UNL1        0.4186
     32 F           4.6495   -5.0234   18.3759 F       1  UNL1       -0.1659
     33 F           5.4743   -3.0728   18.2557 F       1  UNL1       -0.1659
     34 F           3.1618   -4.3121   19.7103 F       1  UNL1       -0.1659
@<TRIPOS>BOND
     1     9    10    1
     2    10     7    1
     3     7     8    2
     4     7     1    1
     5     1    11    1
     6    11    12    1
     7    12    13   am
     8    13    14    2
     9    13    16    1
    10    16    17   ar
    11    17    18   ar
    12    18    19    1
    13    18    20   ar
    14    20    21   ar
    15    21    22    1
    16    21    23   ar
    17     1     2    1
    18     2     3    1
    19     3     4    1
    20     4    24    1
    21    24    25    1
    22    25    26   ar
    23    26    27   ar
    24    27    28   ar
    25    28    31    1
    26    31    32    1
    27    31    33    1
    28    31    34    1
    29    28    29   ar
    30    29    30   ar
    31     4     5    1
    32     5     6    1
    33     6     1    1
    34    23    16   ar
    35    30    25   ar
    36    12    15    1
@<TRIPOS>MOLECULE
*****
 34 36 0 0 0
SMALL
GASTEIGER

@<TRIPOS>ATOM
      1 C           2.4704    0.0765   28.6724 C.3     1  UNL1        0.1102
      2 C           3.9352   -0.0115   28.3618 C.3     1  UNL1        0.0296
      3 C           4.8920   -0.5242   29.3971 C.3     1  UNL1        0.0730
      4 N           4.3838   -0.9488   30.7430 N.3     1  UNL1       -0.2689
      5 C           2.9190   -0.8608   31.0536 C.3     1  UNL1        0.0730
      6 C           1.9623   -0.3482   30.0183 C.3     1  UNL1        0.0296
      7 C           1.0053    0.3442   28.4940 C.2     1  UNL1        0.3177
      8 O           0.5443    1.3445   27.4758 O.2     1  UNL1       -0.2501
      9 C          -1.4538   -0.3439   28.9726 C.3     1  UNL1        0.2556
     10 O           0.0013   -0.3883   29.3338 O.3     1  UNL1       -0.4444
     11 C           2.4698    0.5941   27.2645 C.3     1  UNL1        0.1002
     12 N           2.8165   -0.3220   26.1285 N.am    1  UNL1       -0.3003
     13 C           2.9523    0.2252   24.7384 C.2     1  UNL1        0.2459
     14 O           2.7415    1.6884   24.4845 O.2     1  UNL1       -0.2701
     15 H           2.9549   -1.2824   26.2951 H       1  UNL1        0.1498
     16 C           3.2990   -0.6908   23.6024 C.ar    1  UNL1        0.0550
     17 C           4.2353   -1.8413   23.8255 C.ar    1  UNL1        0.0160
     18 C           4.5820   -2.7573   22.6894 C.ar    1  UNL1        0.0587
     19 CL          5.5182   -3.9079   22.9126 Cl      1  UNL1       -0.0822
     20 C           3.9924   -2.5229   21.3302 C.ar    1  UNL1        0.0228
     21 C           3.0561   -1.3724   21.1070 C.ar    1  UNL1        0.0587
     22 CL          2.4666   -1.1380   19.7479 Cl      1  UNL1       -0.0822
     23 C           2.7094   -0.4563   22.2431 C.ar    1  UNL1        0.0160
     24 C           5.3405   -1.4614   31.7784 C.3     1  UNL1        0.0991
     25 C           5.4148   -0.8013   33.1232 C.ar    1  UNL1       -0.0062
     26 C           4.6066   -1.3376   34.2676 C.ar    1  UNL1       -0.0030
     27 C           4.6808   -0.6775   35.6125 C.ar    1  UNL1        0.0036
     28 C           5.5632    0.5188   35.8131 C.ar    1  UNL1        0.0714
     29 C           6.3713    1.0551   34.6688 C.ar    1  UNL1        0.0036
     30 C           6.2970    0.3950   33.3239 C.ar    1  UNL1       -0.0030
     31 C           5.6374    1.1789   37.1580 C.3     1  UNL1        0.4186
     32 F           5.7117    1.8391   38.5028 F       1  UNL1       -0.1659
     33 F           6.8446    1.9499   36.7129 F       1  UNL1       -0.1659
     34 F           4.4302    0.4080   37.6031 F       1  UNL1       -0.1659
@<TRIPOS>BOND
     1     9    10    1
     2    10     7    1
     3     7     8    2
     4     7     1    1
     5     1    11    1
     6    11    12    1
     7    12    13   am
     8    13    14    2
     9    13    16    1
    10    16    17   ar
    11    17    18   ar
    12    18    19    1
    13    18    20   ar
    14    20    21   ar
    15    21    22    1
    16    21    23   ar
    17     1     2    1
    18     2     3    1
    19     3     4    1
    20     4    24    1
    21    24    25    1
    22    25    26   ar
    23    26    27   ar
    24    27    28   ar
    25    28    31    1
    26    31    32    1
    27    31    33    1
    28    31    34    1
    29    28    29   ar
    30    29    30   ar
    31     4     5    1
    32     5     6    1
    33     6     1    1
    34    23    16   ar
    35    30    25   ar
    36    12    15    1
