@<TRIPOS>MOLECULE
*****
 33 36 0 0 0
SMALL
GASTEIGER

@<TRIPOS>ATOM
      1 C         -15.1276   -0.6636   19.2184 C.ar    1  UNL1        0.0701
      2 C         -14.5005    0.1846   18.1519 C.ar    1  UNL1        0.1047
      3 N         -13.1810   -0.4289   17.7878 N.ar    1  UNL1       -0.2242
      4 N         -12.1268   -0.0284   16.7988 N.ar    1  UNL1       -0.1422
      5 C         -10.8841   -0.8554   16.6512 C.ar    1  UNL1        0.2211
      6 N         -10.6957   -2.0828   17.4926 N.ar    1  UNL1       -0.2060
      7 C         -11.7499   -2.4832   18.4816 C.ar    1  UNL1        0.1515
      8 C         -12.9926   -1.6563   18.6292 C.ar    1  UNL1        0.1107
      9 C         -14.1956   -1.8013   19.5133 C.ar    1  UNL1        0.0045
     10 C         -14.4262   -2.8926   20.5163 C.3     1  UNL1        0.0329
     11 N         -16.7255    0.8955   20.5472 N.am    1  UNL1       -0.3008
     12 C         -16.4538   -0.4174   19.8746 C.2     1  UNL1        0.2471
     13 O         -17.5082   -1.4840   19.8582 O.2     1  UNL1       -0.2701
     14 H         -16.0334    1.5956   20.5580 H       1  UNL1        0.1497
     15 C         -18.0516    1.1417   21.2035 C.3     1  UNL1        0.0897
     16 C         -17.3216    2.2981   23.4126 C.3     1  UNL1        0.0018
     17 C         -18.2011    2.2545   22.1982 C.3     1  UNL1        0.0213
     18 N         -11.5615   -3.7106   19.3230 N.pl3   1  UNL1       -0.2969
     19 H         -11.2859   -3.6247   20.2642 H       1  UNL1        0.1536
     20 C         -11.7928   -5.0690   18.7303 C.ar    1  UNL1        0.0455
     21 C         -13.1441   -5.7121   18.8336 C.ar    1  UNL1        0.0188
     22 C         -13.3755   -7.0705   18.2409 C.ar    1  UNL1        0.0546
     23 C         -12.2557   -7.7858   17.5450 C.ar    1  UNL1        0.0043
     24 C         -10.9045   -7.1427   17.4417 C.ar    1  UNL1       -0.0029
     25 C         -10.6730   -5.7843   18.0344 C.ar    1  UNL1       -0.0084
     26 C          -9.3218   -5.1413   17.9311 C.3     1  UNL1        0.0323
     27 C         -14.7267   -7.7136   18.3442 C.2     1  UNL1        0.2458
     28 O         -15.9442   -6.9824   17.8613 O.2     1  UNL1       -0.2701
     29 N         -14.8604   -9.0878   18.9303 N.am    1  UNL1       -0.3025
     30 H         -14.0614   -9.5677   19.2472 H       1  UNL1        0.1497
     31 C         -16.2116   -9.7309   19.0336 C.3     1  UNL1        0.0720
     32 C         -17.1515  -10.8436   18.6750 C.3     1  UNL1        0.0213
     33 C         -17.6120   -9.7322   19.5710 C.3     1  UNL1        0.0213
@<TRIPOS>BOND
     1    16    17    1
     2    17    15    1
     3    15    11    1
     4    11    12   am
     5    12    13    2
     6    12     1    1
     7     1     2   ar
     8     2     3   ar
     9     3     4   ar
    10     4     5   ar
    11     5     6   ar
    12     6     7   ar
    13     7    18    1
    14    18    20    1
    15    20    21   ar
    16    21    22   ar
    17    22    27    1
    18    27    28    2
    19    27    29   am
    20    29    31    1
    21    31    32    1
    22    32    33    1
    23    22    23   ar
    24    23    24   ar
    25    24    25   ar
    26    25    26    1
    27     7     8   ar
    28     8     9   ar
    29     9    10    1
    30     9     1   ar
    31     8     3   ar
    32    25    20   ar
    33    33    31    1
    34    11    14    1
    35    18    19    1
    36    29    30    1
@<TRIPOS>MOLECULE
*****
 33 36 0 0 0
SMALL
GASTEIGER

@<TRIPOS>ATOM
      1 C         -14.1393   -7.0267   18.7650 C.ar    1  UNL1        0.0701
      2 C         -12.9588   -7.5426   17.9966 C.ar    1  UNL1        0.1047
      3 N         -11.8909   -6.4896   18.0253 N.ar    1  UNL1       -0.2242
      4 N         -10.5118   -6.4425   17.4372 N.ar    1  UNL1       -0.1422
      5 C          -9.6532   -5.2287   17.6352 C.ar    1  UNL1        0.2211
      6 N         -10.1736   -4.0619   18.4213 N.ar    1  UNL1       -0.2060
      7 C         -11.5527   -4.1091   19.0094 C.ar    1  UNL1        0.1515
      8 C         -12.4113   -5.3229   18.8114 C.ar    1  UNL1        0.1107
      9 C         -13.8009   -5.6548   19.2685 C.ar    1  UNL1        0.0045
     10 C         -14.6950   -4.7702   20.0858 C.3     1  UNL1        0.0329
     11 N         -15.4208   -9.1421   19.5604 N.am    1  UNL1       -0.3008
     12 C         -15.4312   -7.7547   18.9903 C.2     1  UNL1        0.2471
     13 O         -16.7337   -7.0954   18.6454 O.2     1  UNL1       -0.2701
     14 H         -14.5660   -9.5748   19.7868 H       1  UNL1        0.1497
     15 C         -16.7128   -9.8701   19.7857 C.3     1  UNL1        0.0897
     16 C         -18.4073  -10.4110   17.8919 C.3     1  UNL1        0.0018
     17 C         -17.2362  -10.8099   18.7402 C.3     1  UNL1        0.0213
     18 N         -12.0731   -2.9424   19.7955 N.pl3   1  UNL1       -0.2969
     19 H         -11.8523   -2.8548   20.7509 H       1  UNL1        0.1536
     20 C         -12.9298   -1.9091   19.1259 C.ar    1  UNL1        0.0455
     21 C         -14.4067   -1.8759   19.3866 C.ar    1  UNL1        0.0188
     22 C         -15.2634   -0.8427   18.7171 C.ar    1  UNL1        0.0546
     23 C         -14.6434    0.1574   17.7868 C.ar    1  UNL1        0.0043
     24 C         -13.1666    0.1242   17.5260 C.ar    1  UNL1       -0.0029
     25 C         -12.3098   -0.9091   18.1956 C.ar    1  UNL1       -0.0084
     26 C         -10.8330   -0.9422   17.9349 C.3     1  UNL1        0.0323
     27 C         -16.7403   -0.8095   18.9778 C.2     1  UNL1        0.2458
     28 O         -17.6421   -0.0123   18.0828 O.2     1  UNL1       -0.2701
     29 N         -17.3152   -1.5736   20.1335 N.am    1  UNL1       -0.3025
     30 H         -16.7232   -2.0969   20.7209 H       1  UNL1        0.1497
     31 C         -18.7919   -1.5405   20.3942 C.3     1  UNL1        0.0720
     32 C         -20.0866   -2.2616   20.6261 C.3     1  UNL1        0.0213
     33 C         -20.0551   -0.7620   20.6139 C.3     1  UNL1        0.0213
@<TRIPOS>BOND
     1    16    17    1
     2    17    15    1
     3    15    11    1
     4    11    12   am
     5    12    13    2
     6    12     1    1
     7     1     2   ar
     8     2     3   ar
     9     3     4   ar
    10     4     5   ar
    11     5     6   ar
    12     6     7   ar
    13     7    18    1
    14    18    20    1
    15    20    21   ar
    16    21    22   ar
    17    22    27    1
    18    27    28    2
    19    27    29   am
    20    29    31    1
    21    31    32    1
    22    32    33    1
    23    22    23   ar
    24    23    24   ar
    25    24    25   ar
    26    25    26    1
    27     7     8   ar
    28     8     9   ar
    29     9    10    1
    30     9     1   ar
    31     8     3   ar
    32    25    20   ar
    33    33    31    1
    34    11    14    1
    35    18    19    1
    36    29    30    1
@<TRIPOS>MOLECULE
*****
 33 36 0 0 0
SMALL
GASTEIGER

@<TRIPOS>ATOM
      1 C           6.8043   -4.4294   26.7855 C.ar    1  UNL1        0.0701
      2 C           6.8768   -5.6809   27.6092 C.ar    1  UNL1        0.1047
      3 N           6.8876   -5.2839   29.0556 N.ar    1  UNL1       -0.2242
      4 N           6.9488   -6.0920   30.3178 N.ar    1  UNL1       -0.1422
      5 C           6.9443   -5.4032   31.6503 C.ar    1  UNL1        0.2211
      6 N           6.8785   -3.9063   31.7206 N.ar    1  UNL1       -0.2060
      7 C           6.8173   -3.0982   30.4584 C.ar    1  UNL1        0.1515
      8 C           6.8218   -3.7870   29.1259 C.ar    1  UNL1        0.1107
      9 C           6.7704   -3.2589   27.7229 C.ar    1  UNL1        0.0045
     10 C           6.6977   -1.8140   27.3268 C.3     1  UNL1        0.0329
     11 N           5.6527   -3.6414   24.5940 N.am    1  UNL1       -0.3008
     12 C           6.7716   -4.3606   25.2874 C.2     1  UNL1        0.2471
     13 O           7.8577   -5.0109   24.4828 O.2     1  UNL1       -0.2701
     14 H           4.9399   -3.2145   25.1221 H       1  UNL1        0.1497
     15 C           5.6200   -3.5725   23.0959 C.3     1  UNL1        0.0897
     16 C           3.8402   -1.6890   22.9081 C.3     1  UNL1        0.0018
     17 C           4.4379   -2.9670   22.3986 C.3     1  UNL1        0.0213
     18 N           6.7515   -1.6013   30.5286 N.pl3   1  UNL1       -0.2969
     19 H           7.4291   -1.0566   30.0666 H       1  UNL1        0.1536
     20 C           5.6535   -0.9343   31.3028 C.ar    1  UNL1        0.0455
     21 C           4.3364   -0.6505   30.6434 C.ar    1  UNL1        0.0188
     22 C           3.2384    0.0165   31.4176 C.ar    1  UNL1        0.0546
     23 C           3.4573    0.3996   32.8512 C.ar    1  UNL1        0.0043
     24 C           4.7744    0.1158   33.5106 C.ar    1  UNL1       -0.0029
     25 C           5.8725   -0.5512   32.7364 C.ar    1  UNL1       -0.0084
     26 C           7.1895   -0.8350   33.3959 C.3     1  UNL1        0.0323
     27 C           1.9212    0.3003   30.7582 C.2     1  UNL1        0.2458
     28 O           1.0352    1.3876   31.2898 O.2     1  UNL1       -0.2701
     29 N           1.4902   -0.5033   29.5672 N.am    1  UNL1       -0.3025
     30 H           2.0717   -1.2169   29.2183 H       1  UNL1        0.1497
     31 C           0.1732   -0.2195   28.9078 C.3     1  UNL1        0.0720
     32 C          -1.2642   -0.5764   28.6702 C.3     1  UNL1        0.0213
     33 C          -0.6706    0.6289   28.0033 C.3     1  UNL1        0.0213
@<TRIPOS>BOND
     1    16    17    1
     2    17    15    1
     3    15    11    1
     4    11    12   am
     5    12    13    2
     6    12     1    1
     7     1     2   ar
     8     2     3   ar
     9     3     4   ar
    10     4     5   ar
    11     5     6   ar
    12     6     7   ar
    13     7    18    1
    14    18    20    1
    15    20    21   ar
    16    21    22   ar
    17    22    27    1
    18    27    28    2
    19    27    29   am
    20    29    31    1
    21    31    32    1
    22    32    33    1
    23    22    23   ar
    24    23    24   ar
    25    24    25   ar
    26    25    26    1
    27     7     8   ar
    28     8     9   ar
    29     9    10    1
    30     9     1   ar
    31     8     3   ar
    32    25    20   ar
    33    33    31    1
    34    11    14    1
    35    18    19    1
    36    29    30    1
@<TRIPOS>MOLECULE
*****
 33 36 0 0 0
SMALL
GASTEIGER

@<TRIPOS>ATOM
      1 C         -11.5046   -2.8338   18.1036 C.ar    1  UNL1        0.0701
      2 C         -11.5767   -1.6689   17.1614 C.ar    1  UNL1        0.1047
      3 N         -12.8259   -0.8986   17.4713 N.ar    1  UNL1       -0.2242
      4 N         -13.4165    0.3411   16.8676 N.ar    1  UNL1       -0.1422
      5 C         -14.7071    0.8918   17.3976 C.ar    1  UNL1        0.2211
      6 N         -15.4071    0.2030   18.5314 N.ar    1  UNL1       -0.2060
      7 C         -14.8166   -1.0367   19.1351 C.ar    1  UNL1        0.1515
      8 C         -13.5260   -1.5874   18.6050 C.ar    1  UNL1        0.1107
      9 C         -12.7094   -2.7834   18.9958 C.ar    1  UNL1        0.0045
     10 C         -13.0395   -3.7580   20.0872 C.3     1  UNL1        0.0329
     11 N         -10.3173   -4.8014   19.3156 N.am    1  UNL1       -0.3008
     12 C         -10.4185   -3.8675   18.1461 C.2     1  UNL1        0.2471
     13 O          -9.4336   -3.9674   17.0192 O.2     1  UNL1       -0.2701
     14 H         -10.9637   -4.7358   20.0552 H       1  UNL1        0.1497
     15 C          -9.2312   -5.8351   19.3581 C.3     1  UNL1        0.0897
     16 C         -10.4708   -7.5489   17.8493 C.3     1  UNL1        0.0018
     17 C          -9.5328   -7.2557   18.9825 C.3     1  UNL1        0.0213
     18 N         -15.5166   -1.7255   20.2688 N.pl3   1  UNL1       -0.2969
     19 H         -15.2606   -1.5273   21.1986 H       1  UNL1        0.1536
     20 C         -16.6067   -2.7163   19.9860 C.ar    1  UNL1        0.0455
     21 C         -16.2704   -4.1642   19.7842 C.ar    1  UNL1        0.0188
     22 C         -17.3605   -5.1550   19.5014 C.ar    1  UNL1        0.0546
     23 C         -18.7869   -4.6980   19.4205 C.ar    1  UNL1        0.0043
     24 C         -19.1232   -3.2502   19.6223 C.ar    1  UNL1       -0.0029
     25 C         -18.0331   -2.2593   19.9051 C.ar    1  UNL1       -0.0084
     26 C         -18.3694   -0.8115   20.1069 C.3     1  UNL1        0.0323
     27 C         -17.0242   -6.6028   19.2996 C.2     1  UNL1        0.2458
     28 O         -15.5915   -7.0469   19.2978 O.2     1  UNL1       -0.2701
     29 N         -18.1208   -7.6066   19.0996 N.am    1  UNL1       -0.3025
     30 H         -19.0611   -7.3152   19.1008 H       1  UNL1        0.1497
     31 C         -17.7846   -9.0544   18.8978 C.3     1  UNL1        0.0720
     32 C         -17.0888  -10.3023   19.3545 C.3     1  UNL1        0.0213
     33 C         -17.8980  -10.3142   18.0916 C.3     1  UNL1        0.0213
@<TRIPOS>BOND
     1    16    17    1
     2    17    15    1
     3    15    11    1
     4    11    12   am
     5    12    13    2
     6    12     1    1
     7     1     2   ar
     8     2     3   ar
     9     3     4   ar
    10     4     5   ar
    11     5     6   ar
    12     6     7   ar
    13     7    18    1
    14    18    20    1
    15    20    21   ar
    16    21    22   ar
    17    22    27    1
    18    27    28    2
    19    27    29   am
    20    29    31    1
    21    31    32    1
    22    32    33    1
    23    22    23   ar
    24    23    24   ar
    25    24    25   ar
    26    25    26    1
    27     7     8   ar
    28     8     9   ar
    29     9    10    1
    30     9     1   ar
    31     8     3   ar
    32    25    20   ar
    33    33    31    1
    34    11    14    1
    35    18    19    1
    36    29    30    1
@<TRIPOS>MOLECULE
*****
 33 36 0 0 0
SMALL
GASTEIGER

@<TRIPOS>ATOM
      1 C           7.2786   -3.7211   20.7953 C.ar    1  UNL1        0.0701
      2 C           7.9226   -2.8572   19.7518 C.ar    1  UNL1        0.1047
      3 N           6.8700   -1.9501   19.1868 N.ar    1  UNL1       -0.2242
      4 N           6.9231   -0.8871   18.1298 N.ar    1  UNL1       -0.1422
      5 C           5.6816   -0.1275   17.7672 C.ar    1  UNL1        0.2211
      6 N           4.3871   -0.4308   18.4615 N.ar    1  UNL1       -0.2060
      7 C           4.3340   -1.4937   19.5185 C.ar    1  UNL1        0.1515
      8 C           5.5755   -2.2534   19.8812 C.ar    1  UNL1        0.1107
      9 C           5.8280   -3.3479   20.8753 C.ar    1  UNL1        0.0045
     10 C           4.8088   -3.9615   21.7889 C.3     1  UNL1        0.0329
     11 N           8.1204   -4.5880   23.0953 N.am    1  UNL1       -0.3008
     12 C           7.9648   -4.7734   21.6150 C.2     1  UNL1        0.2471
     13 O           8.4952   -6.0112   20.9544 O.2     1  UNL1       -0.2701
     14 H           7.7723   -3.7756   23.5289 H       1  UNL1        0.1497
     15 C           8.8066   -5.6403   23.9150 C.3     1  UNL1        0.0897
     16 C           8.3897   -7.7043   25.4368 C.3     1  UNL1        0.0018
     17 C           8.1316   -6.9569   24.1622 C.3     1  UNL1        0.0213
     18 N           3.0394   -1.7970   20.2128 N.pl3   1  UNL1       -0.2969
     19 H           2.5217   -2.5960   19.9620 H       1  UNL1        0.1536
     20 C           2.5336   -0.8830   21.2892 C.ar    1  UNL1        0.0455
     21 C           3.1271   -0.9444   22.6655 C.ar    1  UNL1        0.0188
     22 C           2.6213   -0.0304   23.7418 C.ar    1  UNL1        0.0546
     23 C           1.5219    0.9451   23.4421 C.ar    1  UNL1        0.0043
     24 C           0.9283    1.0065   22.0659 C.ar    1  UNL1       -0.0029
     25 C           1.4342    0.0925   20.9894 C.ar    1  UNL1       -0.0084
     26 C           0.8406    0.1539   19.6133 C.3     1  UNL1        0.0323
     27 C           3.2148   -0.0918   25.1181 C.2     1  UNL1        0.2458
     28 O           3.4127    1.1689   25.9065 O.2     1  UNL1       -0.2701
     29 N           3.6105   -1.4138   25.7059 N.am    1  UNL1       -0.3025
     30 H           3.4806   -2.2413   25.1885 H       1  UNL1        0.1497
     31 C           4.2040   -1.4753   27.0821 C.3     1  UNL1        0.0720
     32 C           5.2788   -1.9528   28.0131 C.3     1  UNL1        0.0213
     33 C           4.1573   -1.1043   28.5347 C.3     1  UNL1        0.0213
@<TRIPOS>BOND
     1    16    17    1
     2    17    15    1
     3    15    11    1
     4    11    12   am
     5    12    13    2
     6    12     1    1
     7     1     2   ar
     8     2     3   ar
     9     3     4   ar
    10     4     5   ar
    11     5     6   ar
    12     6     7   ar
    13     7    18    1
    14    18    20    1
    15    20    21   ar
    16    21    22   ar
    17    22    27    1
    18    27    28    2
    19    27    29   am
    20    29    31    1
    21    31    32    1
    22    32    33    1
    23    22    23   ar
    24    23    24   ar
    25    24    25   ar
    26    25    26    1
    27     7     8   ar
    28     8     9   ar
    29     9    10    1
    30     9     1   ar
    31     8     3   ar
    32    25    20   ar
    33    33    31    1
    34    11    14    1
    35    18    19    1
    36    29    30    1
@<TRIPOS>MOLECULE
*****
 33 36 0 0 0
SMALL
GASTEIGER

@<TRIPOS>ATOM
      1 C         -17.9011   -5.6360   18.9847 C.ar    1  UNL1        0.0701
      2 C         -18.6967   -4.8066   19.9486 C.ar    1  UNL1        0.1047
      3 N         -18.2357   -3.3844   19.8266 N.ar    1  UNL1       -0.2242
      4 N         -18.6602   -2.1281   20.5276 N.ar    1  UNL1       -0.1422
      5 C         -18.0042   -0.8222   20.1894 C.ar    1  UNL1        0.2211
      6 N         -16.9237   -0.7727   19.1501 N.ar    1  UNL1       -0.2060
      7 C         -16.4992   -2.0290   18.4491 C.ar    1  UNL1        0.1515
      8 C         -17.1552   -3.3348   18.7874 C.ar    1  UNL1        0.1107
      9 C         -16.9484   -4.7264   18.2671 C.ar    1  UNL1        0.0045
     10 C         -15.9621   -5.1364   17.2140 C.3     1  UNL1        0.0329
     11 N         -17.3477   -8.0697   19.7064 N.am    1  UNL1       -0.3008
     12 C         -18.0347   -7.1153   18.7753 C.2     1  UNL1        0.2471
     13 O         -18.8554   -7.6402   17.6348 O.2     1  UNL1       -0.2701
     14 H         -16.8090   -7.7252   20.4550 H       1  UNL1        0.1497
     15 C         -17.4813   -9.5490   19.4970 C.3     1  UNL1        0.0897
     16 C         -15.3509   -9.5800   18.0102 C.3     1  UNL1        0.0018
     17 C         -16.5979  -10.2492   18.5073 C.3     1  UNL1        0.0213
     18 N         -15.4187   -1.9795   17.4099 N.pl3   1  UNL1       -0.2969
     19 H         -15.6530   -2.0125   16.4542 H       1  UNL1        0.1536
     20 C         -13.9813   -1.8796   17.8266 C.ar    1  UNL1        0.0455
     21 C         -13.1600   -3.1240   17.9916 C.ar    1  UNL1        0.0188
     22 C         -11.7225   -3.0241   18.4083 C.ar    1  UNL1        0.0546
     23 C         -11.1063   -1.6799   18.6602 C.ar    1  UNL1        0.0043
     24 C         -11.9275   -0.4356   18.4952 C.ar    1  UNL1       -0.0029
     25 C         -13.3650   -0.5354   18.0784 C.ar    1  UNL1       -0.0084
     26 C         -14.1862    0.7089   17.9135 C.3     1  UNL1        0.0323
     27 C         -10.9012   -4.2685   18.5733 C.2     1  UNL1        0.2458
     28 O          -9.5975   -4.2141   19.3131 O.2     1  UNL1       -0.2701
     29 N         -11.3837   -5.5672   17.9984 N.am    1  UNL1       -0.3025
     30 H         -12.2394   -5.6029   17.5129 H       1  UNL1        0.1497
     31 C         -10.5625   -6.8115   18.1633 C.3     1  UNL1        0.0720
     32 C         -10.2317   -8.2142   17.7474 C.3     1  UNL1        0.0213
     33 C          -9.4710   -7.5641   18.8649 C.3     1  UNL1        0.0213
@<TRIPOS>BOND
     1    16    17    1
     2    17    15    1
     3    15    11    1
     4    11    12   am
     5    12    13    2
     6    12     1    1
     7     1     2   ar
     8     2     3   ar
     9     3     4   ar
    10     4     5   ar
    11     5     6   ar
    12     6     7   ar
    13     7    18    1
    14    18    20    1
    15    20    21   ar
    16    21    22   ar
    17    22    27    1
    18    27    28    2
    19    27    29   am
    20    29    31    1
    21    31    32    1
    22    32    33    1
    23    22    23   ar
    24    23    24   ar
    25    24    25   ar
    26    25    26    1
    27     7     8   ar
    28     8     9   ar
    29     9    10    1
    30     9     1   ar
    31     8     3   ar
    32    25    20   ar
    33    33    31    1
    34    11    14    1
    35    18    19    1
    36    29    30    1
@<TRIPOS>MOLECULE
*****
 33 36 0 0 0
SMALL
GASTEIGER

@<TRIPOS>ATOM
      1 C           0.6304    2.6012   19.9067 C.ar    1  UNL1        0.0701
      2 C           1.6906    3.4755   19.3054 C.ar    1  UNL1        0.1047
      3 N           2.8258    2.5961   18.8719 N.ar    1  UNL1       -0.2242
      4 N           4.1397    2.9032   18.2167 N.ar    1  UNL1       -0.1422
      5 C           5.0950    1.7925   17.8948 C.ar    1  UNL1        0.2211
      6 N           4.7364    0.3746   18.2281 N.ar    1  UNL1       -0.2060
      7 C           3.4225    0.0675   18.8833 C.ar    1  UNL1        0.1515
      8 C           2.4672    1.1783   19.2052 C.ar    1  UNL1        0.1107
      9 C           1.1104    1.1814   19.8447 C.ar    1  UNL1        0.0045
     10 C           0.3645   -0.0237   20.3361 C.3     1  UNL1        0.0329
     11 N          -1.6719    3.7621   19.5877 N.am    1  UNL1       -0.3008
     12 C          -0.6798    3.0652   20.4708 C.2     1  UNL1        0.2471
     13 O          -0.9978    2.8323   21.9181 O.2     1  UNL1       -0.2701
     14 H          -1.4632    3.9150   18.6378 H       1  UNL1        0.1497
     15 C          -2.9820    4.2261   20.1518 C.3     1  UNL1        0.0897
     16 C          -5.1010    3.5577   21.4984 C.3     1  UNL1        0.0018
     17 C          -4.0548    3.2287   20.4751 C.3     1  UNL1        0.0213
     18 N           3.0639   -1.3503   19.2166 N.pl3   1  UNL1       -0.2969
     19 H           2.4711   -1.8616   18.6195 H       1  UNL1        0.1536
     20 C           3.6083   -1.9893   20.4597 C.ar    1  UNL1        0.0455
     21 C           3.4230   -1.3205   21.7896 C.ar    1  UNL1        0.0188
     22 C           3.9675   -1.9594   23.0327 C.ar    1  UNL1        0.0546
     23 C           4.6972   -3.2671   22.9460 C.ar    1  UNL1        0.0043
     24 C           4.8824   -3.9359   21.6162 C.ar    1  UNL1       -0.0029
     25 C           4.3380   -3.2969   20.3730 C.ar    1  UNL1       -0.0084
     26 C           4.5232   -3.9657   19.0432 C.3     1  UNL1        0.0323
     27 C           3.7822   -1.2907   24.3626 C.2     1  UNL1        0.2458
     28 O           3.2329    0.1034   24.4310 O.2     1  UNL1       -0.2701
     29 N           4.1463   -2.0161   25.6240 N.am    1  UNL1       -0.3025
     30 H           4.5069   -2.9311   25.5791 H       1  UNL1        0.1497
     31 C           3.9611   -1.3474   26.9539 C.3     1  UNL1        0.0720
     32 C           4.5252   -0.8815   28.2634 C.3     1  UNL1        0.0213
     33 C           3.0763   -0.6552   27.9478 C.3     1  UNL1        0.0213
@<TRIPOS>BOND
     1    16    17    1
     2    17    15    1
     3    15    11    1
     4    11    12   am
     5    12    13    2
     6    12     1    1
     7     1     2   ar
     8     2     3   ar
     9     3     4   ar
    10     4     5   ar
    11     5     6   ar
    12     6     7   ar
    13     7    18    1
    14    18    20    1
    15    20    21   ar
    16    21    22   ar
    17    22    27    1
    18    27    28    2
    19    27    29   am
    20    29    31    1
    21    31    32    1
    22    32    33    1
    23    22    23   ar
    24    23    24   ar
    25    24    25   ar
    26    25    26    1
    27     7     8   ar
    28     8     9   ar
    29     9    10    1
    30     9     1   ar
    31     8     3   ar
    32    25    20   ar
    33    33    31    1
    34    11    14    1
    35    18    19    1
    36    29    30    1
@<TRIPOS>MOLECULE
*****
 33 36 0 0 0
SMALL
GASTEIGER

@<TRIPOS>ATOM
      1 C           3.5920    0.5060   18.3640 C.ar    1  UNL1        0.0701
      2 C           4.1985    1.8598   18.1421 C.ar    1  UNL1        0.1047
      3 N           3.3369    2.8731   18.8356 N.ar    1  UNL1       -0.2242
      4 N           3.4424    4.3643   18.9587 N.ar    1  UNL1       -0.1422
      5 C           2.4089    5.1279   19.7325 C.ar    1  UNL1        0.2211
      6 N           1.2698    4.4003   20.3830 N.ar    1  UNL1       -0.2060
      7 C           1.1644    2.9091   20.2598 C.ar    1  UNL1        0.1515
      8 C           2.1979    2.1455   19.4861 C.ar    1  UNL1        0.1107
      9 C           2.3556    0.6826   19.1947 C.ar    1  UNL1        0.0045
     10 C           1.4378   -0.4117   19.6534 C.3     1  UNL1        0.0329
     11 N           4.8091   -1.7513   18.7805 N.am    1  UNL1       -0.3008
     12 C           4.1278   -0.7958   17.8462 C.2     1  UNL1        0.2471
     13 O           3.9824   -1.1422   16.3940 O.2     1  UNL1       -0.2701
     14 H           4.9045   -1.5239   19.7336 H       1  UNL1        0.1497
     15 C           5.3449   -3.0531   18.2627 C.3     1  UNL1        0.0897
     16 C           3.2815   -4.3498   19.1632 C.3     1  UNL1        0.0018
     17 C           4.6964   -4.3444   18.6654 C.3     1  UNL1        0.0213
     18 N           0.0253    2.1815   20.9104 N.pl3   1  UNL1       -0.2969
     19 H          -0.5066    1.5355   20.3917 H       1  UNL1        0.1536
     20 C          -0.3033    2.4381   22.3513 C.ar    1  UNL1        0.0455
     21 C           0.5746    1.8795   23.4318 C.ar    1  UNL1        0.0188
     22 C           0.2459    2.1361   24.8726 C.ar    1  UNL1        0.0546
     23 C          -0.9606    2.9512   25.2331 C.ar    1  UNL1        0.0043
     24 C          -1.8385    3.5097   24.1526 C.ar    1  UNL1       -0.0029
     25 C          -1.5098    3.2532   22.7117 C.ar    1  UNL1       -0.0084
     26 C          -2.3877    3.8117   21.6313 C.3     1  UNL1        0.0323
     27 C           1.1238    1.5776   25.9531 C.2     1  UNL1        0.2458
     28 O           2.5916    1.8867   25.9616 O.2     1  UNL1       -0.2701
     29 N           0.5339    0.7099   27.0251 N.am    1  UNL1       -0.3025
     30 H          -0.4294    0.5069   27.0195 H       1  UNL1        0.1497
     31 C           1.4117    0.1513   28.1055 C.3     1  UNL1        0.0720
     32 C           2.5628   -0.7133   28.5268 C.3     1  UNL1        0.0213
     33 C           1.7811    0.0485   29.5557 C.3     1  UNL1        0.0213
@<TRIPOS>BOND
     1    16    17    1
     2    17    15    1
     3    15    11    1
     4    11    12   am
     5    12    13    2
     6    12     1    1
     7     1     2   ar
     8     2     3   ar
     9     3     4   ar
    10     4     5   ar
    11     5     6   ar
    12     6     7   ar
    13     7    18    1
    14    18    20    1
    15    20    21   ar
    16    21    22   ar
    17    22    27    1
    18    27    28    2
    19    27    29   am
    20    29    31    1
    21    31    32    1
    22    32    33    1
    23    22    23   ar
    24    23    24   ar
    25    24    25   ar
    26    25    26    1
    27     7     8   ar
    28     8     9   ar
    29     9    10    1
    30     9     1   ar
    31     8     3   ar
    32    25    20   ar
    33    33    31    1
    34    11    14    1
    35    18    19    1
    36    29    30    1
@<TRIPOS>MOLECULE
*****
 33 36 0 0 0
SMALL
GASTEIGER

@<TRIPOS>ATOM
      1 C           3.6174   -0.6021   27.8671 C.ar    1  UNL1        0.0701
      2 C           2.3603   -0.5793   28.6851 C.ar    1  UNL1        0.1047
      3 N           1.3530    0.2660   27.9635 N.ar    1  UNL1       -0.2242
      4 N          -0.0601    0.6453   28.2941 N.ar    1  UNL1       -0.1422
      5 C          -0.8387    1.5241   27.3606 C.ar    1  UNL1        0.2211
      6 N          -0.2041    2.0237   26.0966 N.ar    1  UNL1       -0.2060
      7 C           1.2089    1.6444   25.7660 C.ar    1  UNL1        0.1515
      8 C           1.9875    0.7655   26.6994 C.ar    1  UNL1        0.1107
      9 C           3.3870    0.2290   26.6399 C.ar    1  UNL1        0.0045
     10 C           4.3814    0.4797   25.5452 C.3     1  UNL1        0.0329
     11 N           5.1241   -2.7109   27.6852 N.am    1  UNL1       -0.3008
     12 C           4.8828   -1.3285   28.2152 C.2     1  UNL1        0.2471
     13 O           5.9069   -0.6726   29.0932 O.2     1  UNL1       -0.2701
     14 H           4.4519   -3.1414   27.1090 H       1  UNL1        0.1497
     15 C           6.3894   -3.4373   28.0333 C.3     1  UNL1        0.0897
     16 C           6.8019   -5.5127   29.5410 C.3     1  UNL1        0.0018
     17 C           6.3707   -4.9243   28.2303 C.3     1  UNL1        0.0213
     18 N           1.8434    2.1440   24.5019 N.pl3   1  UNL1       -0.2969
     19 H           2.4379    2.9284   24.5262 H       1  UNL1        0.1536
     20 C           1.5722    1.4485   23.2009 C.ar    1  UNL1        0.0455
     21 C           2.4298    0.2940   22.7746 C.ar    1  UNL1        0.0188
     22 C           2.1586   -0.4015   21.4736 C.ar    1  UNL1        0.0546
     23 C           1.0298    0.0574   20.5988 C.ar    1  UNL1        0.0043
     24 C           0.1723    1.2119   21.0251 C.ar    1  UNL1       -0.0029
     25 C           0.4435    1.9075   22.3261 C.ar    1  UNL1       -0.0084
     26 C          -0.4141    3.0619   22.7524 C.3     1  UNL1        0.0323
     27 C           3.0162   -1.5561   21.0473 C.2     1  UNL1        0.2458
     28 O           3.9686   -2.1830   22.0219 O.2     1  UNL1       -0.2701
     29 N           2.9214   -2.0837   19.6463 N.am    1  UNL1       -0.3025
     30 H           2.2963   -1.6722   19.0067 H       1  UNL1        0.1497
     31 C           3.7789   -3.2381   19.2200 C.3     1  UNL1        0.0720
     32 C           5.0339   -3.7591   18.5848 C.3     1  UNL1        0.0213
     33 C           4.0092   -4.7167   19.1168 C.3     1  UNL1        0.0213
@<TRIPOS>BOND
     1    16    17    1
     2    17    15    1
     3    15    11    1
     4    11    12   am
     5    12    13    2
     6    12     1    1
     7     1     2   ar
     8     2     3   ar
     9     3     4   ar
    10     4     5   ar
    11     5     6   ar
    12     6     7   ar
    13     7    18    1
    14    18    20    1
    15    20    21   ar
    16    21    22   ar
    17    22    27    1
    18    27    28    2
    19    27    29   am
    20    29    31    1
    21    31    32    1
    22    32    33    1
    23    22    23   ar
    24    23    24   ar
    25    24    25   ar
    26    25    26    1
    27     7     8   ar
    28     8     9   ar
    29     9    10    1
    30     9     1   ar
    31     8     3   ar
    32    25    20   ar
    33    33    31    1
    34    11    14    1
    35    18    19    1
    36    29    30    1
