@<TRIPOS>MOLECULE
*****
 27 29 0 0 0
SMALL
GASTEIGER

@<TRIPOS>ATOM
      1 C          -8.7147  -16.7014   23.3280 C.3     1  UNL1        0.0847
      2 F         -14.4459  -18.3994   23.8479 F       1  UNL1       -0.2042
      3 C         -13.0131  -17.9749   23.7179 C.ar    1  UNL1        0.1401
      4 C         -12.6615  -16.7572   22.9157 C.ar    1  UNL1        0.0294
      5 C         -11.2287  -16.3327   22.7858 C.ar    1  UNL1       -0.0007
      6 C         -10.1475  -17.1259   23.4580 C.ar    1  UNL1       -0.0073
      7 C         -10.4992  -18.3436   24.2602 C.ar    1  UNL1       -0.0007
      8 C         -11.9319  -18.7681   24.3901 C.ar    1  UNL1        0.0294
      9 N          -7.9844  -16.1522   24.5175 N.3     1  UNL1       -0.2676
     10 C          -6.5553  -15.7163   24.3846 C.3     1  UNL1        0.0896
     11 C          -5.8249  -15.1671   25.5742 C.3     1  UNL1        0.0862
     12 N          -6.5236  -15.0539   26.8967 N.3     1  UNL1       -0.2951
     13 C          -7.9527  -15.4899   27.0296 C.3     1  UNL1        0.0862
     14 C          -8.6831  -16.0390   25.8401 C.3     1  UNL1        0.0896
     15 H          -6.4897  -14.0703   27.1643 H       1  UNL1        0.1233
     16 C          -8.0123  -16.8260   22.0086 C.3     1  UNL1        0.0499
     17 C          -7.3289  -18.1096   21.6410 C.ar    1  UNL1        0.0137
     18 C          -6.0831  -18.5296   22.3632 C.ar    1  UNL1       -0.0012
     19 C          -5.3997  -19.8132   21.9957 C.ar    1  UNL1       -0.0001
     20 C          -5.9620  -20.6770   20.9059 C.ar    1  UNL1        0.0031
     21 C          -7.2078  -20.2570   20.1836 C.ar    1  UNL1        0.0369
     22 C          -7.8913  -18.9734   20.5511 C.ar    1  UNL1        0.1428
     23 O          -9.1370  -18.5534   19.8289 O.3     1  UNL1       -0.4048
     24 C         -10.4830  -18.9288   20.3745 C.3     1  UNL1        0.5753
     25 F         -11.8289  -19.3042   20.9201 F       1  UNL1       -0.1328
     26 F          -9.8268  -19.8506   21.3592 F       1  UNL1       -0.1328
     27 F         -11.1392  -18.0070   19.3898 F       1  UNL1       -0.1328
@<TRIPOS>BOND
     1     2     3    1
     2     3     4   ar
     3     4     5   ar
     4     5     6   ar
     5     6     1    1
     6     1    16    1
     7    16    17    1
     8    17    18   ar
     9    18    19   ar
    10    19    20   ar
    11    20    21   ar
    12    21    22   ar
    13    22    23    1
    14    23    24    1
    15    24    25    1
    16    24    26    1
    17    24    27    1
    18     1     9    1
    19     9    10    1
    20    10    11    1
    21    11    12    1
    22    12    13    1
    23    13    14    1
    24     6     7   ar
    25     7     8   ar
    26     8     3   ar
    27    22    17   ar
    28    14     9    1
    29    12    15    1
@<TRIPOS>MOLECULE
*****
 27 29 0 0 0
SMALL
GASTEIGER

@<TRIPOS>ATOM
      1 C          -8.6730  -17.2432   22.4756 C.3     1  UNL1        0.0847
      2 F         -14.3775  -18.1094   24.1214 F       1  UNL1       -0.2042
      3 C         -12.9514  -17.8928   23.7100 C.ar    1  UNL1        0.1401
      4 C         -11.8573  -18.7006   24.3427 C.ar    1  UNL1        0.0294
      5 C         -10.4312  -18.4840   23.9313 C.ar    1  UNL1       -0.0007
      6 C         -10.0991  -17.4597   22.8871 C.ar    1  UNL1       -0.0073
      7 C         -11.1932  -16.6520   22.2543 C.ar    1  UNL1       -0.0007
      8 C         -12.6193  -16.8685   22.6657 C.ar    1  UNL1        0.0294
      9 N          -7.9437  -18.3068   21.7096 N.3     1  UNL1       -0.2676
     10 C          -8.5560  -18.8933   20.4723 C.3     1  UNL1        0.0896
     11 C          -7.8266  -19.9569   19.7062 C.3     1  UNL1        0.0862
     12 N          -6.4849  -20.4339   20.1776 N.3     1  UNL1       -0.2951
     13 C          -5.8726  -19.8474   21.4149 C.3     1  UNL1        0.0862
     14 C          -6.6019  -18.7839   22.1809 C.3     1  UNL1        0.0896
     15 H          -5.8281  -20.2653   19.4156 H       1  UNL1        0.1233
     16 C          -7.9763  -15.9631   22.8302 C.3     1  UNL1        0.0499
     17 C          -7.4402  -15.7599   24.2164 C.ar    1  UNL1        0.0137
     18 C          -8.3803  -15.7093   25.3841 C.ar    1  UNL1       -0.0012
     19 C          -7.8443  -15.5061   26.7702 C.ar    1  UNL1       -0.0001
     20 C          -6.3682  -15.3537   26.9887 C.ar    1  UNL1        0.0031
     21 C          -5.4280  -15.4044   25.8209 C.ar    1  UNL1        0.0369
     22 C          -5.9640  -15.6075   24.4348 C.ar    1  UNL1        0.1428
     23 O          -5.0239  -15.6582   23.2671 O.3     1  UNL1       -0.4048
     24 C          -3.8478  -16.5890   23.2909 C.3     1  UNL1        0.5753
     25 F          -2.6718  -17.5198   23.3147 F       1  UNL1       -0.1328
     26 F          -3.0737  -15.6329   22.4326 F       1  UNL1       -0.1328
     27 F          -4.6219  -17.5451   24.1491 F       1  UNL1       -0.1328
@<TRIPOS>BOND
     1     2     3    1
     2     3     4   ar
     3     4     5   ar
     4     5     6   ar
     5     6     1    1
     6     1    16    1
     7    16    17    1
     8    17    18   ar
     9    18    19   ar
    10    19    20   ar
    11    20    21   ar
    12    21    22   ar
    13    22    23    1
    14    23    24    1
    15    24    25    1
    16    24    26    1
    17    24    27    1
    18     1     9    1
    19     9    10    1
    20    10    11    1
    21    11    12    1
    22    12    13    1
    23    13    14    1
    24     6     7   ar
    25     7     8   ar
    26     8     3   ar
    27    22    17   ar
    28    14     9    1
    29    12    15    1
@<TRIPOS>MOLECULE
*****
 27 29 0 0 0
SMALL
GASTEIGER

@<TRIPOS>ATOM
      1 C          -8.5372  -17.0469   22.4184 C.3     1  UNL1        0.0847
      2 F          -5.5362  -21.5476   19.8227 F       1  UNL1       -0.2042
      3 C          -6.2864  -20.4224   20.4716 C.ar    1  UNL1        0.1401
      4 C          -7.6001  -19.9717   19.9050 C.ar    1  UNL1        0.0294
      5 C          -8.3504  -18.8465   20.5539 C.ar    1  UNL1       -0.0007
      6 C          -7.7870  -18.1720   21.7695 C.ar    1  UNL1       -0.0073
      7 C          -6.4733  -18.6228   22.3361 C.ar    1  UNL1       -0.0007
      8 C          -5.7231  -19.7479   21.6872 C.ar    1  UNL1        0.0294
      9 N         -10.0157  -17.1626   22.6432 N.3     1  UNL1       -0.2676
     10 C         -10.9566  -16.2298   21.9397 C.3     1  UNL1        0.0896
     11 C         -12.4352  -16.3456   22.1646 C.3     1  UNL1        0.0862
     12 N         -12.9728  -17.3940   23.0929 N.3     1  UNL1       -0.2951
     13 C         -12.0320  -18.3267   23.7963 C.3     1  UNL1        0.0862
     14 C         -10.5535  -18.2110   23.5715 C.3     1  UNL1        0.0896
     15 H         -13.6081  -17.9743   22.5452 H       1  UNL1        0.1233
     16 C          -7.8090  -15.8060   22.8425 C.3     1  UNL1        0.0499
     17 C          -7.3846  -15.6368   24.2712 C.ar    1  UNL1        0.0137
     18 C          -8.4035  -15.7078   25.3697 C.ar    1  UNL1       -0.0012
     19 C          -7.9790  -15.5385   26.7984 C.ar    1  UNL1       -0.0001
     20 C          -6.5357  -15.2983   27.1286 C.ar    1  UNL1        0.0031
     21 C          -5.5167  -15.2273   26.0300 C.ar    1  UNL1        0.0369
     22 C          -5.9412  -15.3966   24.6013 C.ar    1  UNL1        0.1428
     23 O          -4.9223  -15.3256   23.5028 O.3     1  UNL1       -0.4048
     24 C          -3.9001  -16.4137   23.3565 C.3     1  UNL1        0.5753
     25 F          -2.8780  -17.5017   23.2102 F       1  UNL1       -0.1328
     26 F          -3.2021  -15.6153   22.2956 F       1  UNL1       -0.1328
     27 F          -4.5981  -17.2120   24.4173 F       1  UNL1       -0.1328
@<TRIPOS>BOND
     1     2     3    1
     2     3     4   ar
     3     4     5   ar
     4     5     6   ar
     5     6     1    1
     6     1    16    1
     7    16    17    1
     8    17    18   ar
     9    18    19   ar
    10    19    20   ar
    11    20    21   ar
    12    21    22   ar
    13    22    23    1
    14    23    24    1
    15    24    25    1
    16    24    26    1
    17    24    27    1
    18     1     9    1
    19     9    10    1
    20    10    11    1
    21    11    12    1
    22    12    13    1
    23    13    14    1
    24     6     7   ar
    25     7     8   ar
    26     8     3   ar
    27    22    17   ar
    28    14     9    1
    29    12    15    1
@<TRIPOS>MOLECULE
*****
 27 29 0 0 0
SMALL
GASTEIGER

@<TRIPOS>ATOM
      1 C          -8.9195  -18.0522   22.9318 C.3     1  UNL1        0.0847
      2 F          -6.8881  -14.7438   27.5065 F       1  UNL1       -0.2042
      3 C          -7.3960  -15.5709   26.3628 C.ar    1  UNL1        0.1401
      4 C          -8.5217  -16.5383   26.5787 C.ar    1  UNL1        0.0294
      5 C          -9.0296  -17.3654   25.4350 C.ar    1  UNL1       -0.0007
      6 C          -8.4117  -17.2251   24.0755 C.ar    1  UNL1       -0.0073
      7 C          -7.2859  -16.2576   23.8596 C.ar    1  UNL1       -0.0007
      8 C          -6.7780  -15.4305   25.0033 C.ar    1  UNL1        0.0294
      9 N         -10.1159  -17.5968   22.1501 N.3     1  UNL1       -0.2676
     10 C         -11.3898  -18.3873   22.2001 C.3     1  UNL1        0.0896
     11 C         -12.5863  -17.9319   21.4184 C.3     1  UNL1        0.0862
     12 N         -12.5089  -16.6861   20.5866 N.3     1  UNL1       -0.2951
     13 C         -11.2351  -15.8956   20.5366 C.3     1  UNL1        0.0862
     14 C         -10.0386  -16.3509   21.3183 C.3     1  UNL1        0.0896
     15 H         -13.2330  -16.0561   20.9319 H       1  UNL1        0.1233
     16 C          -8.2309  -19.3346   22.5698 C.3     1  UNL1        0.0499
     17 C          -6.9175  -19.3023   21.8459 C.ar    1  UNL1        0.0137
     18 C          -5.6422  -19.5534   22.5945 C.ar    1  UNL1       -0.0012
     19 C          -4.3288  -19.5211   21.8706 C.ar    1  UNL1       -0.0001
     20 C          -4.2908  -19.2377   20.3981 C.ar    1  UNL1        0.0031
     21 C          -5.5662  -18.9867   19.6495 C.ar    1  UNL1        0.0369
     22 C          -6.8796  -19.0190   20.3734 C.ar    1  UNL1        0.1428
     23 O          -8.1549  -18.7680   19.6248 O.3     1  UNL1       -0.4048
     24 C          -8.9516  -19.9220   19.0922 C.3     1  UNL1        0.5753
     25 F          -9.7482  -21.0760   18.5596 F       1  UNL1       -0.1328
     26 F          -7.7092  -20.7617   19.0532 F       1  UNL1       -0.1328
     27 F         -10.1939  -19.0824   19.1311 F       1  UNL1       -0.1328
@<TRIPOS>BOND
     1     2     3    1
     2     3     4   ar
     3     4     5   ar
     4     5     6   ar
     5     6     1    1
     6     1    16    1
     7    16    17    1
     8    17    18   ar
     9    18    19   ar
    10    19    20   ar
    11    20    21   ar
    12    21    22   ar
    13    22    23    1
    14    23    24    1
    15    24    25    1
    16    24    26    1
    17    24    27    1
    18     1     9    1
    19     9    10    1
    20    10    11    1
    21    11    12    1
    22    12    13    1
    23    13    14    1
    24     6     7   ar
    25     7     8   ar
    26     8     3   ar
    27    22    17   ar
    28    14     9    1
    29    12    15    1
@<TRIPOS>MOLECULE
*****
 27 29 0 0 0
SMALL
GASTEIGER

@<TRIPOS>ATOM
      1 C          -7.8568  -17.3998   22.0540 C.3     1  UNL1        0.0847
      2 F          -2.9173  -20.5651   20.7960 F       1  UNL1       -0.2042
      3 C          -4.1522  -19.7738   21.1105 C.ar    1  UNL1        0.1401
      4 C          -5.2438  -19.6497   20.0892 C.ar    1  UNL1        0.0294
      5 C          -6.4787  -18.8584   20.4037 C.ar    1  UNL1       -0.0007
      6 C          -6.6220  -18.1912   21.7395 C.ar    1  UNL1       -0.0073
      7 C          -5.5304  -18.3153   22.7607 C.ar    1  UNL1       -0.0007
      8 C          -4.2955  -19.1066   22.4462 C.ar    1  UNL1        0.0294
      9 N          -9.2056  -17.9282   21.6646 N.3     1  UNL1       -0.2676
     10 C         -10.2712  -16.9861   21.1881 C.3     1  UNL1        0.0896
     11 C         -11.6200  -17.5145   20.7987 C.3     1  UNL1        0.0862
     12 N         -11.9032  -18.9850   20.8858 N.3     1  UNL1       -0.2951
     13 C         -10.8376  -19.9270   21.3623 C.3     1  UNL1        0.0862
     14 C          -9.4888  -19.3987   21.7516 C.3     1  UNL1        0.0896
     15 H         -12.1683  -19.2897   19.9492 H       1  UNL1        0.1233
     16 C          -7.7430  -16.0802   22.7578 C.3     1  UNL1        0.0499
     17 C          -7.5994  -16.0361   24.2503 C.ar    1  UNL1        0.0137
     18 C          -6.3184  -15.5575   24.8667 C.ar    1  UNL1       -0.0012
     19 C          -6.1748  -15.5135   26.3591 C.ar    1  UNL1       -0.0001
     20 C          -7.3121  -15.9480   27.2352 C.ar    1  UNL1        0.0031
     21 C          -8.5932  -16.4266   26.6188 C.ar    1  UNL1        0.0369
     22 C          -8.7368  -16.4706   25.1264 C.ar    1  UNL1        0.1428
     23 O         -10.0178  -16.9492   24.5100 O.3     1  UNL1       -0.4048
     24 C         -10.4729  -18.3620   24.7273 C.3     1  UNL1        0.5753
     25 F         -10.9278  -19.7746   24.9447 F       1  UNL1       -0.1328
     26 F         -11.8693  -17.9712   24.3438 F       1  UNL1       -0.1328
     27 F          -9.0764  -18.7527   25.1109 F       1  UNL1       -0.1328
@<TRIPOS>BOND
     1     2     3    1
     2     3     4   ar
     3     4     5   ar
     4     5     6   ar
     5     6     1    1
     6     1    16    1
     7    16    17    1
     8    17    18   ar
     9    18    19   ar
    10    19    20   ar
    11    20    21   ar
    12    21    22   ar
    13    22    23    1
    14    23    24    1
    15    24    25    1
    16    24    26    1
    17    24    27    1
    18     1     9    1
    19     9    10    1
    20    10    11    1
    21    11    12    1
    22    12    13    1
    23    13    14    1
    24     6     7   ar
    25     7     8   ar
    26     8     3   ar
    27    22    17   ar
    28    14     9    1
    29    12    15    1
@<TRIPOS>MOLECULE
*****
 27 29 0 0 0
SMALL
GASTEIGER

@<TRIPOS>ATOM
      1 C         -12.3033   -5.0509   19.0132 C.3     1  UNL1        0.0847
      2 F         -11.1521    0.4632   16.9470 F       1  UNL1       -0.2042
      3 C         -11.4399   -0.9154   17.4636 C.ar    1  UNL1        0.1401
      4 C         -11.1987   -2.1096   16.5887 C.ar    1  UNL1        0.0294
      5 C         -11.4865   -3.4882   17.1052 C.ar    1  UNL1       -0.0007
      6 C         -12.0155   -3.6724   18.4967 C.ar    1  UNL1       -0.0073
      7 C         -12.2567   -2.4781   19.3716 C.ar    1  UNL1       -0.0007
      8 C         -11.9689   -1.0996   18.8550 C.ar    1  UNL1        0.0294
      9 N         -11.5463   -6.2276   18.4727 N.3     1  UNL1       -0.2676
     10 C         -10.2441   -6.6328   19.0973 C.3     1  UNL1        0.0896
     11 C          -9.4870   -7.8096   18.5567 C.3     1  UNL1        0.0862
     12 N         -10.0321   -8.5811   17.3916 N.3     1  UNL1       -0.2951
     13 C         -11.3343   -8.1759   16.7669 C.3     1  UNL1        0.0862
     14 C         -12.0913   -6.9992   17.3074 C.3     1  UNL1        0.0896
     15 H         -10.1427   -9.5460   17.7031 H       1  UNL1        0.1233
     16 C         -13.3482   -5.2528   20.0703 C.3     1  UNL1        0.0499
     17 C         -14.8027   -5.1825   19.7103 C.ar    1  UNL1        0.0137
     18 C         -15.5412   -3.8818   19.8230 C.ar    1  UNL1       -0.0012
     19 C         -16.9957   -3.8116   19.4630 C.ar    1  UNL1       -0.0001
     20 C         -17.7116   -5.0420   18.9903 C.ar    1  UNL1        0.0031
     21 C         -16.9730   -6.3427   18.8775 C.ar    1  UNL1        0.0369
     22 C         -15.5186   -6.4130   19.2375 C.ar    1  UNL1        0.1428
     23 O         -14.7800   -7.7137   19.1248 O.3     1  UNL1       -0.4048
     24 C         -15.4967   -8.9448   18.6549 C.3     1  UNL1        0.5753
     25 F         -16.2134  -10.1760   18.1851 F       1  UNL1       -0.1328
     26 F         -15.0210   -8.6879   17.2558 F       1  UNL1       -0.1328
     27 F         -15.9724   -9.2018   20.0541 F       1  UNL1       -0.1328
@<TRIPOS>BOND
     1     2     3    1
     2     3     4   ar
     3     4     5   ar
     4     5     6   ar
     5     6     1    1
     6     1    16    1
     7    16    17    1
     8    17    18   ar
     9    18    19   ar
    10    19    20   ar
    11    20    21   ar
    12    21    22   ar
    13    22    23    1
    14    23    24    1
    15    24    25    1
    16    24    26    1
    17    24    27    1
    18     1     9    1
    19     9    10    1
    20    10    11    1
    21    11    12    1
    22    12    13    1
    23    13    14    1
    24     6     7   ar
    25     7     8   ar
    26     8     3   ar
    27    22    17   ar
    28    14     9    1
    29    12    15    1
@<TRIPOS>MOLECULE
*****
 27 29 0 0 0
SMALL
GASTEIGER

@<TRIPOS>ATOM
      1 C         -14.8365   -5.9713   19.3589 C.3     1  UNL1        0.0847
      2 F         -18.6234   -1.5413   17.9325 F       1  UNL1       -0.2042
      3 C         -17.6767   -2.6488   18.2891 C.ar    1  UNL1        0.1401
      4 C         -17.5013   -3.0531   19.7229 C.ar    1  UNL1        0.0294
      5 C         -16.5546   -4.1606   20.0795 C.ar    1  UNL1       -0.0007
      6 C         -15.7832   -4.8638   19.0023 C.ar    1  UNL1       -0.0073
      7 C         -15.9585   -4.4595   17.5685 C.ar    1  UNL1       -0.0007
      8 C         -16.9053   -3.3520   17.2119 C.ar    1  UNL1        0.0294
      9 N         -15.2297   -7.3994   19.1226 N.3     1  UNL1       -0.2676
     10 C         -14.4489   -8.2426   18.1586 C.3     1  UNL1        0.0896
     11 C         -14.8422   -9.6708   17.9223 C.3     1  UNL1        0.0862
     12 N         -16.0162  -10.2556   18.6499 N.3     1  UNL1       -0.2951
     13 C         -16.7971   -9.4123   19.6139 C.3     1  UNL1        0.0862
     14 C         -16.4038   -7.9843   19.8502 C.3     1  UNL1        0.0896
     15 H         -15.6674  -11.0572   19.1754 H       1  UNL1        0.1233
     16 C         -13.4965   -5.6507   19.9519 C.3     1  UNL1        0.0499
     17 C         -12.6309   -4.5986   19.3242 C.ar    1  UNL1        0.0137
     18 C         -12.8234   -3.1555   19.6853 C.ar    1  UNL1       -0.0012
     19 C         -11.9578   -2.1034   19.0577 C.ar    1  UNL1       -0.0001
     20 C         -10.8998   -2.4944   18.0690 C.ar    1  UNL1        0.0031
     21 C         -10.7073   -3.9376   17.7078 C.ar    1  UNL1        0.0369
     22 C         -11.5728   -4.9897   18.3354 C.ar    1  UNL1        0.1428
     23 O         -11.3804   -6.4327   17.9743 O.3     1  UNL1       -0.4048
     24 C         -10.1643   -7.1697   18.4520 C.3     1  UNL1        0.5753
     25 F          -8.9482   -7.9066   18.9295 F       1  UNL1       -0.1328
     26 F          -9.9376   -6.1182   19.4973 F       1  UNL1       -0.1328
     27 F         -10.3909   -8.2212   17.4066 F       1  UNL1       -0.1328
@<TRIPOS>BOND
     1     2     3    1
     2     3     4   ar
     3     4     5   ar
     4     5     6   ar
     5     6     1    1
     6     1    16    1
     7    16    17    1
     8    17    18   ar
     9    18    19   ar
    10    19    20   ar
    11    20    21   ar
    12    21    22   ar
    13    22    23    1
    14    23    24    1
    15    24    25    1
    16    24    26    1
    17    24    27    1
    18     1     9    1
    19     9    10    1
    20    10    11    1
    21    11    12    1
    22    12    13    1
    23    13    14    1
    24     6     7   ar
    25     7     8   ar
    26     8     3   ar
    27    22    17   ar
    28    14     9    1
    29    12    15    1
@<TRIPOS>MOLECULE
*****
 27 29 0 0 0
SMALL
GASTEIGER

@<TRIPOS>ATOM
      1 C         -14.3362   -5.6649   17.8258 C.3     1  UNL1        0.0847
      2 F         -16.8807  -10.8939   19.3034 F       1  UNL1       -0.2042
      3 C         -16.2446   -9.5866   18.9340 C.ar    1  UNL1        0.1401
      4 C         -15.2112   -9.5358   17.8480 C.ar    1  UNL1        0.0294
      5 C         -14.5751   -8.2285   17.4786 C.ar    1  UNL1       -0.0007
      6 C         -14.9724   -6.9721   18.1952 C.ar    1  UNL1       -0.0073
      7 C         -16.0057   -7.0230   19.2813 C.ar    1  UNL1       -0.0007
      8 C         -16.6419   -8.3302   19.6507 C.ar    1  UNL1        0.0294
      9 N         -14.4717   -4.4810   18.7368 N.3     1  UNL1       -0.2676
     10 C         -13.6017   -4.3673   19.9534 C.3     1  UNL1        0.0896
     11 C         -13.7372   -3.1833   20.8644 C.3     1  UNL1        0.0862
     12 N         -14.7427   -2.1130   20.5588 N.3     1  UNL1       -0.2951
     13 C         -15.6127   -2.2267   19.3422 C.3     1  UNL1        0.0862
     14 C         -15.4773   -3.4106   18.4312 C.3     1  UNL1        0.0896
     15 H         -14.2245   -1.2390   20.4696 H       1  UNL1        0.1233
     16 C         -13.5646   -5.5416   16.5455 C.3     1  UNL1        0.0499
     17 C         -12.2340   -4.8492   16.5354 C.ar    1  UNL1        0.0137
     18 C         -12.1291   -3.4331   16.0520 C.ar    1  UNL1       -0.0012
     19 C         -10.7984   -2.7408   16.0419 C.ar    1  UNL1       -0.0001
     20 C          -9.5728   -3.4644   16.5152 C.ar    1  UNL1        0.0031
     21 C          -9.6778   -4.8806   16.9987 C.ar    1  UNL1        0.0369
     22 C         -11.0084   -5.5729   17.0088 C.ar    1  UNL1        0.1428
     23 O         -11.1133   -6.9890   17.4922 O.3     1  UNL1       -0.4048
     24 C         -10.0896   -7.5347   18.4431 C.3     1  UNL1        0.5753
     25 F          -9.0659   -8.0805   19.3939 F       1  UNL1       -0.1328
     26 F         -10.3373   -6.3826   19.3711 F       1  UNL1       -0.1328
     27 F          -9.8419   -8.6868   17.5151 F       1  UNL1       -0.1328
@<TRIPOS>BOND
     1     2     3    1
     2     3     4   ar
     3     4     5   ar
     4     5     6   ar
     5     6     1    1
     6     1    16    1
     7    16    17    1
     8    17    18   ar
     9    18    19   ar
    10    19    20   ar
    11    20    21   ar
    12    21    22   ar
    13    22    23    1
    14    23    24    1
    15    24    25    1
    16    24    26    1
    17    24    27    1
    18     1     9    1
    19     9    10    1
    20    10    11    1
    21    11    12    1
    22    12    13    1
    23    13    14    1
    24     6     7   ar
    25     7     8   ar
    26     8     3   ar
    27    22    17   ar
    28    14     9    1
    29    12    15    1
@<TRIPOS>MOLECULE
*****
 27 29 0 0 0
SMALL
GASTEIGER

@<TRIPOS>ATOM
      1 C           1.9074    0.3066   19.4385 C.3     1  UNL1        0.0847
      2 F           6.9929    0.9369   16.3175 F       1  UNL1       -0.2042
      3 C           5.7215    0.7793   17.0978 C.ar    1  UNL1        0.1401
      4 C           5.4361    1.6865   18.2577 C.ar    1  UNL1        0.0294
      5 C           4.1647    1.5289   19.0380 C.ar    1  UNL1       -0.0007
      6 C           3.1788    0.4642   18.6582 C.ar    1  UNL1       -0.0073
      7 C           3.4642   -0.4429   17.4983 C.ar    1  UNL1       -0.0007
      8 C           4.7356   -0.2854   16.7180 C.ar    1  UNL1        0.0294
      9 N           0.8848    1.4040   19.4356 N.3     1  UNL1       -0.2676
     10 C           0.0710    1.6740   20.6664 C.3     1  UNL1        0.0896
     11 C          -0.9516    2.7714   20.6635 C.3     1  UNL1        0.0862
     12 N          -1.1605    3.5987   19.4299 N.3     1  UNL1       -0.2951
     13 C          -0.3467    3.3286   18.1991 C.3     1  UNL1        0.0862
     14 C           0.6759    2.2313   18.2019 C.3     1  UNL1        0.0896
     15 H          -0.9844    4.5685   19.6924 H       1  UNL1        0.1233
     16 C           1.6586   -0.9483   20.2216 C.3     1  UNL1        0.0499
     17 C           2.7290   -1.4981   21.1171 C.ar    1  UNL1        0.0137
     18 C           2.9793   -0.8734   22.4577 C.ar    1  UNL1       -0.0012
     19 C           4.0497   -1.4232   23.3532 C.ar    1  UNL1       -0.0001
     20 C           4.8697   -2.5977   22.9083 C.ar    1  UNL1        0.0031
     21 C           4.6194   -3.2225   21.5677 C.ar    1  UNL1        0.0369
     22 C           3.5491   -2.6726   20.6721 C.ar    1  UNL1        0.1428
     23 O           3.2987   -3.2973   19.3316 O.3     1  UNL1       -0.4048
     24 C           4.0632   -4.5204   18.9196 C.3     1  UNL1        0.5753
     25 F           4.8277   -5.7435   18.5076 F       1  UNL1       -0.1328
     26 F           5.0582   -3.6570   18.2024 F       1  UNL1       -0.1328
     27 F           3.0683   -5.3839   19.6367 F       1  UNL1       -0.1328
@<TRIPOS>BOND
     1     2     3    1
     2     3     4   ar
     3     4     5   ar
     4     5     6   ar
     5     6     1    1
     6     1    16    1
     7    16    17    1
     8    17    18   ar
     9    18    19   ar
    10    19    20   ar
    11    20    21   ar
    12    21    22   ar
    13    22    23    1
    14    23    24    1
    15    24    25    1
    16    24    26    1
    17    24    27    1
    18     1     9    1
    19     9    10    1
    20    10    11    1
    21    11    12    1
    22    12    13    1
    23    13    14    1
    24     6     7   ar
    25     7     8   ar
    26     8     3   ar
    27    22    17   ar
    28    14     9    1
    29    12    15    1
