@<TRIPOS>MOLECULE
*****
 23 25 0 0 0
SMALL
GASTEIGER

@<TRIPOS>ATOM
      1 O          -5.8063  -14.8757   24.6225 O.2     1  UNL1       -0.2831
      2 C          -6.4088  -16.0415   23.8959 C.ar    1  UNL1        0.2351
      3 C          -7.8984  -16.1504   23.7575 C.ar    1  UNL1        0.2081
      4 O          -8.7856  -15.0935   24.3458 O.3     1  UNL1       -0.5007
      5 C          -8.5009  -17.3161   23.0309 C.ar    1  UNL1        0.1819
      6 O          -7.6138  -18.3730   22.4427 O.2     1  UNL1       -0.4502
      7 C          -6.1242  -18.2641   22.5810 C.ar    1  UNL1        0.1487
      8 C          -5.2371  -19.3210   21.9928 C.ar    1  UNL1        0.0407
      9 C          -3.7475  -19.2121   22.1311 C.ar    1  UNL1        0.0397
     10 C          -3.1450  -18.0463   22.8577 C.ar    1  UNL1        0.1340
     11 O          -1.6553  -17.9374   22.9960 O.3     1  UNL1       -0.5055
     12 C          -4.0320  -16.9894   23.4460 C.ar    1  UNL1        0.0430
     13 C          -5.5216  -17.0983   23.3076 C.ar    1  UNL1        0.0796
     14 H          -8.4092  -14.3652   24.7997 H       1  UNL1        0.2924
     15 H          -1.1011  -18.5976   22.6286 H       1  UNL1        0.2922
     16 C          -9.9906  -17.4250   22.8926 C.ar    1  UNL1        0.0407
     17 C         -10.7901  -18.1461   23.9370 C.ar    1  UNL1        0.0033
     18 C         -12.2797  -18.2550   23.7986 C.ar    1  UNL1        0.0032
     19 C         -12.9698  -17.6427   22.6158 C.ar    1  UNL1        0.0366
     20 C         -12.1703  -16.9216   21.5715 C.ar    1  UNL1        0.1338
     21 O         -12.8604  -16.3094   20.3887 O.3     1  UNL1       -0.5055
     22 C         -10.6807  -16.8128   21.7098 C.ar    1  UNL1        0.0398
     23 H         -13.7910  -16.3774   20.3023 H       1  UNL1        0.2922
@<TRIPOS>BOND
     1     1     2    2
     2     2     3   ar
     3     3     4    1
     4     3     5   ar
     5     5    16    1
     6    16    17   ar
     7    17    18   ar
     8    18    19   ar
     9    19    20   ar
    10    20    21    1
    11    20    22   ar
    12     5     6   ar
    13     6     7   ar
    14     7     8   ar
    15     8     9   ar
    16     9    10   ar
    17    10    11    1
    18    10    12   ar
    19    12    13   ar
    20    13     2   ar
    21    22    16   ar
    22    13     7   ar
    23     4    14    1
    24    21    23    1
    25    11    15    1
@<TRIPOS>MOLECULE
*****
 23 25 0 0 0
SMALL
GASTEIGER

@<TRIPOS>ATOM
      1 O         -10.6590  -18.4126   19.4854 O.2     1  UNL1       -0.2831
      2 C          -9.7565  -18.7041   20.6475 C.ar    1  UNL1        0.2351
      3 C          -8.2994  -18.9746   20.4161 C.ar    1  UNL1        0.2081
      4 O          -7.7447  -18.9536   19.0225 O.3     1  UNL1       -0.5007
      5 C          -7.3968  -19.2661   21.5782 C.ar    1  UNL1        0.1819
      6 O          -7.9514  -19.2872   22.9717 O.2     1  UNL1       -0.4502
      7 C          -9.4086  -19.0167   23.2031 C.ar    1  UNL1        0.1487
      8 C          -9.9632  -19.0377   24.5967 C.ar    1  UNL1        0.0407
      9 C         -11.4203  -18.7673   24.8281 C.ar    1  UNL1        0.0397
     10 C         -12.3229  -18.4757   23.6660 C.ar    1  UNL1        0.1340
     11 O         -13.7801  -18.2052   23.8974 O.3     1  UNL1       -0.5055
     12 C         -11.7683  -18.4547   22.2725 C.ar    1  UNL1        0.0430
     13 C         -10.3111  -18.7252   22.0410 C.ar    1  UNL1        0.0796
     14 H          -8.3084  -18.7715   18.2965 H       1  UNL1        0.2924
     15 H         -14.1265  -18.2184   24.7679 H       1  UNL1        0.2922
     16 C          -5.9396  -19.5366   21.3467 C.ar    1  UNL1        0.0407
     17 C          -5.5187  -20.5740   20.3484 C.ar    1  UNL1        0.0033
     18 C          -4.0616  -20.8444   20.1170 C.ar    1  UNL1        0.0032
     19 C          -3.0254  -20.0775   20.8838 C.ar    1  UNL1        0.0366
     20 C          -3.4463  -19.0401   21.8821 C.ar    1  UNL1        0.1338
     21 O          -2.4101  -18.2731   22.6489 O.3     1  UNL1       -0.5055
     22 C          -4.9034  -18.7697   22.1135 C.ar    1  UNL1        0.0398
     23 H          -1.4999  -18.4421   22.5044 H       1  UNL1        0.2922
@<TRIPOS>BOND
     1     1     2    2
     2     2     3   ar
     3     3     4    1
     4     3     5   ar
     5     5    16    1
     6    16    17   ar
     7    17    18   ar
     8    18    19   ar
     9    19    20   ar
    10    20    21    1
    11    20    22   ar
    12     5     6   ar
    13     6     7   ar
    14     7     8   ar
    15     8     9   ar
    16     9    10   ar
    17    10    11    1
    18    10    12   ar
    19    12    13   ar
    20    13     2   ar
    21    22    16   ar
    22    13     7   ar
    23     4    14    1
    24    21    23    1
    25    11    15    1
@<TRIPOS>MOLECULE
*****
 23 25 0 0 0
SMALL
GASTEIGER

@<TRIPOS>ATOM
      1 O          -4.7216  -16.6107   24.0357 O.2     1  UNL1       -0.2831
      2 C          -5.6938  -17.3531   23.1677 C.ar    1  UNL1        0.2351
      3 C          -7.1571  -17.0303   23.2345 C.ar    1  UNL1        0.2081
      4 O          -7.6482  -15.9649   24.1694 O.3     1  UNL1       -0.5007
      5 C          -8.1294  -17.7727   22.3664 C.ar    1  UNL1        0.1819
      6 O          -7.6383  -18.8380   21.4316 O.2     1  UNL1       -0.4502
      7 C          -6.1750  -19.1609   21.3647 C.ar    1  UNL1        0.1487
      8 C          -5.6839  -20.2262   20.4299 C.ar    1  UNL1        0.0407
      9 C          -4.2206  -20.5491   20.3631 C.ar    1  UNL1        0.0397
     10 C          -3.2484  -19.8066   21.2312 C.ar    1  UNL1        0.1340
     11 O          -1.7850  -20.1295   21.1643 O.3     1  UNL1       -0.5055
     12 C          -3.7394  -18.7413   22.1660 C.ar    1  UNL1        0.0430
     13 C          -5.2027  -18.4185   22.2328 C.ar    1  UNL1        0.0796
     14 H          -7.0409  -15.5011   24.7116 H       1  UNL1        0.2924
     15 H          -1.4783  -20.7950   20.5804 H       1  UNL1        0.2922
     16 C          -9.5927  -17.4498   22.4332 C.ar    1  UNL1        0.0407
     17 C         -10.1819  -16.4411   21.4923 C.ar    1  UNL1        0.0033
     18 C         -11.6452  -16.1182   21.5592 C.ar    1  UNL1        0.0032
     19 C         -12.5193  -16.8041   22.5670 C.ar    1  UNL1        0.0366
     20 C         -11.9301  -17.8128   23.5079 C.ar    1  UNL1        0.1338
     21 O         -12.8042  -18.4986   24.5156 O.3     1  UNL1       -0.5055
     22 C         -10.4668  -18.1356   23.4410 C.ar    1  UNL1        0.0398
     23 H         -13.7183  -18.2969   24.5574 H       1  UNL1        0.2922
@<TRIPOS>BOND
     1     1     2    2
     2     2     3   ar
     3     3     4    1
     4     3     5   ar
     5     5    16    1
     6    16    17   ar
     7    17    18   ar
     8    18    19   ar
     9    19    20   ar
    10    20    21    1
    11    20    22   ar
    12     5     6   ar
    13     6     7   ar
    14     7     8   ar
    15     8     9   ar
    16     9    10   ar
    17    10    11    1
    18    10    12   ar
    19    12    13   ar
    20    13     2   ar
    21    22    16   ar
    22    13     7   ar
    23     4    14    1
    24    21    23    1
    25    11    15    1
@<TRIPOS>MOLECULE
*****
 23 25 0 0 0
SMALL
GASTEIGER

@<TRIPOS>ATOM
      1 O          -8.3002  -15.5634   24.1333 O.2     1  UNL1       -0.2831
      2 C          -8.1520  -16.8347   23.3510 C.ar    1  UNL1        0.2351
      3 C          -6.7931  -17.2865   22.9047 C.ar    1  UNL1        0.2081
      4 O          -5.5824  -16.4671   23.2406 O.3     1  UNL1       -0.5007
      5 C          -6.6449  -18.5578   22.1224 C.ar    1  UNL1        0.1819
      6 O          -7.8555  -19.3772   21.7865 O.2     1  UNL1       -0.4502
      7 C          -9.2145  -18.9254   22.2328 C.ar    1  UNL1        0.1487
      8 C         -10.4251  -19.7448   21.8969 C.ar    1  UNL1        0.0407
      9 C         -11.7840  -19.2930   22.3433 C.ar    1  UNL1        0.0397
     10 C         -11.9322  -18.0217   23.1255 C.ar    1  UNL1        0.1340
     11 O         -13.2912  -17.5699   23.5719 O.3     1  UNL1       -0.5055
     12 C         -10.7216  -17.2023   23.4614 C.ar    1  UNL1        0.0430
     13 C          -9.3627  -17.6541   23.0151 C.ar    1  UNL1        0.0796
     14 H          -5.6750  -15.6730   23.7292 H       1  UNL1        0.2924
     15 H         -14.0474  -18.0817   23.3620 H       1  UNL1        0.2922
     16 C          -5.2859  -19.0096   21.6761 C.ar    1  UNL1        0.0407
     17 C          -5.1527  -19.9605   20.5237 C.ar    1  UNL1        0.0033
     18 C          -3.7938  -20.4122   20.0774 C.ar    1  UNL1        0.0032
     19 C          -2.5681  -19.9132   20.7835 C.ar    1  UNL1        0.0366
     20 C          -2.7013  -18.9623   21.9359 C.ar    1  UNL1        0.1338
     21 O          -1.4756  -18.4633   22.6421 O.3     1  UNL1       -0.5055
     22 C          -4.0602  -18.5106   22.3822 C.ar    1  UNL1        0.0398
     23 H          -0.6267  -18.7455   22.3633 H       1  UNL1        0.2922
@<TRIPOS>BOND
     1     1     2    2
     2     2     3   ar
     3     3     4    1
     4     3     5   ar
     5     5    16    1
     6    16    17   ar
     7    17    18   ar
     8    18    19   ar
     9    19    20   ar
    10    20    21    1
    11    20    22   ar
    12     5     6   ar
    13     6     7   ar
    14     7     8   ar
    15     8     9   ar
    16     9    10   ar
    17    10    11    1
    18    10    12   ar
    19    12    13   ar
    20    13     2   ar
    21    22    16   ar
    22    13     7   ar
    23     4    14    1
    24    21    23    1
    25    11    15    1
@<TRIPOS>MOLECULE
*****
 23 25 0 0 0
SMALL
GASTEIGER

@<TRIPOS>ATOM
      1 O         -14.7235   -3.8469   20.2938 O.2     1  UNL1       -0.2831
      2 C         -14.3927   -5.1208   19.5743 C.ar    1  UNL1        0.2351
      3 C         -15.4730   -6.1198   19.2829 C.ar    1  UNL1        0.2081
      4 O         -16.8841   -5.8449   19.7109 O.3     1  UNL1       -0.5007
      5 C         -15.1422   -7.3937   18.5634 C.ar    1  UNL1        0.1819
      6 O         -13.7311   -7.6687   18.1353 O.2     1  UNL1       -0.4502
      7 C         -12.6507   -6.6696   18.4268 C.ar    1  UNL1        0.1487
      8 C         -11.2397   -6.9446   17.9987 C.ar    1  UNL1        0.0407
      9 C         -10.1594   -5.9456   18.2902 C.ar    1  UNL1        0.0397
     10 C         -10.4902   -4.6716   19.0096 C.ar    1  UNL1        0.1340
     11 O          -9.4099   -3.6726   19.3011 O.3     1  UNL1       -0.5055
     12 C         -11.9013   -4.3967   19.4377 C.ar    1  UNL1        0.0430
     13 C         -12.9816   -5.3957   19.1462 C.ar    1  UNL1        0.0796
     14 H         -17.0908   -5.0491   20.1603 H       1  UNL1        0.2924
     15 H          -8.5284   -3.8443   19.0337 H       1  UNL1        0.2922
     16 C         -16.2225   -8.3928   18.2719 C.ar    1  UNL1        0.0407
     17 C         -17.3749   -8.0152   17.3892 C.ar    1  UNL1        0.0033
     18 C         -18.4552   -9.0142   17.0978 C.ar    1  UNL1        0.0032
     19 C         -18.3830  -10.3908   17.6891 C.ar    1  UNL1        0.0366
     20 C         -17.2306  -10.7684   18.5719 C.ar    1  UNL1        0.1338
     21 O         -17.1585  -12.1450   19.1632 O.3     1  UNL1       -0.5055
     22 C         -16.1503   -9.7694   18.8633 C.ar    1  UNL1        0.0398
     23 H         -17.8333  -12.7691   18.9812 H       1  UNL1        0.2922
@<TRIPOS>BOND
     1     1     2    2
     2     2     3   ar
     3     3     4    1
     4     3     5   ar
     5     5    16    1
     6    16    17   ar
     7    17    18   ar
     8    18    19   ar
     9    19    20   ar
    10    20    21    1
    11    20    22   ar
    12     5     6   ar
    13     6     7   ar
    14     7     8   ar
    15     8     9   ar
    16     9    10   ar
    17    10    11    1
    18    10    12   ar
    19    12    13   ar
    20    13     2   ar
    21    22    16   ar
    22    13     7   ar
    23     4    14    1
    24    21    23    1
    25    11    15    1
@<TRIPOS>MOLECULE
*****
 23 25 0 0 0
SMALL
GASTEIGER

@<TRIPOS>ATOM
      1 O         -11.4671   -6.5865   16.5181 O.2     1  UNL1       -0.2831
      2 C         -12.7126   -6.4268   17.3386 C.ar    1  UNL1        0.2351
      3 C         -13.8120   -7.4423   17.2385 C.ar    1  UNL1        0.2081
      4 O         -13.6659   -8.6176   16.3179 O.3     1  UNL1       -0.5007
      5 C         -15.0575   -7.2826   18.0590 C.ar    1  UNL1        0.1819
      6 O         -15.2037   -6.1074   18.9795 O.2     1  UNL1       -0.4502
      7 C         -14.1043   -5.0918   19.0797 C.ar    1  UNL1        0.1487
      8 C         -14.2504   -3.9166   20.0003 C.ar    1  UNL1        0.0407
      9 C         -13.1510   -2.9011   20.1004 C.ar    1  UNL1        0.0397
     10 C         -11.9055   -3.0608   19.2799 C.ar    1  UNL1        0.1340
     11 O         -10.8061   -2.0452   19.3800 O.3     1  UNL1       -0.5055
     12 C         -11.7594   -4.2360   18.3593 C.ar    1  UNL1        0.0430
     13 C         -12.8587   -5.2515   18.2592 C.ar    1  UNL1        0.0796
     14 H         -12.8879   -8.7173   15.8053 H       1  UNL1        0.2924
     15 H         -10.8974   -1.3111   19.9551 H       1  UNL1        0.2922
     16 C         -16.1570   -8.2982   17.9588 C.ar    1  UNL1        0.0407
     17 C         -17.4054   -7.9788   17.1911 C.ar    1  UNL1        0.0033
     18 C         -18.5047   -8.9944   17.0910 C.ar    1  UNL1        0.0032
     19 C         -18.3556  -10.3293   17.7586 C.ar    1  UNL1        0.0366
     20 C         -17.1072  -10.6487   18.5263 C.ar    1  UNL1        0.1338
     21 O         -16.9581  -11.9837   19.1939 O.3     1  UNL1       -0.5055
     22 C         -16.0079   -9.6332   18.6264 C.ar    1  UNL1        0.0398
     23 H         -17.6448  -12.6181   19.1313 H       1  UNL1        0.2922
@<TRIPOS>BOND
     1     1     2    2
     2     2     3   ar
     3     3     4    1
     4     3     5   ar
     5     5    16    1
     6    16    17   ar
     7    17    18   ar
     8    18    19   ar
     9    19    20   ar
    10    20    21    1
    11    20    22   ar
    12     5     6   ar
    13     6     7   ar
    14     7     8   ar
    15     8     9   ar
    16     9    10   ar
    17    10    11    1
    18    10    12   ar
    19    12    13   ar
    20    13     2   ar
    21    22    16   ar
    22    13     7   ar
    23     4    14    1
    24    21    23    1
    25    11    15    1
@<TRIPOS>MOLECULE
*****
 23 25 0 0 0
SMALL
GASTEIGER

@<TRIPOS>ATOM
      1 O         -17.4247   -5.4924   19.7534 O.2     1  UNL1       -0.2831
      2 C         -16.2791   -6.3817   19.3703 C.ar    1  UNL1        0.2351
      3 C         -14.8831   -5.8341   19.3374 C.ar    1  UNL1        0.2081
      4 O         -14.6325   -4.3972   19.6876 O.3     1  UNL1       -0.5007
      5 C         -13.7375   -6.7234   18.9543 C.ar    1  UNL1        0.1819
      6 O         -13.9880   -8.1603   18.6042 O.2     1  UNL1       -0.4502
      7 C         -15.3841   -8.7079   18.6371 C.ar    1  UNL1        0.1487
      8 C         -15.6346  -10.1447   18.2869 C.ar    1  UNL1        0.0407
      9 C         -17.0306  -10.6923   18.3198 C.ar    1  UNL1        0.0397
     10 C         -18.1762   -9.8030   18.7029 C.ar    1  UNL1        0.1340
     11 O         -19.5724  -10.3506   18.7358 O.3     1  UNL1       -0.5055
     12 C         -17.9257   -8.3661   19.0531 C.ar    1  UNL1        0.0430
     13 C         -16.5297   -7.8186   19.0202 C.ar    1  UNL1        0.0796
     14 H         -15.3481   -3.8416   19.9269 H       1  UNL1        0.2924
     15 H         -19.7288  -11.2482   18.5171 H       1  UNL1        0.2922
     16 C         -12.3414   -6.1758   18.9214 C.ar    1  UNL1        0.0407
     17 C         -11.1714   -7.1097   18.8273 C.ar    1  UNL1        0.0033
     18 C          -9.7754   -6.5621   18.7944 C.ar    1  UNL1        0.0032
     19 C          -9.5493   -5.0805   18.8556 C.ar    1  UNL1        0.0366
     20 C         -10.7192   -4.1465   18.9497 C.ar    1  UNL1        0.1338
     21 O         -10.4932   -2.6649   19.0108 O.3     1  UNL1       -0.5055
     22 C         -12.1153   -4.6942   18.9826 C.ar    1  UNL1        0.0398
     23 H          -9.6211   -2.3228   18.9903 H       1  UNL1        0.2922
@<TRIPOS>BOND
     1     1     2    2
     2     2     3   ar
     3     3     4    1
     4     3     5   ar
     5     5    16    1
     6    16    17   ar
     7    17    18   ar
     8    18    19   ar
     9    19    20   ar
    10    20    21    1
    11    20    22   ar
    12     5     6   ar
    13     6     7   ar
    14     7     8   ar
    15     8     9   ar
    16     9    10   ar
    17    10    11    1
    18    10    12   ar
    19    12    13   ar
    20    13     2   ar
    21    22    16   ar
    22    13     7   ar
    23     4    14    1
    24    21    23    1
    25    11    15    1
@<TRIPOS>MOLECULE
*****
 23 25 0 0 0
SMALL
GASTEIGER

@<TRIPOS>ATOM
      1 O         -10.9497   -5.1374   19.1941 O.2     1  UNL1       -0.2831
      2 C         -12.4427   -5.1067   19.0523 C.ar    1  UNL1        0.2351
      3 C         -13.2294   -6.3817   19.1257 C.ar    1  UNL1        0.2081
      4 O         -12.5232   -7.6875   19.3409 O.3     1  UNL1       -0.5007
      5 C         -14.7224   -6.3510   18.9839 C.ar    1  UNL1        0.1819
      6 O         -15.4286   -5.0453   18.7687 O.2     1  UNL1       -0.4502
      7 C         -14.6419   -3.7702   18.6952 C.ar    1  UNL1        0.1487
      8 C         -15.3482   -2.4646   18.4800 C.ar    1  UNL1        0.0407
      9 C         -14.5614   -1.1896   18.4066 C.ar    1  UNL1        0.0397
     10 C         -13.0685   -1.2203   18.5484 C.ar    1  UNL1        0.1340
     11 O         -12.2817    0.0548   18.4749 O.3     1  UNL1       -0.5055
     12 C         -12.3622   -2.5260   18.7636 C.ar    1  UNL1        0.0430
     13 C         -13.1489   -3.8009   18.8370 C.ar    1  UNL1        0.0796
     14 H         -11.5906   -7.7067   19.4295 H       1  UNL1        0.2924
     15 H         -12.7229    0.8704   18.3405 H       1  UNL1        0.2922
     16 C         -15.5091   -7.6261   19.0573 C.ar    1  UNL1        0.0407
     17 C         -16.8596   -7.6376   19.7101 C.ar    1  UNL1        0.0033
     18 C         -17.6462   -8.9126   19.7835 C.ar    1  UNL1        0.0032
     19 C         -17.0824  -10.1761   19.2042 C.ar    1  UNL1        0.0366
     20 C         -15.7320  -10.1646   18.5514 C.ar    1  UNL1        0.1338
     21 O         -15.1682  -11.4282   17.9721 O.3     1  UNL1       -0.5055
     22 C         -14.9454   -8.8896   18.4780 C.ar    1  UNL1        0.0398
     23 H         -15.6596  -12.2246   18.0179 H       1  UNL1        0.2922
@<TRIPOS>BOND
     1     1     2    2
     2     2     3   ar
     3     3     4    1
     4     3     5   ar
     5     5    16    1
     6    16    17   ar
     7    17    18   ar
     8    18    19   ar
     9    19    20   ar
    10    20    21    1
    11    20    22   ar
    12     5     6   ar
    13     6     7   ar
    14     7     8   ar
    15     8     9   ar
    16     9    10   ar
    17    10    11    1
    18    10    12   ar
    19    12    13   ar
    20    13     2   ar
    21    22    16   ar
    22    13     7   ar
    23     4    14    1
    24    21    23    1
    25    11    15    1
@<TRIPOS>MOLECULE
*****
 23 25 0 0 0
SMALL
GASTEIGER

@<TRIPOS>ATOM
      1 O         -14.8086   -6.7113   19.2722 O.2     1  UNL1       -0.2831
      2 C         -13.9761   -5.4654   19.2050 C.ar    1  UNL1        0.2351
      3 C         -14.6375   -4.1193   19.2259 C.ar    1  UNL1        0.2081
      4 O         -16.1316   -4.0190   19.3140 O.3     1  UNL1       -0.5007
      5 C         -13.8049   -2.8734   19.1587 C.ar    1  UNL1        0.1819
      6 O         -12.3109   -2.9735   19.0705 O.2     1  UNL1       -0.4502
      7 C         -11.6494   -4.3197   19.0496 C.ar    1  UNL1        0.1487
      8 C         -10.1553   -4.4199   18.9615 C.ar    1  UNL1        0.0407
      9 C          -9.4939   -5.7660   18.9406 C.ar    1  UNL1        0.0397
     10 C         -10.3265   -7.0119   19.0078 C.ar    1  UNL1        0.1340
     11 O          -9.6650   -8.3580   18.9868 O.3     1  UNL1       -0.5055
     12 C         -11.8205   -6.9117   19.0959 C.ar    1  UNL1        0.0430
     13 C         -12.4819   -5.5656   19.1168 C.ar    1  UNL1        0.0796
     14 H         -16.6517   -4.7973   19.3560 H       1  UNL1        0.2924
     15 H          -8.7317   -8.4206   18.9318 H       1  UNL1        0.2922
     16 C         -14.4664   -1.5272   19.1796 C.ar    1  UNL1        0.0407
     17 C         -13.9689   -0.4331   18.2822 C.ar    1  UNL1        0.0033
     18 C         -14.6304    0.9130   18.3032 C.ar    1  UNL1        0.0032
     19 C         -15.7894    1.1649   19.2215 C.ar    1  UNL1        0.0366
     20 C         -16.2869    0.0708   20.1189 C.ar    1  UNL1        0.1338
     21 O         -17.4459    0.3227   21.0372 O.3     1  UNL1       -0.5055
     22 C         -15.6254   -1.2753   20.0979 C.ar    1  UNL1        0.0398
     23 H         -17.8591    1.1635   21.0503 H       1  UNL1        0.2922
@<TRIPOS>BOND
     1     1     2    2
     2     2     3   ar
     3     3     4    1
     4     3     5   ar
     5     5    16    1
     6    16    17   ar
     7    17    18   ar
     8    18    19   ar
     9    19    20   ar
    10    20    21    1
    11    20    22   ar
    12     5     6   ar
    13     6     7   ar
    14     7     8   ar
    15     8     9   ar
    16     9    10   ar
    17    10    11    1
    18    10    12   ar
    19    12    13   ar
    20    13     2   ar
    21    22    16   ar
    22    13     7   ar
    23     4    14    1
    24    21    23    1
    25    11    15    1
