@<TRIPOS>MOLECULE
*****
 27 30 0 0 0
SMALL
GASTEIGER

@<TRIPOS>ATOM
      1 C          -0.5869    2.3898   21.2841 C.ar    1  UNL1        0.2035
      2 N          -1.8230    2.6694   20.4816 N.ar    1  UNL1       -0.2133
      3 C          -2.9707    3.4072   21.1047 C.ar    1  UNL1        0.1065
      4 C          -2.8825    3.8654   22.5303 C.ar    1  UNL1        0.0815
      5 C          -1.6464    3.5857   23.3328 C.ar    1  UNL1        0.2646
      6 O          -1.5581    4.0439   24.7584 O.2     1  UNL1       -0.2668
      7 N          -0.4986    2.8479   22.7096 N.ar    1  UNL1       -0.2667
      8 C           0.7374    2.5683   23.5121 C.3     1  UNL1        0.1363
      9 C           1.7031    3.9138   20.0868 C.3     1  UNL1        0.0233
     10 C           1.7059    2.4140   20.0623 C.3     1  UNL1        0.0953
     11 C           2.8536    1.6762   19.4392 C.3     1  UNL1        0.1106
     12 N           2.8564    0.1764   19.4147 N.pl3   1  UNL1       -0.3040
     13 C           1.7114   -0.5856   20.0133 C.3     1  UNL1        0.1123
     14 C           0.5637    0.1522   20.6364 C.3     1  UNL1        0.1149
     15 N           0.5609    1.6520   20.6609 N.pl3   1  UNL1       -0.2777
     16 C           4.0042   -0.5615   18.7915 C.ar    1  UNL1        0.0511
     17 C           4.0561   -2.0592   18.8551 C.ar    1  UNL1        0.0352
     18 C           5.2038   -2.7970   18.2320 C.ar    1  UNL1        0.1002
     19 N           6.2997   -2.0371   17.5453 N.ar    1  UNL1       -0.2422
     20 C           6.2478   -0.5393   17.4817 C.ar    1  UNL1        0.1002
     21 C           5.1000    0.1985   18.1048 C.ar    1  UNL1        0.0352
     22 C          -4.2068    3.6868   20.3022 C.ar    1  UNL1        0.1024
     23 C          -5.4812    4.0672   20.9958 C.ar    1  UNL1        0.0414
     24 C          -6.7172    4.3468   20.1933 C.ar    1  UNL1        0.1023
     25 N          -6.6789    4.2461   18.6972 N.ar    1  UNL1       -0.2224
     26 C          -5.4044    3.8657   18.0035 C.ar    1  UNL1        0.1989
     27 N          -4.1684    3.5861   18.8060 N.ar    1  UNL1       -0.2224
@<TRIPOS>BOND
     1    10     9    1
     2    10    11    1
     3    11    12    1
     4    12    16    1
     5    16    17   ar
     6    17    18   ar
     7    18    19   ar
     8    19    20   ar
     9    20    21   ar
    10    12    13    1
    11    13    14    1
    12    14    15    1
    13    15     1    1
    14     1     2   ar
    15     2     3   ar
    16     3    22    1
    17    22    23   ar
    18    23    24   ar
    19    24    25   ar
    20    25    26   ar
    21    26    27   ar
    22     3     4   ar
    23     4     5   ar
    24     5     6    2
    25     5     7   ar
    26     7     8    1
    27    15    10    1
    28     7     1   ar
    29    21    16   ar
    30    27    22   ar
@<TRIPOS>MOLECULE
*****
 27 30 0 0 0
SMALL
GASTEIGER

@<TRIPOS>ATOM
      1 C          -2.0158    3.4109   20.5888 C.ar    1  UNL1        0.2035
      2 N          -1.0446    2.3637   21.0473 N.ar    1  UNL1       -0.2133
      3 C           0.0445    1.8969   20.1276 C.ar    1  UNL1        0.1065
      4 C           0.1625    2.4773   18.7494 C.ar    1  UNL1        0.0815
      5 C          -0.8087    3.5245   18.2910 C.ar    1  UNL1        0.2646
      6 O          -0.6908    4.1048   16.9129 O.2     1  UNL1       -0.2668
      7 N          -1.8979    3.9912   19.2108 N.ar    1  UNL1       -0.2667
      8 C          -2.8691    5.0384   18.7523 C.3     1  UNL1        0.1363
      9 C          -1.5186    5.7010   22.4618 C.3     1  UNL1        0.0233
     10 C          -2.8564    5.0227   22.4451 C.3     1  UNL1        0.0953
     11 C          -3.9455    5.4894   23.3647 C.3     1  UNL1        0.1106
     12 N          -5.2833    4.8111   23.3479 N.pl3   1  UNL1       -0.3040
     13 C          -5.5319    3.6661   22.4115 C.3     1  UNL1        0.1123
     14 C          -4.4428    3.1993   21.4918 C.3     1  UNL1        0.1149
     15 N          -3.1050    3.8777   21.5086 N.pl3   1  UNL1       -0.2777
     16 C          -6.3725    5.2779   24.2677 C.ar    1  UNL1        0.0511
     17 C          -7.7984    5.2784   23.8021 C.ar    1  UNL1        0.0352
     18 C          -8.8875    5.7451   24.7217 C.ar    1  UNL1        0.1002
     19 N          -8.5508    6.2115   26.1071 N.ar    1  UNL1       -0.2422
     20 C          -7.1249    6.2111   26.5727 C.ar    1  UNL1        0.1002
     21 C          -6.0358    5.7443   25.6530 C.ar    1  UNL1        0.0352
     22 C           1.0157    0.8497   20.5861 C.ar    1  UNL1        0.1024
     23 C           1.4396   -0.2419   19.6486 C.ar    1  UNL1        0.0414
     24 C           2.4108   -1.2891   20.1071 C.ar    1  UNL1        0.1023
     25 N           2.9581   -1.2447   21.5029 N.ar    1  UNL1       -0.2224
     26 C           2.5342   -0.1532   22.4404 C.ar    1  UNL1        0.1989
     27 N           1.5630    0.8940   21.9820 N.ar    1  UNL1       -0.2224
@<TRIPOS>BOND
     1    10     9    1
     2    10    11    1
     3    11    12    1
     4    12    16    1
     5    16    17   ar
     6    17    18   ar
     7    18    19   ar
     8    19    20   ar
     9    20    21   ar
    10    12    13    1
    11    13    14    1
    12    14    15    1
    13    15     1    1
    14     1     2   ar
    15     2     3   ar
    16     3    22    1
    17    22    23   ar
    18    23    24   ar
    19    24    25   ar
    20    25    26   ar
    21    26    27   ar
    22     3     4   ar
    23     4     5   ar
    24     5     6    2
    25     5     7   ar
    26     7     8    1
    27    15    10    1
    28     7     1   ar
    29    21    16   ar
    30    27    22   ar
@<TRIPOS>MOLECULE
*****
 27 30 0 0 0
SMALL
GASTEIGER

@<TRIPOS>ATOM
      1 C           4.2928   -1.2323   20.3619 C.ar    1  UNL1        0.2035
      2 N           4.8515   -2.0447   21.4923 N.ar    1  UNL1       -0.2133
      3 C           6.0194   -2.9557   21.2557 C.ar    1  UNL1        0.1065
      4 C           6.6287   -3.0544   19.8885 C.ar    1  UNL1        0.0815
      5 C           6.0700   -2.2420   18.7580 C.ar    1  UNL1        0.2646
      6 O           6.6793   -2.3406   17.3909 O.2     1  UNL1       -0.2668
      7 N           4.9021   -1.3309   18.9947 N.ar    1  UNL1       -0.2667
      8 C           4.3434   -0.5186   17.8643 C.3     1  UNL1        0.1363
      9 C           4.7517    1.5900   21.2697 C.3     1  UNL1        0.0233
     10 C           3.3543    1.0898   21.0525 C.3     1  UNL1        0.0953
     11 C           2.1864    2.0008   21.2892 C.3     1  UNL1        0.1106
     12 N           0.7890    1.5006   21.0720 N.pl3   1  UNL1       -0.3040
     13 C           0.5595    0.0895   20.6181 C.3     1  UNL1        0.1123
     14 C           1.7275   -0.8215   20.3814 C.3     1  UNL1        0.1149
     15 N           3.1248   -0.3213   20.5986 N.pl3   1  UNL1       -0.2777
     16 C          -0.3790    2.4116   21.3087 C.ar    1  UNL1        0.0511
     17 C          -0.6414    2.9530   22.6827 C.ar    1  UNL1        0.0352
     18 C          -1.8093    3.8640   22.9195 C.ar    1  UNL1        0.1002
     19 N          -2.7148    4.2336   21.7821 N.ar    1  UNL1       -0.2422
     20 C          -2.4524    3.6922   20.4081 C.ar    1  UNL1        0.1002
     21 C          -1.2845    2.7812   20.1714 C.ar    1  UNL1        0.0352
     22 C           6.5780   -3.7681   22.3861 C.ar    1  UNL1        0.1024
     23 C           6.0958   -3.5348   23.7872 C.ar    1  UNL1        0.0414
     24 C           6.6545   -4.3472   24.9176 C.ar    1  UNL1        0.1023
     25 N           7.6953   -5.3929   24.6470 N.ar    1  UNL1       -0.2224
     26 C           8.1775   -5.6262   23.2459 C.ar    1  UNL1        0.1989
     27 N           7.6189   -4.8138   22.1154 N.ar    1  UNL1       -0.2224
@<TRIPOS>BOND
     1    10     9    1
     2    10    11    1
     3    11    12    1
     4    12    16    1
     5    16    17   ar
     6    17    18   ar
     7    18    19   ar
     8    19    20   ar
     9    20    21   ar
    10    12    13    1
    11    13    14    1
    12    14    15    1
    13    15     1    1
    14     1     2   ar
    15     2     3   ar
    16     3    22    1
    17    22    23   ar
    18    23    24   ar
    19    24    25   ar
    20    25    26   ar
    21    26    27   ar
    22     3     4   ar
    23     4     5   ar
    24     5     6    2
    25     5     7   ar
    26     7     8    1
    27    15    10    1
    28     7     1   ar
    29    21    16   ar
    30    27    22   ar
@<TRIPOS>MOLECULE
*****
 27 30 0 0 0
SMALL
GASTEIGER

@<TRIPOS>ATOM
      1 C           0.6896    1.7622   23.2211 C.ar    1  UNL1        0.2035
      2 N           0.7589    1.4104   24.6776 N.ar    1  UNL1       -0.2133
      3 C          -0.2061    2.0286   25.6453 C.ar    1  UNL1        0.1065
      4 C          -1.2405    2.9988   25.1565 C.ar    1  UNL1        0.0815
      5 C          -1.3098    3.3506   23.7000 C.ar    1  UNL1        0.2646
      6 O          -2.3442    4.3207   23.2111 O.2     1  UNL1       -0.2668
      7 N          -0.3447    2.7323   22.7323 N.ar    1  UNL1       -0.2667
      8 C          -0.4140    3.0842   21.2758 C.3     1  UNL1        0.1363
      9 C           3.4171    2.9562   22.8532 C.3     1  UNL1        0.0233
     10 C           3.0184    1.7409   22.0695 C.3     1  UNL1        0.0953
     11 C           3.9835    1.1226   21.1019 C.3     1  UNL1        0.1106
     12 N           3.5848   -0.0927   20.3182 N.pl3   1  UNL1       -0.3040
     13 C           2.2211   -0.6896   20.5021 C.3     1  UNL1        0.1123
     14 C           1.2561   -0.0714   21.4698 C.3     1  UNL1        0.1149
     15 N           1.6548    1.1439   22.2534 N.pl3   1  UNL1       -0.2777
     16 C           4.5499   -0.7110   19.3505 C.ar    1  UNL1        0.0511
     17 C           4.5683   -2.1982   19.1565 C.ar    1  UNL1        0.0352
     18 C           5.5333   -2.8165   18.1889 C.ar    1  UNL1        0.1002
     19 N           6.4801   -1.9475   17.4152 N.ar    1  UNL1       -0.2422
     20 C           6.4618   -0.4603   17.6092 C.ar    1  UNL1        0.1002
     21 C           5.4967    0.1580   18.5769 C.ar    1  UNL1        0.0352
     22 C          -0.1368    1.6768   27.1018 C.ar    1  UNL1        0.1024
     23 C           0.6410    2.5440   28.0467 C.ar    1  UNL1        0.0414
     24 C           0.7103    2.1921   29.5032 C.ar    1  UNL1        0.1023
     25 N           0.0018    0.9731   30.0148 N.ar    1  UNL1       -0.2224
     26 C          -0.7761    0.1058   29.0699 C.ar    1  UNL1        0.1989
     27 N          -0.8454    0.4576   27.6134 N.ar    1  UNL1       -0.2224
@<TRIPOS>BOND
     1    10     9    1
     2    10    11    1
     3    11    12    1
     4    12    16    1
     5    16    17   ar
     6    17    18   ar
     7    18    19   ar
     8    19    20   ar
     9    20    21   ar
    10    12    13    1
    11    13    14    1
    12    14    15    1
    13    15     1    1
    14     1     2   ar
    15     2     3   ar
    16     3    22    1
    17    22    23   ar
    18    23    24   ar
    19    24    25   ar
    20    25    26   ar
    21    26    27   ar
    22     3     4   ar
    23     4     5   ar
    24     5     6    2
    25     5     7   ar
    26     7     8    1
    27    15    10    1
    28     7     1   ar
    29    21    16   ar
    30    27    22   ar
@<TRIPOS>MOLECULE
*****
 27 30 0 0 0
SMALL
GASTEIGER

@<TRIPOS>ATOM
      1 C           4.0660   -1.1537   20.1162 C.ar    1  UNL1        0.2035
      2 N           2.9720   -0.1814   20.4444 N.ar    1  UNL1       -0.2133
      3 C           2.2282    0.5112   19.3413 C.ar    1  UNL1        0.1065
      4 C           2.5784    0.2316   17.9097 C.ar    1  UNL1        0.0815
      5 C           3.6725   -0.7407   17.5815 C.ar    1  UNL1        0.2646
      6 O           4.0227   -1.0203   16.1500 O.2     1  UNL1       -0.2668
      7 N           4.4163   -1.4333   18.6847 N.ar    1  UNL1       -0.2667
      8 C           5.5103   -2.4056   18.3564 C.3     1  UNL1        0.1363
      9 C           6.5461    0.0859   21.2619 C.3     1  UNL1        0.0233
     10 C           6.0498   -1.2265   21.7923 C.3     1  UNL1        0.0953
     11 C           6.7936   -1.9191   22.8954 C.3     1  UNL1        0.1106
     12 N           6.2973   -3.2316   23.4258 N.pl3   1  UNL1       -0.3040
     13 C           5.0573   -3.8513   22.8530 C.3     1  UNL1        0.1123
     14 C           4.3136   -3.1587   21.7498 C.3     1  UNL1        0.1149
     15 N           4.8098   -1.8463   21.2194 N.pl3   1  UNL1       -0.2777
     16 C           7.0411   -3.9242   24.5291 C.ar    1  UNL1        0.0511
     17 C           7.0714   -3.3256   25.9041 C.ar    1  UNL1        0.0352
     18 C           7.8152   -4.0181   27.0073 C.ar    1  UNL1        0.1002
     19 N           8.5286   -5.3094   26.7355 N.ar    1  UNL1       -0.2422
     20 C           8.4983   -5.9080   25.3605 C.ar    1  UNL1        0.1002
     21 C           7.7545   -5.2153   24.2572 C.ar    1  UNL1        0.0352
     22 C           1.1341    1.4835   19.6696 C.ar    1  UNL1        0.1024
     23 C           0.5751    2.3730   18.5990 C.ar    1  UNL1        0.0414
     24 C          -0.5190    3.3452   18.9272 C.ar    1  UNL1        0.1023
     25 N          -1.0540    3.4280   20.3261 N.ar    1  UNL1       -0.2224
     26 C          -0.4949    2.5385   21.3968 C.ar    1  UNL1        0.1989
     27 N           0.5991    1.5662   21.0685 N.ar    1  UNL1       -0.2224
@<TRIPOS>BOND
     1    10     9    1
     2    10    11    1
     3    11    12    1
     4    12    16    1
     5    16    17   ar
     6    17    18   ar
     7    18    19   ar
     8    19    20   ar
     9    20    21   ar
    10    12    13    1
    11    13    14    1
    12    14    15    1
    13    15     1    1
    14     1     2   ar
    15     2     3   ar
    16     3    22    1
    17    22    23   ar
    18    23    24   ar
    19    24    25   ar
    20    25    26   ar
    21    26    27   ar
    22     3     4   ar
    23     4     5   ar
    24     5     6    2
    25     5     7   ar
    26     7     8    1
    27    15    10    1
    28     7     1   ar
    29    21    16   ar
    30    27    22   ar
@<TRIPOS>MOLECULE
*****
 27 30 0 0 0
SMALL
GASTEIGER

@<TRIPOS>ATOM
      1 C           4.2803    0.8201   34.7461 C.ar    1  UNL1        0.2035
      2 N           3.2789    1.8037   34.2170 N.ar    1  UNL1       -0.2133
      3 C           2.7306    2.8725   35.1153 C.ar    1  UNL1        0.1065
      4 C           3.1835    2.9578   36.5428 C.ar    1  UNL1        0.0815
      5 C           4.1848    1.9742   37.0719 C.ar    1  UNL1        0.2646
      6 O           4.6377    2.0594   38.4993 O.2     1  UNL1       -0.2668
      7 N           4.7332    0.9054   36.1735 N.ar    1  UNL1       -0.2667
      8 C           5.7345   -0.0782   36.7027 C.3     1  UNL1        0.1363
      9 C           6.6184    1.4136   32.9626 C.3     1  UNL1        0.0233
     10 C           5.9977    0.0481   32.9560 C.3     1  UNL1        0.0953
     11 C           6.5460   -1.0207   32.0578 C.3     1  UNL1        0.1106
     12 N           5.9253   -2.3863   32.0512 N.pl3   1  UNL1       -0.3040
     13 C           4.7563   -2.6830   32.9430 C.3     1  UNL1        0.1123
     14 C           4.2079   -1.6142   33.8412 C.3     1  UNL1        0.1149
     15 N           4.8287   -0.2487   33.8478 N.pl3   1  UNL1       -0.2777
     16 C           6.4737   -3.4551   31.1529 C.ar    1  UNL1        0.0511
     17 C           6.8900   -4.7768   31.7272 C.ar    1  UNL1        0.0352
     18 C           7.4384   -5.8456   30.8289 C.ar    1  UNL1        0.1002
     19 N           7.5705   -5.5927   29.3562 N.ar    1  UNL1       -0.2422
     20 C           7.1541   -4.2711   28.7819 C.ar    1  UNL1        0.1002
     21 C           6.6057   -3.2022   29.6803 C.ar    1  UNL1        0.0352
     22 C           1.7292    3.8560   34.5861 C.ar    1  UNL1        0.1024
     23 C           1.1455    3.6691   33.2171 C.ar    1  UNL1        0.0414
     24 C           0.1442    4.6526   32.6879 C.ar    1  UNL1        0.1023
     25 N          -0.2734    5.8231   33.5278 N.ar    1  UNL1       -0.2224
     26 C           0.3104    6.0102   34.8969 C.ar    1  UNL1        0.1989
     27 N           1.3117    5.0266   35.4261 N.ar    1  UNL1       -0.2224
@<TRIPOS>BOND
     1    10     9    1
     2    10    11    1
     3    11    12    1
     4    12    16    1
     5    16    17   ar
     6    17    18   ar
     7    18    19   ar
     8    19    20   ar
     9    20    21   ar
    10    12    13    1
    11    13    14    1
    12    14    15    1
    13    15     1    1
    14     1     2   ar
    15     2     3   ar
    16     3    22    1
    17    22    23   ar
    18    23    24   ar
    19    24    25   ar
    20    25    26   ar
    21    26    27   ar
    22     3     4   ar
    23     4     5   ar
    24     5     6    2
    25     5     7   ar
    26     7     8    1
    27    15    10    1
    28     7     1   ar
    29    21    16   ar
    30    27    22   ar
@<TRIPOS>MOLECULE
*****
 27 30 0 0 0
SMALL
GASTEIGER

@<TRIPOS>ATOM
      1 C           1.6200    1.5548   30.0749 C.ar    1  UNL1        0.2035
      2 N           1.4152    2.4410   31.2677 N.ar    1  UNL1       -0.2133
      3 C           2.0540    2.0928   32.5794 C.ar    1  UNL1        0.1065
      4 C           2.8978    0.8583   32.6984 C.ar    1  UNL1        0.0815
      5 C           3.1026   -0.0279   31.5057 C.ar    1  UNL1        0.2646
      6 O           3.9464   -1.2624   31.6247 O.2     1  UNL1       -0.2668
      7 N           2.4638    0.3203   30.1939 N.ar    1  UNL1       -0.2667
      8 C           2.6686   -0.5659   29.0012 C.3     1  UNL1        0.1363
      9 C          -1.0504    0.3945   29.3521 C.3     1  UNL1        0.0233
     10 C          -0.3540    1.3229   28.4018 C.3     1  UNL1        0.0953
     11 C          -0.9928    1.6712   27.0901 C.3     1  UNL1        0.1106
     12 N          -0.2965    2.5996   26.1398 N.pl3   1  UNL1       -0.3040
     13 C           1.0387    3.1798   26.5012 C.3     1  UNL1        0.1123
     14 C           1.6775    2.8315   27.8129 C.3     1  UNL1        0.1149
     15 N           0.9812    1.9031   28.7632 N.pl3   1  UNL1       -0.2777
     16 C          -0.9354    2.9479   24.8281 C.ar    1  UNL1        0.0511
     17 C          -0.1520    2.8209   23.5552 C.ar    1  UNL1        0.0352
     18 C          -0.7908    3.1692   22.2435 C.ar    1  UNL1        0.1002
     19 N          -2.2131    3.6444   22.2046 N.ar    1  UNL1       -0.2422
     20 C          -2.9964    3.7713   23.4775 C.ar    1  UNL1        0.1002
     21 C          -2.3576    3.4230   24.7892 C.ar    1  UNL1        0.0352
     22 C           1.8491    2.9791   33.7721 C.ar    1  UNL1        0.1024
     23 C           1.1505    4.2972   33.6159 C.ar    1  UNL1        0.0414
     24 C           0.9457    5.1835   34.8086 C.ar    1  UNL1        0.1023
     25 N           1.4394    4.7516   36.1575 N.ar    1  UNL1       -0.2224
     26 C           2.1380    3.4334   36.3138 C.ar    1  UNL1        0.1989
     27 N           2.3429    2.5472   35.1211 N.ar    1  UNL1       -0.2224
@<TRIPOS>BOND
     1    10     9    1
     2    10    11    1
     3    11    12    1
     4    12    16    1
     5    16    17   ar
     6    17    18   ar
     7    18    19   ar
     8    19    20   ar
     9    20    21   ar
    10    12    13    1
    11    13    14    1
    12    14    15    1
    13    15     1    1
    14     1     2   ar
    15     2     3   ar
    16     3    22    1
    17    22    23   ar
    18    23    24   ar
    19    24    25   ar
    20    25    26   ar
    21    26    27   ar
    22     3     4   ar
    23     4     5   ar
    24     5     6    2
    25     5     7   ar
    26     7     8    1
    27    15    10    1
    28     7     1   ar
    29    21    16   ar
    30    27    22   ar
@<TRIPOS>MOLECULE
*****
 27 30 0 0 0
SMALL
GASTEIGER

@<TRIPOS>ATOM
      1 C           0.6927    2.6773   19.9998 C.ar    1  UNL1        0.2035
      2 N          -0.7845    2.6157   19.7469 N.ar    1  UNL1       -0.2133
      3 C          -1.6036    3.8719   19.7771 C.ar    1  UNL1        0.1065
      4 C          -0.9455    5.1898   20.0602 C.ar    1  UNL1        0.0815
      5 C           0.5317    5.2514   20.3132 C.ar    1  UNL1        0.2646
      6 O           1.1899    6.5692   20.5963 O.2     1  UNL1       -0.2668
      7 N           1.3508    3.9951   20.2830 N.ar    1  UNL1       -0.2667
      8 C           2.8281    4.0567   20.5359 C.3     1  UNL1        0.1363
      9 C           0.9800    1.0139   22.4799 C.3     1  UNL1        0.0233
     10 C           1.6555    0.5894   21.2096 C.3     1  UNL1        0.0953
     11 C           2.4745   -0.6669   21.1794 C.3     1  UNL1        0.1106
     12 N           3.1500   -1.0914   19.9091 N.pl3   1  UNL1       -0.3040
     13 C           3.0063   -0.2598   18.6691 C.3     1  UNL1        0.1123
     14 C           2.1872    0.9964   18.6994 C.3     1  UNL1        0.1149
     15 N           1.5118    1.4210   19.9696 N.pl3   1  UNL1       -0.2777
     16 C           3.9691   -2.3478   19.8789 C.ar    1  UNL1        0.0511
     17 C           3.4327   -3.5768   19.2069 C.ar    1  UNL1        0.0352
     18 C           4.2517   -4.8331   19.1766 C.ar    1  UNL1        0.1002
     19 N           5.6072   -4.8603   19.8185 N.ar    1  UNL1       -0.2422
     20 C           6.1436   -3.6313   20.4906 C.ar    1  UNL1        0.1002
     21 C           5.3245   -2.3750   20.5208 C.ar    1  UNL1        0.0352
     22 C          -3.0809    3.8104   19.5242 C.ar    1  UNL1        0.1024
     23 C          -4.0309    3.6244   20.6700 C.ar    1  UNL1        0.0414
     24 C          -5.5081    3.5628   20.4170 C.ar    1  UNL1        0.1023
     25 N          -6.0353    3.6872   19.0183 N.ar    1  UNL1       -0.2224
     26 C          -5.0853    3.8731   17.8724 C.ar    1  UNL1        0.1989
     27 N          -3.6081    3.9347   18.1253 N.ar    1  UNL1       -0.2224
@<TRIPOS>BOND
     1    10     9    1
     2    10    11    1
     3    11    12    1
     4    12    16    1
     5    16    17   ar
     6    17    18   ar
     7    18    19   ar
     8    19    20   ar
     9    20    21   ar
    10    12    13    1
    11    13    14    1
    12    14    15    1
    13    15     1    1
    14     1     2   ar
    15     2     3   ar
    16     3    22    1
    17    22    23   ar
    18    23    24   ar
    19    24    25   ar
    20    25    26   ar
    21    26    27   ar
    22     3     4   ar
    23     4     5   ar
    24     5     6    2
    25     5     7   ar
    26     7     8    1
    27    15    10    1
    28     7     1   ar
    29    21    16   ar
    30    27    22   ar
@<TRIPOS>MOLECULE
*****
 27 30 0 0 0
SMALL
GASTEIGER

@<TRIPOS>ATOM
      1 C           0.8295    2.8345   19.8337 C.ar    1  UNL1        0.2035
      2 N           1.3945    1.4472   19.7554 N.ar    1  UNL1       -0.2133
      3 C           2.6656    1.1966   18.9994 C.ar    1  UNL1        0.1065
      4 C           3.3717    2.3334   18.3218 C.ar    1  UNL1        0.0815
      5 C           2.8068    3.7207   18.4001 C.ar    1  UNL1        0.2646
      6 O           3.5129    4.8574   17.7225 O.2     1  UNL1       -0.2668
      7 N           1.5356    3.9712   19.1561 N.ar    1  UNL1       -0.2667
      8 C           0.9706    5.3586   19.2345 C.3     1  UNL1        0.1363
      9 C           0.9199    3.3731   22.7836 C.3     1  UNL1        0.0233
     10 C          -0.3964    3.3544   22.0647 C.3     1  UNL1        0.0953
     11 C          -1.6675    3.6049   22.8206 C.3     1  UNL1        0.1106
     12 N          -2.9838    3.5861   22.1016 N.pl3   1  UNL1       -0.3040
     13 C          -3.0291    3.3168   20.6267 C.3     1  UNL1        0.1123
     14 C          -1.7580    3.0663   19.8708 C.3     1  UNL1        0.1149
     15 N          -0.4416    3.0851   20.5898 N.pl3   1  UNL1       -0.2777
     16 C          -4.2550    3.8367   22.8577 C.ar    1  UNL1        0.0511
     17 C          -4.2453    3.8502   24.3576 C.ar    1  UNL1        0.0352
     18 C          -5.5163    4.1007   25.1136 C.ar    1  UNL1        0.1002
     19 N          -6.7972    4.3378   24.3697 N.ar    1  UNL1       -0.2422
     20 C          -6.8069    4.3242   22.8698 C.ar    1  UNL1        0.1002
     21 C          -5.5357    4.0737   22.1138 C.ar    1  UNL1        0.0352
     22 C           3.2305   -0.1907   18.9211 C.ar    1  UNL1        0.1024
     23 C           2.7246   -1.2598   19.8436 C.ar    1  UNL1        0.0414
     24 C           3.2896   -2.6471   19.7653 C.ar    1  UNL1        0.1023
     25 N           4.3605   -2.9654   18.7644 N.ar    1  UNL1       -0.2224
     26 C           4.8665   -1.8963   17.8417 C.ar    1  UNL1        0.1989
     27 N           4.3015   -0.5090   17.9201 N.ar    1  UNL1       -0.2224
@<TRIPOS>BOND
     1    10     9    1
     2    10    11    1
     3    11    12    1
     4    12    16    1
     5    16    17   ar
     6    17    18   ar
     7    18    19   ar
     8    19    20   ar
     9    20    21   ar
    10    12    13    1
    11    13    14    1
    12    14    15    1
    13    15     1    1
    14     1     2   ar
    15     2     3   ar
    16     3    22    1
    17    22    23   ar
    18    23    24   ar
    19    24    25   ar
    20    25    26   ar
    21    26    27   ar
    22     3     4   ar
    23     4     5   ar
    24     5     6    2
    25     5     7   ar
    26     7     8    1
    27    15    10    1
    28     7     1   ar
    29    21    16   ar
    30    27    22   ar
