@<TRIPOS>MOLECULE
*****
 28 30 0 0 0
SMALL
GASTEIGER

@<TRIPOS>ATOM
      1 C          -3.2898  -19.5437   21.2709 C.ar    1  UNL1        0.1384
      2 C          -4.5513  -20.2059   20.8018 C.ar    1  UNL1        0.0366
      3 C          -5.8836  -19.6935   21.2628 C.ar    1  UNL1        0.0001
      4 C          -5.9543  -18.5188   22.1929 C.ar    1  UNL1       -0.0080
      5 C          -4.6929  -17.8566   22.6620 C.ar    1  UNL1       -0.0199
      6 C          -3.3606  -18.3691   22.2010 C.ar    1  UNL1        0.0324
      7 C          -4.7636  -16.6819   23.5921 C.3     1  UNL1        0.0477
      8 C          -6.0958  -16.1694   24.0531 C.3     1  UNL1        0.0984
      9 N          -7.3574  -16.8317   23.5839 N.am    1  UNL1       -0.2760
     10 C          -8.6896  -16.3193   24.0449 C.2     1  UNL1        0.2420
     11 O          -9.9511  -16.9815   23.5758 O.2     1  UNL1       -0.2734
     12 C          -7.2866  -18.0064   22.6538 C.3     1  UNL1        0.0975
     13 C          -8.5481  -18.6686   22.1847 C.3     1  UNL1        0.0224
     14 C          -9.2114  -19.7085   23.0383 C.3     1  UNL1        0.0020
     15 C         -10.4729  -20.3708   22.5691 C.3     1  UNL1        0.0001
     16 C         -11.0711  -19.9930   21.2464 C.3     1  UNL1        0.0000
     17 C         -10.4078  -18.9530   20.3929 C.3     1  UNL1        0.0001
     18 C          -9.1463  -18.2908   20.8620 C.3     1  UNL1        0.0020
     19 C          -0.9763  -19.1217   20.1667 C.3     1  UNL1        0.2525
     20 O          -1.9576  -20.0562   20.8099 O.3     1  UNL1       -0.4714
     21 C          -8.7603  -15.1445   24.9751 C.3     1  UNL1        0.1552
     22 N          -9.0990  -15.3525   26.4214 N.3     1  UNL1       -0.2878
     23 H          -9.3321  -16.3395   26.5303 H       1  UNL1        0.1238
     24 C          -8.0902  -15.0263   27.4824 C.3     1  UNL1        0.0985
     25 C          -6.6331  -15.2838   27.2364 C.3     1  UNL1        0.1263
     26 C          -6.0323  -16.6073   27.6073 C.3     1  UNL1        0.0332
     27 O          -5.7768  -14.2180   26.6194 O.3     1  UNL1       -0.3830
     28 H          -4.8678  -14.5448   26.5304 H       1  UNL1        0.2104
@<TRIPOS>BOND
     1    19    20    1
     2    20     1    1
     3     1     2   ar
     4     2     3   ar
     5     3     4   ar
     6     4     5   ar
     7     5     6   ar
     8     5     7    1
     9     7     8    1
    10     8     9    1
    11     9    10   am
    12    10    11    2
    13    10    21    1
    14    21    22    1
    15    22    24    1
    16    24    25    1
    17    25    26    1
    18    25    27    1
    19     9    12    1
    20    12    13    1
    21    13    14    1
    22    14    15    1
    23    15    16    1
    24    16    17    1
    25    17    18    1
    26     6     1   ar
    27    18    13    1
    28    12     4    1
    29    22    23    1
    30    27    28    1
@<TRIPOS>MOLECULE
*****
 28 30 0 0 0
SMALL
GASTEIGER

@<TRIPOS>ATOM
      1 C          -7.1490  -15.2868   26.3960 C.ar    1  UNL1        0.1384
      2 C          -8.4929  -15.7011   25.8744 C.ar    1  UNL1        0.0366
      3 C          -8.5902  -16.5399   24.6346 C.ar    1  UNL1        0.0001
      4 C          -7.3436  -16.9643   23.9165 C.ar    1  UNL1       -0.0080
      5 C          -5.9997  -16.5499   24.4381 C.ar    1  UNL1       -0.0199
      6 C          -5.9024  -15.7112   25.6779 C.ar    1  UNL1        0.0324
      7 C          -4.7530  -16.9743   23.7199 C.3     1  UNL1        0.0477
      8 C          -4.8503  -17.8130   22.4801 C.3     1  UNL1        0.0984
      9 N          -6.1943  -18.2274   21.9585 N.am    1  UNL1       -0.2760
     10 C          -6.2917  -19.0661   20.7187 C.2     1  UNL1        0.2420
     11 O          -7.6356  -19.4804   20.1971 O.2     1  UNL1       -0.2734
     12 C          -7.4409  -17.8030   22.6767 C.3     1  UNL1        0.0975
     13 C          -8.7849  -18.2173   22.1551 C.3     1  UNL1        0.0224
     14 C          -9.3936  -19.5149   22.5974 C.3     1  UNL1        0.0020
     15 C         -10.7376  -19.9292   22.0758 C.3     1  UNL1        0.0001
     16 C         -11.4728  -19.0460   21.1118 C.3     1  UNL1        0.0000
     17 C         -10.8641  -17.7484   20.6694 C.3     1  UNL1        0.0001
     18 C          -9.5201  -17.3341   21.1910 C.3     1  UNL1        0.0020
     19 C          -8.2920  -14.0951   28.4018 C.3     1  UNL1        0.2525
     20 O          -7.0516  -14.4481   27.6358 O.3     1  UNL1       -0.4714
     21 C          -5.0450  -19.4905   20.0005 C.3     1  UNL1        0.1552
     22 N          -4.1850  -18.4661   19.3215 N.3     1  UNL1       -0.2878
     23 H          -4.1910  -17.6365   19.9150 H       1  UNL1        0.1238
     24 C          -2.7478  -18.7733   19.0214 C.3     1  UNL1        0.0985
     25 C          -1.6727  -17.8145   19.4397 C.3     1  UNL1        0.1263
     26 C          -1.8574  -16.9685   20.6645 C.3     1  UNL1        0.0332
     27 O          -0.4130  -17.7018   18.6332 O.3     1  UNL1       -0.3830
     28 H           0.1719  -17.0422   19.0378 H       1  UNL1        0.2104
@<TRIPOS>BOND
     1    19    20    1
     2    20     1    1
     3     1     2   ar
     4     2     3   ar
     5     3     4   ar
     6     4     5   ar
     7     5     6   ar
     8     5     7    1
     9     7     8    1
    10     8     9    1
    11     9    10   am
    12    10    11    2
    13    10    21    1
    14    21    22    1
    15    22    24    1
    16    24    25    1
    17    25    26    1
    18    25    27    1
    19     9    12    1
    20    12    13    1
    21    13    14    1
    22    14    15    1
    23    15    16    1
    24    16    17    1
    25    17    18    1
    26     6     1   ar
    27    18    13    1
    28    12     4    1
    29    22    23    1
    30    27    28    1
@<TRIPOS>MOLECULE
*****
 28 30 0 0 0
SMALL
GASTEIGER

@<TRIPOS>ATOM
      1 C           0.3477    1.0521   21.2527 C.ar    1  UNL1        0.1384
      2 C           0.7625    0.1652   20.1164 C.ar    1  UNL1        0.0366
      3 C           1.8912   -0.8062   20.2965 C.ar    1  UNL1        0.0001
      4 C           2.6051   -0.8906   21.6130 C.ar    1  UNL1       -0.0080
      5 C           2.1903   -0.0037   22.7493 C.ar    1  UNL1       -0.0199
      6 C           1.0616    0.9676   22.5692 C.ar    1  UNL1        0.0324
      7 C           2.9042   -0.0882   24.0659 C.3     1  UNL1        0.0477
      8 C           4.0329   -1.0595   24.2461 C.3     1  UNL1        0.0984
      9 N           4.4477   -1.9465   23.1096 N.am    1  UNL1       -0.2760
     10 C           5.5765   -2.9178   23.2898 C.2     1  UNL1        0.2420
     11 O           5.9913   -3.8047   22.1535 O.2     1  UNL1       -0.2734
     12 C           3.7338   -1.8620   21.7932 C.3     1  UNL1        0.0975
     13 C           4.1487   -2.7489   20.6568 C.3     1  UNL1        0.0224
     14 C           5.1321   -2.2528   19.6386 C.3     1  UNL1        0.0020
     15 C           5.5469   -3.1397   18.5022 C.3     1  UNL1        0.0001
     16 C           4.9783   -4.5227   18.3841 C.3     1  UNL1        0.0000
     17 C           3.9949   -5.0189   19.4024 C.3     1  UNL1        0.0001
     18 C           3.5801   -4.1320   20.5387 C.3     1  UNL1        0.0020
     19 C          -0.7214    3.0481   19.9787 C.3     1  UNL1        0.2525
     20 O          -0.7810    2.0235   21.0726 O.3     1  UNL1       -0.4714
     21 C           6.2904   -3.0023   24.6064 C.3     1  UNL1        0.1552
     22 N           6.3025   -4.2924   25.3715 N.3     1  UNL1       -0.2878
     23 H           5.5953   -4.8928   24.9476 H       1  UNL1        0.1238
     24 C           7.5625   -5.1016   25.4573 C.3     1  UNL1        0.0985
     25 C           7.8538   -6.1480   24.4228 C.3     1  UNL1        0.1263
     26 C           8.1754   -7.5511   24.8450 C.3     1  UNL1        0.0332
     27 O           7.8234   -5.7915   22.9661 O.3     1  UNL1       -0.3830
     28 H           8.0326   -6.5768   22.4366 H       1  UNL1        0.2104
@<TRIPOS>BOND
     1    19    20    1
     2    20     1    1
     3     1     2   ar
     4     2     3   ar
     5     3     4   ar
     6     4     5   ar
     7     5     6   ar
     8     5     7    1
     9     7     8    1
    10     8     9    1
    11     9    10   am
    12    10    11    2
    13    10    21    1
    14    21    22    1
    15    22    24    1
    16    24    25    1
    17    25    26    1
    18    25    27    1
    19     9    12    1
    20    12    13    1
    21    13    14    1
    22    14    15    1
    23    15    16    1
    24    16    17    1
    25    17    18    1
    26     6     1   ar
    27    18    13    1
    28    12     4    1
    29    22    23    1
    30    27    28    1
@<TRIPOS>MOLECULE
*****
 28 30 0 0 0
SMALL
GASTEIGER

@<TRIPOS>ATOM
      1 C           0.9622    0.9909   22.1973 C.ar    1  UNL1        0.1384
      2 C           1.2399    0.1861   20.9623 C.ar    1  UNL1        0.0366
      3 C           2.2933   -0.8815   20.9840 C.ar    1  UNL1        0.0001
      4 C           3.0690   -1.1443   22.2407 C.ar    1  UNL1       -0.0080
      5 C           2.7913   -0.3395   23.4756 C.ar    1  UNL1       -0.0199
      6 C           1.7379    0.7282   23.4539 C.ar    1  UNL1        0.0324
      7 C           3.5671   -0.6022   24.7323 C.3     1  UNL1        0.0477
      8 C           4.6205   -1.6698   24.7540 C.3     1  UNL1        0.0984
      9 N           4.8982   -2.4747   23.5190 N.am    1  UNL1       -0.2760
     10 C           5.9517   -3.5423   23.5407 C.2     1  UNL1        0.2420
     11 O           6.2293   -4.3472   22.3058 O.2     1  UNL1       -0.2734
     12 C           4.1225   -2.2119   22.2624 C.3     1  UNL1        0.0975
     13 C           4.4002   -3.0168   21.0274 C.3     1  UNL1        0.0224
     14 C           5.3679   -2.5063   20.0014 C.3     1  UNL1        0.0020
     15 C           5.6456   -3.3112   18.7664 C.3     1  UNL1        0.0001
     16 C           4.9556   -4.6265   18.5576 C.3     1  UNL1        0.0000
     17 C           3.9878   -5.1370   19.5836 C.3     1  UNL1        0.0001
     18 C           3.7101   -4.3322   20.8185 C.3     1  UNL1        0.0020
     19 C           0.0721    3.2906   23.0154 C.3     1  UNL1        0.2525
     20 O          -0.0913    2.0585   22.1756 O.3     1  UNL1       -0.4714
     21 C           6.7274   -3.8051   24.7974 C.3     1  UNL1        0.1552
     22 N           6.3169   -4.9201   25.7129 N.3     1  UNL1       -0.2878
     23 H           5.6816   -5.5171   25.1833 H       1  UNL1        0.1238
     24 C           7.3568   -5.8192   26.3130 C.3     1  UNL1        0.0985
     25 C           7.4919   -7.2341   25.8337 C.3     1  UNL1        0.1263
     26 C           8.4517   -7.5632   24.7288 C.3     1  UNL1        0.0332
     27 O           6.6674   -8.3199   26.4591 O.3     1  UNL1       -0.3830
     28 H           6.8751   -9.1678   26.0363 H       1  UNL1        0.2104
@<TRIPOS>BOND
     1    19    20    1
     2    20     1    1
     3     1     2   ar
     4     2     3   ar
     5     3     4   ar
     6     4     5   ar
     7     5     6   ar
     8     5     7    1
     9     7     8    1
    10     8     9    1
    11     9    10   am
    12    10    11    2
    13    10    21    1
    14    21    22    1
    15    22    24    1
    16    24    25    1
    17    25    26    1
    18    25    27    1
    19     9    12    1
    20    12    13    1
    21    13    14    1
    22    14    15    1
    23    15    16    1
    24    16    17    1
    25    17    18    1
    26     6     1   ar
    27    18    13    1
    28    12     4    1
    29    22    23    1
    30    27    28    1
@<TRIPOS>MOLECULE
*****
 28 30 0 0 0
SMALL
GASTEIGER

@<TRIPOS>ATOM
      1 C           1.2139    1.2821   29.4769 C.ar    1  UNL1        0.1384
      2 C           2.2543    0.2213   29.2716 C.ar    1  UNL1        0.0366
      3 C           3.1609   -0.1687   30.4012 C.ar    1  UNL1        0.0001
      4 C           3.0269    0.5020   31.7362 C.ar    1  UNL1       -0.0080
      5 C           1.9865    1.5627   31.9415 C.ar    1  UNL1       -0.0199
      6 C           1.0800    1.9528   30.8119 C.ar    1  UNL1        0.0324
      7 C           1.8526    2.2335   33.2766 C.3     1  UNL1        0.0477
      8 C           2.7591    1.8434   34.4062 C.3     1  UNL1        0.0984
      9 N           3.7996    0.7826   34.2008 N.am    1  UNL1       -0.2760
     10 C           4.7061    0.3925   35.3304 C.2     1  UNL1        0.2420
     11 O           5.7466   -0.6682   35.1250 O.2     1  UNL1       -0.2734
     12 C           3.9335    0.1119   32.8658 C.3     1  UNL1        0.0975
     13 C           4.9739   -0.9489   32.6604 C.3     1  UNL1        0.0224
     14 C           6.3458   -0.5718   32.1853 C.3     1  UNL1        0.0020
     15 C           7.3863   -1.6327   31.9799 C.3     1  UNL1        0.0001
     16 C           7.0548   -3.0705   32.2497 C.3     1  UNL1        0.0000
     17 C           5.6830   -3.4475   32.7249 C.3     1  UNL1        0.0001
     18 C           4.6425   -2.3868   32.9302 C.3     1  UNL1        0.0020
     19 C          -0.9538    0.8998   28.0968 C.3     1  UNL1        0.2525
     20 O           0.3073    1.6722   28.3473 O.3     1  UNL1       -0.4714
     21 C           4.5722    1.0633   36.6654 C.3     1  UNL1        0.1552
     22 N           3.6456    0.4964   37.6999 N.3     1  UNL1       -0.2878
     23 H           4.2317    0.0866   38.4272 H       1  UNL1        0.1238
     24 C           2.6577    1.3886   38.3913 C.3     1  UNL1        0.0985
     25 C           1.5560    0.7909   39.2154 C.3     1  UNL1        0.1263
     26 C           0.5302    1.6799   39.8539 C.3     1  UNL1        0.0332
     27 O           1.4800   -0.6956   39.4010 O.3     1  UNL1       -0.3830
     28 H           0.7148   -0.9135   39.9558 H       1  UNL1        0.2104
@<TRIPOS>BOND
     1    19    20    1
     2    20     1    1
     3     1     2   ar
     4     2     3   ar
     5     3     4   ar
     6     4     5   ar
     7     5     6   ar
     8     5     7    1
     9     7     8    1
    10     8     9    1
    11     9    10   am
    12    10    11    2
    13    10    21    1
    14    21    22    1
    15    22    24    1
    16    24    25    1
    17    25    26    1
    18    25    27    1
    19     9    12    1
    20    12    13    1
    21    13    14    1
    22    14    15    1
    23    15    16    1
    24    16    17    1
    25    17    18    1
    26     6     1   ar
    27    18    13    1
    28    12     4    1
    29    22    23    1
    30    27    28    1
@<TRIPOS>MOLECULE
*****
 28 30 0 0 0
SMALL
GASTEIGER

@<TRIPOS>ATOM
      1 C           3.9394   -2.1592   21.4892 C.ar    1  UNL1        0.1384
      2 C           3.9190   -1.5752   22.8706 C.ar    1  UNL1        0.0366
      3 C           2.9527   -0.4783   23.2069 C.ar    1  UNL1        0.0001
      4 C           2.0068    0.0346   22.1618 C.ar    1  UNL1       -0.0080
      5 C           2.0273   -0.5495   20.7804 C.ar    1  UNL1       -0.0199
      6 C           2.9935   -1.6464   20.4441 C.ar    1  UNL1        0.0324
      7 C           1.0814   -0.0366   19.7352 C.3     1  UNL1        0.0477
      8 C           0.1151    1.0603   20.0715 C.3     1  UNL1        0.0984
      9 N           0.0947    1.6443   21.4531 N.am    1  UNL1       -0.2760
     10 C          -0.8715    2.7412   21.7894 C.2     1  UNL1        0.2420
     11 O          -0.8920    3.3253   23.1708 O.2     1  UNL1       -0.2734
     12 C           1.0406    1.1315   22.4982 C.3     1  UNL1        0.0975
     13 C           1.0202    1.7155   23.8796 C.3     1  UNL1        0.0224
     14 C           1.8786    2.9017   24.2052 C.3     1  UNL1        0.0020
     15 C           1.8582    3.4858   25.5867 C.3     1  UNL1        0.0001
     16 C           0.9793    2.8836   26.6426 C.3     1  UNL1        0.0000
     17 C           0.1208    1.6974   26.3170 C.3     1  UNL1        0.0001
     18 C           0.1412    1.1134   24.9356 C.3     1  UNL1        0.0020
     19 C           5.9735   -3.6417   22.1331 C.3     1  UNL1        0.2525
     20 O           4.9057   -3.2561   21.1528 O.3     1  UNL1       -0.4714
     21 C          -1.8174    3.2541   20.7442 C.3     1  UNL1        0.1552
     22 N          -3.2152    2.7151   20.6683 N.3     1  UNL1       -0.2878
     23 H          -3.2482    1.8959   21.2752 H       1  UNL1        0.1238
     24 C          -4.3761    3.5845   21.0510 C.3     1  UNL1        0.0985
     25 C          -4.8470    3.6231   22.4746 C.3     1  UNL1        0.1263
     26 C          -6.2716    3.9765   22.7840 C.3     1  UNL1        0.0332
     27 O          -3.8934    3.3084   23.5888 O.3     1  UNL1       -0.3830
     28 H          -4.3551    3.3786   24.4390 H       1  UNL1        0.2104
@<TRIPOS>BOND
     1    19    20    1
     2    20     1    1
     3     1     2   ar
     4     2     3   ar
     5     3     4   ar
     6     4     5   ar
     7     5     6   ar
     8     5     7    1
     9     7     8    1
    10     8     9    1
    11     9    10   am
    12    10    11    2
    13    10    21    1
    14    21    22    1
    15    22    24    1
    16    24    25    1
    17    25    26    1
    18    25    27    1
    19     9    12    1
    20    12    13    1
    21    13    14    1
    22    14    15    1
    23    15    16    1
    24    16    17    1
    25    17    18    1
    26     6     1   ar
    27    18    13    1
    28    12     4    1
    29    22    23    1
    30    27    28    1
@<TRIPOS>MOLECULE
*****
 28 30 0 0 0
SMALL
GASTEIGER

@<TRIPOS>ATOM
      1 C          -5.9221  -15.3758   25.1610 C.ar    1  UNL1        0.1384
      2 C          -4.9250  -16.2945   24.5193 C.ar    1  UNL1        0.0366
      3 C          -5.3472  -17.1903   23.3927 C.ar    1  UNL1        0.0001
      4 C          -6.7665  -17.1675   22.9078 C.ar    1  UNL1       -0.0080
      5 C          -7.7636  -16.2488   23.5496 C.ar    1  UNL1       -0.0199
      6 C          -7.3413  -15.3530   24.6762 C.ar    1  UNL1        0.0324
      7 C          -9.1829  -16.2259   23.0647 C.3     1  UNL1        0.0477
      8 C          -9.6051  -17.1218   21.9381 C.3     1  UNL1        0.0984
      9 N          -8.6080  -18.0405   21.2964 N.am    1  UNL1       -0.2760
     10 C          -9.0302  -18.9363   20.1698 C.2     1  UNL1        0.2420
     11 O          -8.0331  -19.8550   19.5280 O.2     1  UNL1       -0.2734
     12 C          -7.1887  -18.0633   21.7812 C.3     1  UNL1        0.0975
     13 C          -6.1917  -18.9820   21.1395 C.3     1  UNL1        0.0224
     14 C          -5.2070  -18.4429   20.1445 C.3     1  UNL1        0.0020
     15 C          -4.2100  -19.3617   19.5028 C.3     1  UNL1        0.0001
     16 C          -4.1975  -20.8194   19.8560 C.3     1  UNL1        0.0000
     17 C          -5.1821  -21.3585   20.8509 C.3     1  UNL1        0.0001
     18 C          -6.1792  -20.4398   21.4927 C.3     1  UNL1        0.0020
     19 C          -6.3365  -14.3916   27.5295 C.3     1  UNL1        0.2525
     20 O          -5.4999  -14.4800   26.2876 O.3     1  UNL1       -0.4714
     21 C         -10.4495  -18.9134   19.6849 C.3     1  UNL1        0.1552
     22 N         -11.5523  -19.4156   20.5691 N.3     1  UNL1       -0.2878
     23 H         -12.2265  -19.8825   19.9626 H       1  UNL1        0.1238
     24 C         -11.2432  -20.3674   21.6865 C.3     1  UNL1        0.0985
     25 C         -11.0312  -19.8475   23.0775 C.3     1  UNL1        0.1263
     26 C          -9.8372  -20.2908   23.8700 C.3     1  UNL1        0.0332
     27 O         -12.0132  -18.8845   23.6760 O.3     1  UNL1       -0.3830
     28 H         -11.7299  -18.6500   24.5736 H       1  UNL1        0.2104
@<TRIPOS>BOND
     1    19    20    1
     2    20     1    1
     3     1     2   ar
     4     2     3   ar
     5     3     4   ar
     6     4     5   ar
     7     5     6   ar
     8     5     7    1
     9     7     8    1
    10     8     9    1
    11     9    10   am
    12    10    11    2
    13    10    21    1
    14    21    22    1
    15    22    24    1
    16    24    25    1
    17    25    26    1
    18    25    27    1
    19     9    12    1
    20    12    13    1
    21    13    14    1
    22    14    15    1
    23    15    16    1
    24    16    17    1
    25    17    18    1
    26     6     1   ar
    27    18    13    1
    28    12     4    1
    29    22    23    1
    30    27    28    1
@<TRIPOS>MOLECULE
*****
 28 30 0 0 0
SMALL
GASTEIGER

@<TRIPOS>ATOM
      1 C          -2.1229  -18.7509   20.7204 C.ar    1  UNL1        0.1384
      2 C          -2.8456  -19.5179   19.6530 C.ar    1  UNL1        0.0366
      3 C          -4.3327  -19.6967   19.7344 C.ar    1  UNL1        0.0001
      4 C          -5.0970  -19.1085   20.8832 C.ar    1  UNL1       -0.0080
      5 C          -4.3743  -18.3414   21.9505 C.ar    1  UNL1       -0.0199
      6 C          -2.8872  -18.1627   21.8691 C.ar    1  UNL1        0.0324
      7 C          -5.1387  -17.7531   23.0993 C.3     1  UNL1        0.0477
      8 C          -6.6258  -17.9319   23.1807 C.3     1  UNL1        0.0984
      9 N          -7.3485  -18.6990   22.1133 N.am    1  UNL1       -0.2760
     10 C          -8.8356  -18.8778   22.1947 C.2     1  UNL1        0.2420
     11 O          -9.5583  -19.6448   21.1273 O.2     1  UNL1       -0.2734
     12 C          -6.5841  -19.2872   20.9645 C.3     1  UNL1        0.0975
     13 C          -7.3068  -20.0543   19.8972 C.3     1  UNL1        0.0224
     14 C          -8.3045  -19.3589   19.0190 C.3     1  UNL1        0.0020
     15 C          -9.0272  -20.1261   17.9516 C.3     1  UNL1        0.0001
     16 C          -8.7523  -21.5884   17.7624 C.3     1  UNL1        0.0000
     17 C          -7.7546  -22.2838   18.6406 C.3     1  UNL1        0.0001
     18 C          -7.0319  -21.5167   19.7079 C.3     1  UNL1        0.0020
     19 C          -0.0559  -17.5012   19.7633 C.3     1  UNL1        0.2525
     20 O          -0.6358  -18.5721   20.6390 O.3     1  UNL1       -0.4714
     21 C          -9.5999  -18.2895   23.3435 C.3     1  UNL1        0.1552
     22 N         -10.2022  -16.9211   23.2213 N.3     1  UNL1       -0.2878
     23 H          -9.4912  -16.2579   23.5295 H       1  UNL1        0.1238
     24 C         -10.6993  -16.4365   21.8917 C.3     1  UNL1        0.0985
     25 C         -12.0826  -16.7916   21.4333 C.3     1  UNL1        0.1263
     26 C         -12.9633  -17.6446   22.2976 C.3     1  UNL1        0.0332
     27 O         -12.5854  -16.2939   20.1106 O.3     1  UNL1       -0.3830
     28 H         -13.4907  -16.6118   19.9684 H       1  UNL1        0.2104
@<TRIPOS>BOND
     1    19    20    1
     2    20     1    1
     3     1     2   ar
     4     2     3   ar
     5     3     4   ar
     6     4     5   ar
     7     5     6   ar
     8     5     7    1
     9     7     8    1
    10     8     9    1
    11     9    10   am
    12    10    11    2
    13    10    21    1
    14    21    22    1
    15    22    24    1
    16    24    25    1
    17    25    26    1
    18    25    27    1
    19     9    12    1
    20    12    13    1
    21    13    14    1
    22    14    15    1
    23    15    16    1
    24    16    17    1
    25    17    18    1
    26     6     1   ar
    27    18    13    1
    28    12     4    1
    29    22    23    1
    30    27    28    1
@<TRIPOS>MOLECULE
*****
 28 30 0 0 0
SMALL
GASTEIGER

@<TRIPOS>ATOM
      1 C          -6.0696  -15.4410   25.3697 C.ar    1  UNL1        0.1384
      2 C          -5.0067  -16.1436   24.5781 C.ar    1  UNL1        0.0366
      3 C          -5.3915  -17.0778   23.4694 C.ar    1  UNL1        0.0001
      4 C          -6.8392  -17.3096   23.1524 C.ar    1  UNL1       -0.0080
      5 C          -7.9020  -16.6070   23.9440 C.ar    1  UNL1       -0.0199
      6 C          -7.5173  -15.6727   25.0526 C.ar    1  UNL1        0.0324
      7 C          -9.3498  -16.8387   23.6270 C.3     1  UNL1        0.0477
      8 C          -9.7346  -17.7730   22.5183 C.3     1  UNL1        0.0984
      9 N          -8.6716  -18.4755   21.7267 N.am    1  UNL1       -0.2760
     10 C          -9.0564  -19.4098   20.6180 C.2     1  UNL1        0.2420
     11 O          -7.9935  -20.1123   19.8264 O.2     1  UNL1       -0.2734
     12 C          -7.2240  -18.2438   22.0437 C.3     1  UNL1        0.0975
     13 C          -6.1611  -18.9464   21.2521 C.3     1  UNL1        0.0224
     14 C          -5.4445  -18.2227   20.1508 C.3     1  UNL1        0.0020
     15 C          -4.3816  -18.9253   19.3592 C.3     1  UNL1        0.0001
     16 C          -4.0353  -20.3515   19.6689 C.3     1  UNL1        0.0000
     17 C          -4.7518  -21.0752   20.7702 C.3     1  UNL1        0.0001
     18 C          -5.8147  -20.3726   21.5618 C.3     1  UNL1        0.0020
     19 C          -6.5675  -14.3689   27.6832 C.3     1  UNL1        0.2525
     20 O          -5.6848  -14.5068   26.4783 O.3     1  UNL1       -0.4714
     21 C         -10.5041  -19.6415   20.3010 C.3     1  UNL1        0.1552
     22 N         -11.2354  -18.6925   19.3984 N.3     1  UNL1       -0.2878
     23 H         -12.2313  -18.8332   19.5680 H       1  UNL1        0.1238
     24 C         -10.9833  -17.2173   19.4987 C.3     1  UNL1        0.0985
     25 C         -12.0915  -16.2931   19.9082 C.3     1  UNL1        0.1263
     26 C         -12.6474  -16.3591   21.2999 C.3     1  UNL1        0.0332
     27 O         -12.6439  -15.3031   18.9261 O.3     1  UNL1       -0.3830
     28 H         -13.3488  -14.7875   19.3485 H       1  UNL1        0.2104
@<TRIPOS>BOND
     1    19    20    1
     2    20     1    1
     3     1     2   ar
     4     2     3   ar
     5     3     4   ar
     6     4     5   ar
     7     5     6   ar
     8     5     7    1
     9     7     8    1
    10     8     9    1
    11     9    10   am
    12    10    11    2
    13    10    21    1
    14    21    22    1
    15    22    24    1
    16    24    25    1
    17    25    26    1
    18    25    27    1
    19     9    12    1
    20    12    13    1
    21    13    14    1
    22    14    15    1
    23    15    16    1
    24    16    17    1
    25    17    18    1
    26     6     1   ar
    27    18    13    1
    28    12     4    1
    29    22    23    1
    30    27    28    1
