@<TRIPOS>MOLECULE
*****
 25 28 0 0 0
SMALL
GASTEIGER

@<TRIPOS>ATOM
      1 O          -9.7901   -4.6660   17.7705 O.3     1  UNL1       -0.4753
      2 C         -10.4219   -3.3075   17.6973 C.ar    1  UNL1        0.1386
      3 C         -10.1479   -2.4152   16.5231 C.ar    1  UNL1        0.0370
      4 C         -10.7796   -1.0567   16.4499 C.ar    1  UNL1        0.0063
      5 C         -11.6853   -0.5904   17.5510 C.ar    1  UNL1        0.0393
      6 C         -11.9592   -1.4827   18.7252 C.ar    1  UNL1        0.0063
      7 C         -11.3275   -2.8412   18.7984 C.ar    1  UNL1        0.0370
      8 C         -12.3170    0.7681   17.4779 C.ar    1  UNL1        0.2033
      9 N         -13.3505    1.3117   18.4194 N.ar    1  UNL1       -0.0560
     10 O         -13.6984    2.7011   17.9738 O.2     1  UNL1       -0.3370
     11 C         -12.8800    3.0162   16.7569 C.ar    1  UNL1        0.2371
     12 C         -12.9100    4.3004   15.9824 C.3     1  UNL1        0.0978
     13 N         -12.0262    1.8215   16.4503 N.ar    1  UNL1       -0.1907
     14 C         -10.2301   -5.6421   18.8209 C.3     1  UNL1        0.2087
     15 N         -13.3627   -7.4193   18.4430 N.pl3   1  UNL1       -0.2915
     16 C         -12.0192   -7.4847   17.7789 C.3     1  UNL1        0.0976
     17 C         -11.5277   -6.3783   18.6644 C.3     1  UNL1        0.0832
     18 C         -12.8711   -6.3127   19.3285 C.3     1  UNL1        0.0976
     19 C         -18.5529  -10.3637   17.8168 C.3     1  UNL1        0.0540
     20 C         -17.2553   -9.6276   17.9734 C.ar    1  UNL1        0.0810
     21 C         -17.1330   -8.2125   17.4914 C.ar    1  UNL1        0.0194
     22 C         -15.8354   -7.4764   17.6479 C.ar    1  UNL1        0.0374
     23 C         -14.6602   -8.1554   18.2865 C.ar    1  UNL1        0.1534
     24 N         -14.7826   -9.5705   18.7684 N.ar    1  UNL1       -0.1332
     25 N         -16.0801  -10.3066   18.6119 N.ar    1  UNL1       -0.1512
@<TRIPOS>BOND
     1    19    20    1
     2    20    21   ar
     3    21    22   ar
     4    22    23   ar
     5    23    15    1
     6    15    16    1
     7    16    17    1
     8    17    14    1
     9    14     1    1
    10     1     2    1
    11     2     3   ar
    12     3     4   ar
    13     4     5   ar
    14     5     8    1
    15     8     9   ar
    16     9    10   ar
    17    10    11   ar
    18    11    12    1
    19    11    13   ar
    20     5     6   ar
    21     6     7   ar
    22    17    18    1
    23    23    24   ar
    24    24    25   ar
    25    25    20   ar
    26    18    15    1
    27     7     2   ar
    28    13     8   ar
@<TRIPOS>MOLECULE
*****
 25 28 0 0 0
SMALL
GASTEIGER

@<TRIPOS>ATOM
      1 O         -10.0020   -5.0279   18.5208 O.3     1  UNL1       -0.4753
      2 C         -10.8041   -3.7611   18.4757 C.ar    1  UNL1        0.1386
      3 C         -12.0325   -3.6206   19.3250 C.ar    1  UNL1        0.0370
      4 C         -12.8346   -2.3539   19.2798 C.ar    1  UNL1        0.0063
      5 C         -12.4083   -1.2277   18.3854 C.ar    1  UNL1        0.0393
      6 C         -11.1799   -1.3682   17.5362 C.ar    1  UNL1        0.0063
      7 C         -10.3778   -2.6350   17.5813 C.ar    1  UNL1        0.0370
      8 C         -13.2104    0.0390   18.3403 C.ar    1  UNL1        0.2033
      9 N         -12.7278    1.3711   17.8478 N.ar    1  UNL1       -0.0560
     10 O         -13.8551    2.3515   17.9828 O.2     1  UNL1       -0.3370
     11 C         -15.0344    1.6252   18.5588 C.ar    1  UNL1        0.2371
     12 C         -16.3765    2.2231   18.8609 C.3     1  UNL1        0.0978
     13 N         -14.6360    0.1960   18.7798 N.ar    1  UNL1       -0.1907
     14 C         -10.3253   -6.1541   17.5844 C.3     1  UNL1        0.2087
     15 N         -13.5551   -7.7828   17.7582 N.pl3   1  UNL1       -0.2915
     16 C         -12.6080   -7.1953   18.7622 C.3     1  UNL1        0.0976
     17 C         -11.6631   -6.8287   17.6564 C.3     1  UNL1        0.0832
     18 C         -12.6102   -7.4161   16.6523 C.3     1  UNL1        0.0976
     19 C         -18.9063  -10.4812   18.0461 C.3     1  UNL1        0.0540
     20 C         -17.5685   -9.8066   17.9741 C.ar    1  UNL1        0.0810
     21 C         -17.4357   -8.4744   17.2978 C.ar    1  UNL1        0.0194
     22 C         -16.0979   -7.7998   17.2258 C.ar    1  UNL1        0.0374
     23 C         -14.8929   -8.4574   17.8302 C.ar    1  UNL1        0.1534
     24 N         -15.0256   -9.7896   18.5066 N.ar    1  UNL1       -0.1332
     25 N         -16.3634  -10.4642   18.5785 N.ar    1  UNL1       -0.1512
@<TRIPOS>BOND
     1    19    20    1
     2    20    21   ar
     3    21    22   ar
     4    22    23   ar
     5    23    15    1
     6    15    16    1
     7    16    17    1
     8    17    14    1
     9    14     1    1
    10     1     2    1
    11     2     3   ar
    12     3     4   ar
    13     4     5   ar
    14     5     8    1
    15     8     9   ar
    16     9    10   ar
    17    10    11   ar
    18    11    12    1
    19    11    13   ar
    20     5     6   ar
    21     6     7   ar
    22    17    18    1
    23    23    24   ar
    24    24    25   ar
    25    25    20   ar
    26    18    15    1
    27     7     2   ar
    28    13     8   ar
@<TRIPOS>MOLECULE
*****
 25 28 0 0 0
SMALL
GASTEIGER

@<TRIPOS>ATOM
      1 O         -11.1354  -19.4057   20.5353 O.3     1  UNL1       -0.4753
      2 C         -10.5815  -18.8151   21.7979 C.ar    1  UNL1        0.1386
      3 C         -10.1137  -19.7139   22.9041 C.ar    1  UNL1        0.0370
      4 C          -9.5598  -19.1234   24.1668 C.ar    1  UNL1        0.0063
      5 C          -9.4735  -17.6340   24.3233 C.ar    1  UNL1        0.0393
      6 C          -9.9412  -16.7353   23.2172 C.ar    1  UNL1        0.0063
      7 C         -10.4952  -17.3258   21.9545 C.ar    1  UNL1        0.0370
      8 C          -8.9195  -17.0435   25.5860 C.ar    1  UNL1        0.2033
      9 N          -9.1460  -17.5618   26.9752 N.ar    1  UNL1       -0.0560
     10 O          -8.4083  -16.6696   27.9290 O.2     1  UNL1       -0.3370
     11 C          -7.7258  -15.5998   27.1292 C.ar    1  UNL1        0.2371
     12 C          -6.8764  -14.4932   27.6806 C.3     1  UNL1        0.0978
     13 N          -8.0417  -15.8308   25.6811 N.ar    1  UNL1       -0.1907
     14 C         -10.2060  -19.8624   19.4501 C.3     1  UNL1        0.2087
     15 N          -6.6350  -19.3735   19.8001 N.pl3   1  UNL1       -0.2915
     16 C          -7.8570  -18.6799   20.3252 C.3     1  UNL1        0.0976
     17 C          -8.7268  -19.6599   19.5951 C.3     1  UNL1        0.0832
     18 C          -7.5049  -20.3535   19.0700 C.3     1  UNL1        0.0976
     19 C          -0.7182  -18.5636   20.3800 C.3     1  UNL1        0.0540
     20 C          -2.1974  -18.7661   20.2350 C.ar    1  UNL1        0.0810
     21 C          -2.8899  -19.8326   21.0305 C.ar    1  UNL1        0.0194
     22 C          -4.3691  -20.0351   20.8856 C.ar    1  UNL1        0.0374
     23 C          -5.1558  -19.1711   19.9451 C.ar    1  UNL1        0.1534
     24 N          -4.4633  -18.1045   19.1496 N.ar    1  UNL1       -0.1332
     25 N          -2.9841  -17.9021   19.2945 N.ar    1  UNL1       -0.1512
@<TRIPOS>BOND
     1    19    20    1
     2    20    21   ar
     3    21    22   ar
     4    22    23   ar
     5    23    15    1
     6    15    16    1
     7    16    17    1
     8    17    14    1
     9    14     1    1
    10     1     2    1
    11     2     3   ar
    12     3     4   ar
    13     4     5   ar
    14     5     8    1
    15     8     9   ar
    16     9    10   ar
    17    10    11   ar
    18    11    12    1
    19    11    13   ar
    20     5     6   ar
    21     6     7   ar
    22    17    18    1
    23    23    24   ar
    24    24    25   ar
    25    25    20   ar
    26    18    15    1
    27     7     2   ar
    28    13     8   ar
@<TRIPOS>MOLECULE
*****
 25 28 0 0 0
SMALL
GASTEIGER

@<TRIPOS>ATOM
      1 O          -0.4808    1.1164   20.4525 O.3     1  UNL1       -0.4753
      2 C           0.8351    0.5531   20.0039 C.ar    1  UNL1        0.1386
      3 C           1.3984    0.9363   18.6675 C.ar    1  UNL1        0.0370
      4 C           2.7142    0.3730   18.2188 C.ar    1  UNL1        0.0063
      5 C           3.4667   -0.5735   19.1065 C.ar    1  UNL1        0.0393
      6 C           2.9034   -0.9566   20.4429 C.ar    1  UNL1        0.0063
      7 C           1.5876   -0.3933   20.8915 C.ar    1  UNL1        0.0370
      8 C           4.7825   -1.1368   18.6579 C.ar    1  UNL1        0.2033
      9 N           5.1507   -1.5040   17.2509 N.ar    1  UNL1       -0.0560
     10 O           6.5569   -2.0259   17.2609 O.2     1  UNL1       -0.3370
     11 C           7.0579   -1.9813   18.6740 C.ar    1  UNL1        0.2371
     12 C           8.4169   -2.4108   19.1417 C.3     1  UNL1        0.0978
     13 N           5.9613   -1.4318   19.5375 N.ar    1  UNL1       -0.1907
     14 C          -0.6927    2.6012   20.4743 C.3     1  UNL1        0.2087
     15 N          -3.9551    3.9758   19.7120 N.pl3   1  UNL1       -0.2915
     16 C          -3.3770    3.1826   20.8464 C.3     1  UNL1        0.0976
     17 C          -2.0440    3.1706   20.1585 C.3     1  UNL1        0.0832
     18 C          -2.6221    3.9637   19.0242 C.3     1  UNL1        0.0976
     19 C          -9.3604    6.2535   18.4491 C.3     1  UNL1        0.0540
     20 C          -8.0091    5.6841   18.7648 C.ar    1  UNL1        0.0810
     21 C          -7.0048    6.5078   19.5150 C.ar    1  UNL1        0.0194
     22 C          -5.6534    5.9383   19.8308 C.ar    1  UNL1        0.0374
     23 C          -5.3064    4.5452   19.3963 C.ar    1  UNL1        0.1534
     24 N          -6.3107    3.7216   18.6461 N.ar    1  UNL1       -0.1332
     25 N          -7.6621    4.2910   18.3304 N.ar    1  UNL1       -0.1512
@<TRIPOS>BOND
     1    19    20    1
     2    20    21   ar
     3    21    22   ar
     4    22    23   ar
     5    23    15    1
     6    15    16    1
     7    16    17    1
     8    17    14    1
     9    14     1    1
    10     1     2    1
    11     2     3   ar
    12     3     4   ar
    13     4     5   ar
    14     5     8    1
    15     8     9   ar
    16     9    10   ar
    17    10    11   ar
    18    11    12    1
    19    11    13   ar
    20     5     6   ar
    21     6     7   ar
    22    17    18    1
    23    23    24   ar
    24    24    25   ar
    25    25    20   ar
    26    18    15    1
    27     7     2   ar
    28    13     8   ar
@<TRIPOS>MOLECULE
*****
 25 28 0 0 0
SMALL
GASTEIGER

@<TRIPOS>ATOM
      1 O          -0.7688    1.2406   20.2048 O.3     1  UNL1       -0.4753
      2 C           0.5748    0.7208   19.7872 C.ar    1  UNL1        0.1386
      3 C           1.1449   -0.5000   20.4467 C.ar    1  UNL1        0.0370
      4 C           2.4886   -1.0197   20.0291 C.ar    1  UNL1        0.0063
      5 C           3.2622   -0.3186   18.9520 C.ar    1  UNL1        0.0393
      6 C           2.6922    0.9021   18.2926 C.ar    1  UNL1        0.0063
      7 C           1.3485    1.4218   18.7102 C.ar    1  UNL1        0.0370
      8 C           4.6059   -0.8383   18.5344 C.ar    1  UNL1        0.2033
      9 N           5.1033   -0.9645   17.1249 N.ar    1  UNL1       -0.0560
     10 O           6.4929   -1.5273   17.1723 O.2     1  UNL1       -0.3370
     11 C           6.8544   -1.7489   18.6111 C.ar    1  UNL1        0.2371
     12 C           8.1539   -2.2996   19.1190 C.3     1  UNL1        0.0978
     13 N           5.6882   -1.3231   19.4530 N.ar    1  UNL1       -0.1907
     14 C          -0.9583    2.7054   20.4660 C.3     1  UNL1        0.2087
     15 N          -4.0063    3.8875   22.0236 N.pl3   1  UNL1       -0.2915
     16 C          -3.6763    3.1680   20.7494 C.3     1  UNL1        0.0976
     17 C          -2.2209    3.1951   21.1112 C.3     1  UNL1        0.0832
     18 C          -2.5508    3.9146   22.3853 C.3     1  UNL1        0.0976
     19 C          -9.0564    5.8461   24.6044 C.3     1  UNL1        0.0540
     20 C          -7.7939    5.3565   23.9592 C.ar    1  UNL1        0.0810
     21 C          -6.6379    4.9194   24.8092 C.ar    1  UNL1        0.0194
     22 C          -5.3754    4.4297   24.1640 C.ar    1  UNL1        0.0374
     23 C          -5.2689    4.3772   22.6688 C.ar    1  UNL1        0.1534
     24 N          -6.4248    4.8143   21.8187 N.ar    1  UNL1       -0.1332
     25 N          -7.6873    5.3039   22.4639 N.ar    1  UNL1       -0.1512
@<TRIPOS>BOND
     1    19    20    1
     2    20    21   ar
     3    21    22   ar
     4    22    23   ar
     5    23    15    1
     6    15    16    1
     7    16    17    1
     8    17    14    1
     9    14     1    1
    10     1     2    1
    11     2     3   ar
    12     3     4   ar
    13     4     5   ar
    14     5     8    1
    15     8     9   ar
    16     9    10   ar
    17    10    11   ar
    18    11    12    1
    19    11    13   ar
    20     5     6   ar
    21     6     7   ar
    22    17    18    1
    23    23    24   ar
    24    24    25   ar
    25    25    20   ar
    26    18    15    1
    27     7     2   ar
    28    13     8   ar
@<TRIPOS>MOLECULE
*****
 25 28 0 0 0
SMALL
GASTEIGER

@<TRIPOS>ATOM
      1 O           8.0648   -5.9209   22.1649 O.3     1  UNL1       -0.4753
      2 C           8.0528   -5.9968   23.6629 C.ar    1  UNL1        0.1386
      3 C           8.3727   -7.2909   24.3508 C.ar    1  UNL1        0.0370
      4 C           8.3607   -7.3668   25.8489 C.ar    1  UNL1        0.0063
      5 C           8.0289   -6.1487   26.6590 C.ar    1  UNL1        0.0393
      6 C           7.7091   -4.8547   25.9710 C.ar    1  UNL1        0.0063
      7 C           7.7211   -4.7788   24.4730 C.ar    1  UNL1        0.0370
      8 C           8.0169   -6.2246   28.1570 C.ar    1  UNL1        0.2033
      9 N           6.9380   -5.7007   29.0578 N.ar    1  UNL1       -0.0560
     10 O           7.3360   -5.9901   30.4748 O.2     1  UNL1       -0.3370
     11 C           8.6610   -6.6929   30.4497 C.ar    1  UNL1        0.2371
     12 C           9.4301   -7.1674   31.6469 C.3     1  UNL1        0.0978
     13 N           9.0819   -6.8379   29.0173 N.ar    1  UNL1       -0.1907
     14 C           8.3474   -4.6155   21.4823 C.3     1  UNL1        0.2087
     15 N           5.6089   -2.5351   20.3481 N.pl3   1  UNL1       -0.2915
     16 C           6.0740   -3.9303   20.0528 C.3     1  UNL1        0.0976
     17 C           7.2131   -3.7537   21.0125 C.3     1  UNL1        0.0832
     18 C           6.7481   -2.3586   21.3079 C.3     1  UNL1        0.0976
     19 C           1.0716    0.9118   18.4690 C.3     1  UNL1        0.0540
     20 C           2.2059    0.0501   18.9388 C.ar    1  UNL1        0.0810
     21 C           2.0390   -0.8122   20.1547 C.ar    1  UNL1        0.0194
     22 C           3.1734   -1.6739   20.6245 C.ar    1  UNL1        0.0374
     23 C           4.4746   -1.6733   19.8784 C.ar    1  UNL1        0.1534
     24 N           4.6415   -0.8111   18.6624 N.ar    1  UNL1       -0.1332
     25 N           3.5071    0.0507   18.1926 N.ar    1  UNL1       -0.1512
@<TRIPOS>BOND
     1    19    20    1
     2    20    21   ar
     3    21    22   ar
     4    22    23   ar
     5    23    15    1
     6    15    16    1
     7    16    17    1
     8    17    14    1
     9    14     1    1
    10     1     2    1
    11     2     3   ar
    12     3     4   ar
    13     4     5   ar
    14     5     8    1
    15     8     9   ar
    16     9    10   ar
    17    10    11   ar
    18    11    12    1
    19    11    13   ar
    20     5     6   ar
    21     6     7   ar
    22    17    18    1
    23    23    24   ar
    24    24    25   ar
    25    25    20   ar
    26    18    15    1
    27     7     2   ar
    28    13     8   ar
@<TRIPOS>MOLECULE
*****
 25 28 0 0 0
SMALL
GASTEIGER

@<TRIPOS>ATOM
      1 O           4.9054   -2.4332   18.1168 O.3     1  UNL1       -0.4753
      2 C           3.8160   -1.4880   18.5288 C.ar    1  UNL1        0.1386
      3 C           2.9072   -1.8420   19.6685 C.ar    1  UNL1        0.0370
      4 C           1.8177   -0.8968   20.0804 C.ar    1  UNL1        0.0063
      5 C           1.6371    0.4023   19.3526 C.ar    1  UNL1        0.0393
      6 C           2.5458    0.7563   18.2130 C.ar    1  UNL1        0.0063
      7 C           3.6353   -0.1889   17.8010 C.ar    1  UNL1        0.0370
      8 C           0.5476    1.3475   19.7645 C.ar    1  UNL1        0.2033
      9 N          -0.2550    1.2704   21.0294 N.ar    1  UNL1       -0.0560
     10 O          -1.2292    2.4110   21.0305 O.2     1  UNL1       -0.3370
     11 C          -1.0287    3.1931   19.7664 C.ar    1  UNL1        0.2371
     12 C          -1.7922    4.4175   19.3565 C.3     1  UNL1        0.0978
     13 N           0.0694    2.5359   18.9839 N.ar    1  UNL1       -0.1907
     14 C           6.2563   -2.3482   18.7633 C.3     1  UNL1        0.2087
     15 N           6.8307   -3.9263   21.9717 N.pl3   1  UNL1       -0.2915
     16 C           7.6353   -3.0426   21.0650 C.3     1  UNL1        0.0976
     17 C           6.4942   -3.0019   20.0923 C.3     1  UNL1        0.0832
     18 C           5.6896   -3.8855   20.9988 C.3     1  UNL1        0.0976
     19 C           7.7826   -6.5409   27.2875 C.3     1  UNL1        0.0540
     20 C           7.5446   -5.8873   25.9585 C.ar    1  UNL1        0.0810
     21 C           6.8617   -4.5535   25.8903 C.ar    1  UNL1        0.0194
     22 C           6.6237   -3.8999   24.5613 C.ar    1  UNL1        0.0374
     23 C           7.0687   -4.5799   23.3006 C.ar    1  UNL1        0.1534
     24 N           7.7516   -5.9137   23.3688 N.ar    1  UNL1       -0.1332
     25 N           7.9896   -6.5673   24.6978 N.ar    1  UNL1       -0.1512
@<TRIPOS>BOND
     1    19    20    1
     2    20    21   ar
     3    21    22   ar
     4    22    23   ar
     5    23    15    1
     6    15    16    1
     7    16    17    1
     8    17    14    1
     9    14     1    1
    10     1     2    1
    11     2     3   ar
    12     3     4   ar
    13     4     5   ar
    14     5     8    1
    15     8     9   ar
    16     9    10   ar
    17    10    11   ar
    18    11    12    1
    19    11    13   ar
    20     5     6   ar
    21     6     7   ar
    22    17    18    1
    23    23    24   ar
    24    24    25   ar
    25    25    20   ar
    26    18    15    1
    27     7     2   ar
    28    13     8   ar
@<TRIPOS>MOLECULE
*****
 25 28 0 0 0
SMALL
GASTEIGER

@<TRIPOS>ATOM
      1 O           0.5335    1.2680   18.1181 O.3     1  UNL1       -0.4753
      2 C           1.5701    0.3255   18.6539 C.ar    1  UNL1        0.1386
      3 C           1.3301   -0.3976   19.9461 C.ar    1  UNL1        0.0370
      4 C           2.3668   -1.3400   20.4819 C.ar    1  UNL1        0.0063
      5 C           3.6435   -1.5594   19.7256 C.ar    1  UNL1        0.0393
      6 C           3.8835   -0.8363   18.4335 C.ar    1  UNL1        0.0063
      7 C           2.8468    0.1061   17.8976 C.ar    1  UNL1        0.0370
      8 C           4.6802   -2.5018   20.2614 C.ar    1  UNL1        0.2033
      9 N           4.4274   -3.6621   21.1779 N.ar    1  UNL1       -0.0560
     10 O           5.7427   -4.3268   21.4577 O.2     1  UNL1       -0.3370
     11 C           6.8083   -3.5774   20.7142 C.ar    1  UNL1        0.2371
     12 C           8.2733   -3.8993   20.7106 C.3     1  UNL1        0.0978
     13 N           6.1517   -2.4494   19.9748 N.ar    1  UNL1       -0.1907
     14 C           0.4473    2.6684   18.6484 C.3     1  UNL1        0.2087
     15 N          -2.1853    3.5678   20.9667 N.pl3   1  UNL1       -0.2915
     16 C          -0.8982    2.8040   21.0677 C.3     1  UNL1        0.0976
     17 C          -0.6432    3.0409   19.6087 C.3     1  UNL1        0.0832
     18 C          -1.9302    3.8047   19.5076 C.3     1  UNL1        0.0976
     19 C          -6.5472    5.0580   24.8077 C.3     1  UNL1        0.0540
     20 C          -5.4567    4.6855   23.8474 C.ar    1  UNL1        0.0810
     21 C          -5.6402    3.5217   22.9190 C.ar    1  UNL1        0.0194
     22 C          -4.5497    3.1492   21.9588 C.ar    1  UNL1        0.0374
     23 C          -3.2758    3.9404   21.9269 C.ar    1  UNL1        0.1534
     24 N          -3.0923    5.1041   22.8553 N.ar    1  UNL1       -0.1332
     25 N          -4.1828    5.4767   23.8156 N.ar    1  UNL1       -0.1512
@<TRIPOS>BOND
     1    19    20    1
     2    20    21   ar
     3    21    22   ar
     4    22    23   ar
     5    23    15    1
     6    15    16    1
     7    16    17    1
     8    17    14    1
     9    14     1    1
    10     1     2    1
    11     2     3   ar
    12     3     4   ar
    13     4     5   ar
    14     5     8    1
    15     8     9   ar
    16     9    10   ar
    17    10    11   ar
    18    11    12    1
    19    11    13   ar
    20     5     6   ar
    21     6     7   ar
    22    17    18    1
    23    23    24   ar
    24    24    25   ar
    25    25    20   ar
    26    18    15    1
    27     7     2   ar
    28    13     8   ar
@<TRIPOS>MOLECULE
*****
 25 28 0 0 0
SMALL
GASTEIGER

@<TRIPOS>ATOM
      1 O          -0.3750    1.3490   20.4001 O.3     1  UNL1       -0.4753
      2 C           0.9195    0.7298   19.9632 C.ar    1  UNL1        0.1386
      3 C           1.2300   -0.6927   20.3243 C.ar    1  UNL1        0.0370
      4 C           2.5245   -1.3119   19.8874 C.ar    1  UNL1        0.0063
      5 C           3.5085   -0.5086   19.0896 C.ar    1  UNL1        0.0393
      6 C           3.1980    0.9138   18.7286 C.ar    1  UNL1        0.0063
      7 C           1.9035    1.5330   19.1654 C.ar    1  UNL1        0.0370
      8 C           4.8030   -1.1278   18.6527 C.ar    1  UNL1        0.2033
      9 N           5.0941   -1.6981   17.2963 N.ar    1  UNL1       -0.0560
     10 O           6.5048   -2.2082   17.3008 O.2     1  UNL1       -0.3370
     11 C           7.0855   -1.9531   18.6601 C.ar    1  UNL1        0.2371
     12 C           8.4741   -2.3041   19.1057 C.3     1  UNL1        0.0978
     13 N           6.0338   -1.2854   19.4957 N.ar    1  UNL1       -0.1907
     14 C          -0.3666    2.6032   21.2228 C.3     1  UNL1        0.2087
     15 N           0.0219    2.4077   24.8179 N.pl3   1  UNL1       -0.2915
     16 C          -0.8965    3.1449   23.8888 C.3     1  UNL1        0.0976
     17 C          -0.2057    2.5222   22.7120 C.3     1  UNL1        0.0832
     18 C           0.7127    1.7850   23.6410 C.3     1  UNL1        0.0976
     19 C           0.6655    2.0838   30.7745 C.3     1  UNL1        0.0540
     20 C           0.5046    2.1648   29.2853 C.ar    1  UNL1        0.0810
     21 C          -0.4322    1.2293   28.5802 C.ar    1  UNL1        0.0194
     22 C          -0.5931    1.3102   27.0911 C.ar    1  UNL1        0.0374
     23 C           0.1828    2.3267   26.3070 C.ar    1  UNL1        0.1534
     24 N           1.1196    3.2622   27.0122 N.ar    1  UNL1       -0.1332
     25 N           1.2805    3.1813   28.5013 N.ar    1  UNL1       -0.1512
@<TRIPOS>BOND
     1    19    20    1
     2    20    21   ar
     3    21    22   ar
     4    22    23   ar
     5    23    15    1
     6    15    16    1
     7    16    17    1
     8    17    14    1
     9    14     1    1
    10     1     2    1
    11     2     3   ar
    12     3     4   ar
    13     4     5   ar
    14     5     8    1
    15     8     9   ar
    16     9    10   ar
    17    10    11   ar
    18    11    12    1
    19    11    13   ar
    20     5     6   ar
    21     6     7   ar
    22    17    18    1
    23    23    24   ar
    24    24    25   ar
    25    25    20   ar
    26    18    15    1
    27     7     2   ar
    28    13     8   ar
