@<TRIPOS>MOLECULE
*****
 28 31 0 0 0
SMALL
GASTEIGER

@<TRIPOS>ATOM
      1 N          -5.2104  -19.8318   20.5572 N.3     1  UNL1       -0.2659
      2 C          -6.2683  -18.8917   20.0600 C.3     1  UNL1        0.0941
      3 C          -7.5605  -18.7530   20.8090 C.3     1  UNL1        0.1096
      4 N          -7.7948  -19.5543   22.0551 N.pl3   1  UNL1       -0.2890
      5 C          -6.7370  -20.4944   22.5523 C.3     1  UNL1        0.1096
      6 C          -5.4447  -20.6332   21.8033 C.3     1  UNL1        0.0941
      7 C          -9.0871  -19.4155   22.8041 C.ar    1  UNL1        0.1521
      8 C          -9.3201  -20.2143   24.0522 C.ar    1  UNL1        0.0393
      9 C         -10.6123  -20.0755   24.8011 C.ar    1  UNL1        0.0436
     10 C         -11.6714  -19.1379   24.3020 C.ar    1  UNL1        0.1867
     11 N         -13.0346  -18.7938   24.8249 N.ar    1  UNL1       -0.1270
     12 N         -13.6440  -17.7823   23.9000 N.ar    1  UNL1       -0.1228
     13 C         -12.6575  -17.5013   22.8055 C.ar    1  UNL1        0.2583
     14 N         -11.4384  -18.3392   23.0540 N.ar    1  UNL1       -0.1866
     15 N         -10.1462  -18.4780   22.3050 N.ar    1  UNL1       -0.1473
     16 C         -12.8554  -16.5496   21.6631 C.3     1  UNL1        0.4541
     17 F         -13.0533  -15.5977   20.5208 F       1  UNL1       -0.1631
     18 F         -12.9475  -15.4072   22.6308 F       1  UNL1       -0.1631
     19 F         -12.7632  -17.6920   20.6954 F       1  UNL1       -0.1631
     20 C          -3.9182  -19.9706   19.8082 C.3     1  UNL1        0.1015
     21 F          -1.7989  -15.9989   22.4032 F       1  UNL1       -0.2018
     22 C          -1.8076  -16.9205   21.2198 C.ar    1  UNL1        0.1671
     23 C          -0.7654  -16.7780   20.1504 C.ar    1  UNL1        0.0319
     24 C          -0.7741  -17.6996   18.9670 C.ar    1  UNL1        0.0022
     25 C          -1.8251  -18.7638   18.8529 C.ar    1  UNL1       -0.0005
     26 C          -2.8673  -18.9064   19.9223 C.ar    1  UNL1        0.0236
     27 C          -2.8585  -17.9847   21.1057 C.ar    1  UNL1        0.1647
     28 F          -3.9008  -18.1272   22.1750 F       1  UNL1       -0.2021
@<TRIPOS>BOND
     1    21    22    1
     2    22    23   ar
     3    23    24   ar
     4    24    25   ar
     5    25    26   ar
     6    26    20    1
     7    20     1    1
     8     1     2    1
     9     2     3    1
    10     3     4    1
    11     4     7    1
    12     7     8   ar
    13     8     9   ar
    14     9    10   ar
    15    10    11   ar
    16    11    12   ar
    17    12    13   ar
    18    13    16    1
    19    16    17    1
    20    16    18    1
    21    16    19    1
    22    13    14   ar
    23    14    15   ar
    24     4     5    1
    25     5     6    1
    26    26    27   ar
    27    27    28    1
    28    27    22   ar
    29     6     1    1
    30    15     7   ar
    31    14    10   ar
@<TRIPOS>MOLECULE
*****
 28 31 0 0 0
SMALL
GASTEIGER

@<TRIPOS>ATOM
      1 N          -4.3107  -19.6829   21.5980 N.3     1  UNL1       -0.2659
      2 C          -5.2921  -20.5877   20.9135 C.3     1  UNL1        0.0941
      3 C          -6.7642  -20.3289   21.0385 C.3     1  UNL1        0.1096
      4 N          -7.2551  -19.1653   21.8478 N.pl3   1  UNL1       -0.2890
      5 C          -6.2739  -18.2605   22.5321 C.3     1  UNL1        0.1096
      6 C          -4.8016  -18.5193   22.4073 C.3     1  UNL1        0.0941
      7 C          -8.7274  -18.9064   21.9726 C.ar    1  UNL1        0.1521
      8 C          -9.5497  -19.7044   22.9407 C.ar    1  UNL1        0.0393
      9 C         -11.0219  -19.4455   23.0655 C.ar    1  UNL1        0.0436
     10 C         -11.6718  -18.3888   22.2223 C.ar    1  UNL1        0.1867
     11 N         -13.0912  -17.9130   22.1271 N.ar    1  UNL1       -0.1270
     12 N         -13.1460  -16.8210   21.1002 N.ar    1  UNL1       -0.1228
     13 C         -11.7606  -16.6219   20.5608 C.ar    1  UNL1        0.2583
     14 N         -10.8495  -17.5908   21.2543 N.ar    1  UNL1       -0.1866
     15 N          -9.3773  -17.8497   21.1295 N.ar    1  UNL1       -0.1473
     16 C         -11.3571  -15.6283   19.5120 C.3     1  UNL1        0.4541
     17 F         -10.9536  -14.6347   18.4631 F       1  UNL1       -0.1631
     18 F         -12.4228  -16.1589   18.5994 F       1  UNL1       -0.1631
     19 F         -10.2914  -15.0978   20.4246 F       1  UNL1       -0.1631
     20 C          -2.8385  -19.9418   21.4730 C.3     1  UNL1        0.1015
     21 F          -2.2721  -16.9863   17.2370 F       1  UNL1       -0.2018
     22 C          -1.7073  -17.5728   18.4968 C.ar    1  UNL1        0.1671
     23 C          -0.2945  -17.2681   18.8983 C.ar    1  UNL1        0.0319
     24 C           0.2702  -17.8546   20.1580 C.ar    1  UNL1        0.0022
     25 C          -0.5778  -18.7459   21.0163 C.ar    1  UNL1       -0.0005
     26 C          -1.9905  -19.0506   20.6148 C.ar    1  UNL1        0.0236
     27 C          -2.5553  -18.4640   19.3550 C.ar    1  UNL1        0.1647
     28 F          -3.9681  -18.7687   18.9535 F       1  UNL1       -0.2021
@<TRIPOS>BOND
     1    21    22    1
     2    22    23   ar
     3    23    24   ar
     4    24    25   ar
     5    25    26   ar
     6    26    20    1
     7    20     1    1
     8     1     2    1
     9     2     3    1
    10     3     4    1
    11     4     7    1
    12     7     8   ar
    13     8     9   ar
    14     9    10   ar
    15    10    11   ar
    16    11    12   ar
    17    12    13   ar
    18    13    16    1
    19    16    17    1
    20    16    18    1
    21    16    19    1
    22    13    14   ar
    23    14    15   ar
    24     4     5    1
    25     5     6    1
    26    26    27   ar
    27    27    28    1
    28    27    22   ar
    29     6     1    1
    30    15     7   ar
    31    14    10   ar
@<TRIPOS>MOLECULE
*****
 28 31 0 0 0
SMALL
GASTEIGER

@<TRIPOS>ATOM
      1 N           8.2506   -4.6566   26.1750 N.3     1  UNL1       -0.2659
      2 C           9.4268   -4.1011   25.4279 C.3     1  UNL1        0.0941
      3 C           9.2620   -3.6293   24.0136 C.3     1  UNL1        0.1096
      4 N           7.9212   -3.7129   23.3464 N.pl3   1  UNL1       -0.2890
      5 C           6.7451   -4.2684   24.0935 C.3     1  UNL1        0.1096
      6 C           6.9098   -4.7403   25.5078 C.3     1  UNL1        0.0941
      7 C           7.7565   -3.2411   21.9321 C.ar    1  UNL1        0.1521
      8 C           8.8277   -2.4112   21.2888 C.ar    1  UNL1        0.0393
      9 C           8.6630   -1.9394   19.8745 C.ar    1  UNL1        0.0436
     10 C           7.4271   -2.2974   19.1035 C.ar    1  UNL1        0.1867
     11 N           6.9891   -1.9785   17.7047 N.ar    1  UNL1       -0.1270
     12 N           5.6472   -2.6112   17.4836 N.ar    1  UNL1       -0.1228
     13 C           5.2559   -3.3212   18.7457 C.ar    1  UNL1        0.2583
     14 N           6.3559   -3.1273   19.7468 N.ar    1  UNL1       -0.1866
     15 N           6.5207   -3.5991   21.1611 N.ar    1  UNL1       -0.1473
     16 C           3.9873   -4.0901   18.9677 C.3     1  UNL1        0.4541
     17 F           2.7186   -4.8591   19.1896 F       1  UNL1       -0.1631
     18 F           4.6029   -5.2936   18.3176 F       1  UNL1       -0.1631
     19 F           3.3716   -2.8867   19.6178 F       1  UNL1       -0.1631
     20 C           8.4153   -5.1285   27.5893 C.3     1  UNL1        0.1015
     21 F           6.4635   -4.8740   32.3982 F       1  UNL1       -0.2018
     22 C           6.8713   -4.1954   31.1242 C.ar    1  UNL1        0.1671
     23 C           6.7111   -2.7109   30.9806 C.ar    1  UNL1        0.0319
     24 C           7.1190   -2.0323   29.7066 C.ar    1  UNL1        0.0022
     25 C           7.6871   -2.8381   28.5761 C.ar    1  UNL1       -0.0005
     26 C           7.8473   -4.3226   28.7197 C.ar    1  UNL1        0.0236
     27 C           7.4394   -5.0012   29.9938 C.ar    1  UNL1        0.1647
     28 F           7.5996   -6.4857   30.1373 F       1  UNL1       -0.2021
@<TRIPOS>BOND
     1    21    22    1
     2    22    23   ar
     3    23    24   ar
     4    24    25   ar
     5    25    26   ar
     6    26    20    1
     7    20     1    1
     8     1     2    1
     9     2     3    1
    10     3     4    1
    11     4     7    1
    12     7     8   ar
    13     8     9   ar
    14     9    10   ar
    15    10    11   ar
    16    11    12   ar
    17    12    13   ar
    18    13    16    1
    19    16    17    1
    20    16    18    1
    21    16    19    1
    22    13    14   ar
    23    14    15   ar
    24     4     5    1
    25     5     6    1
    26    26    27   ar
    27    27    28    1
    28    27    22   ar
    29     6     1    1
    30    15     7   ar
    31    14    10   ar
@<TRIPOS>MOLECULE
*****
 28 31 0 0 0
SMALL
GASTEIGER

@<TRIPOS>ATOM
      1 N         -13.6638   -6.5068   18.3701 N.3     1  UNL1       -0.2659
      2 C         -12.9943   -5.7312   19.4657 C.3     1  UNL1        0.0941
      3 C         -12.6428   -4.2881   19.2562 C.3     1  UNL1        0.1096
      4 N         -12.9607   -3.6206   17.9511 N.pl3   1  UNL1       -0.2890
      5 C         -13.6302   -4.3961   16.8555 C.3     1  UNL1        0.1096
      6 C         -13.9817   -5.8393   17.0650 C.3     1  UNL1        0.0941
      7 C         -12.6092   -2.1775   17.7416 C.ar    1  UNL1        0.1521
      8 C         -11.2173   -1.7963   17.3327 C.ar    1  UNL1        0.0393
      9 C         -10.8658   -0.3532   17.1232 C.ar    1  UNL1        0.0436
     10 C         -11.9063    0.7087   17.3227 C.ar    1  UNL1        0.1867
     11 N         -11.8544    2.2021   17.1908 N.ar    1  UNL1       -0.1270
     12 N         -13.2143    2.7438   17.5182 N.ar    1  UNL1       -0.1228
     13 C         -14.1066    1.5853   17.8525 C.ar    1  UNL1        0.2583
     14 N         -13.2982    0.3276   17.7316 N.ar    1  UNL1       -0.1866
     15 N         -13.6497   -1.1155   17.9411 N.ar    1  UNL1       -0.1473
     16 C         -15.5533    1.6697   18.2396 C.3     1  UNL1        0.4541
     17 F         -17.0001    1.7541   18.6267 F       1  UNL1       -0.1631
     18 F         -15.9495    1.3693   16.8244 F       1  UNL1       -0.1631
     19 F         -15.1570    1.9701   19.6548 F       1  UNL1       -0.1631
     20 C         -14.0153   -7.9499   18.5796 C.3     1  UNL1        0.1015
     21 F         -17.8677  -11.4326   18.4084 F       1  UNL1       -0.2018
     22 C         -17.3555  -10.0808   18.8084 C.ar    1  UNL1        0.1671
     23 C         -18.2573   -9.1183   19.5229 C.ar    1  UNL1        0.0319
     24 C         -17.7451   -7.7665   19.9230 C.ar    1  UNL1        0.0022
     25 C         -16.3311   -7.3770   19.6085 C.ar    1  UNL1       -0.0005
     26 C         -15.4293   -8.3394   18.8941 C.ar    1  UNL1        0.0236
     27 C         -15.9415   -9.6913   18.4940 C.ar    1  UNL1        0.1647
     28 F         -15.0397  -10.6537   17.7795 F       1  UNL1       -0.2021
@<TRIPOS>BOND
     1    21    22    1
     2    22    23   ar
     3    23    24   ar
     4    24    25   ar
     5    25    26   ar
     6    26    20    1
     7    20     1    1
     8     1     2    1
     9     2     3    1
    10     3     4    1
    11     4     7    1
    12     7     8   ar
    13     8     9   ar
    14     9    10   ar
    15    10    11   ar
    16    11    12   ar
    17    12    13   ar
    18    13    16    1
    19    16    17    1
    20    16    18    1
    21    16    19    1
    22    13    14   ar
    23    14    15   ar
    24     4     5    1
    25     5     6    1
    26    26    27   ar
    27    27    28    1
    28    27    22   ar
    29     6     1    1
    30    15     7   ar
    31    14    10   ar
@<TRIPOS>MOLECULE
*****
 28 31 0 0 0
SMALL
GASTEIGER

@<TRIPOS>ATOM
      1 N           1.7150    0.6029   30.7393 N.3     1  UNL1       -0.2659
      2 C           1.1233    1.7681   31.4757 C.3     1  UNL1        0.0941
      3 C           1.6930    2.1870   32.7985 C.3     1  UNL1        0.1096
      4 N           2.8545    1.4407   33.3851 N.pl3   1  UNL1       -0.2890
      5 C           3.4462    0.2755   32.6488 C.3     1  UNL1        0.1096
      6 C           2.8765   -0.1434   31.3259 C.3     1  UNL1        0.0941
      7 C           3.4242    1.8597   34.7080 C.ar    1  UNL1        0.1521
      8 C           4.8934    2.1314   34.8396 C.ar    1  UNL1        0.0393
      9 C           5.4631    2.5504   36.1624 C.ar    1  UNL1        0.0436
     10 C           4.5634    2.6975   37.3537 C.ar    1  UNL1        0.1867
     11 N           4.8363    3.0923   38.7749 N.ar    1  UNL1       -0.1270
     12 N           3.5357    3.0645   39.5215 N.ar    1  UNL1       -0.1228
     13 C           2.4590    2.6526   38.5618 C.ar    1  UNL1        0.2583
     14 N           3.0942    2.4257   37.2220 N.ar    1  UNL1       -0.1866
     15 N           2.5245    2.0068   35.8992 N.ar    1  UNL1       -0.1473
     16 C           1.0028    2.4951   38.8852 C.3     1  UNL1        0.4541
     17 F          -0.4535    2.3375   39.2085 F       1  UNL1       -0.1631
     18 F           1.3273    1.3384   39.7834 F       1  UNL1       -0.1631
     19 F           0.6782    3.6517   37.9869 F       1  UNL1       -0.1631
     20 C           1.1453    0.1840   29.4165 C.3     1  UNL1        0.1015
     21 F          -2.4250    2.8052   26.6996 F       1  UNL1       -0.2018
     22 C          -0.9880    2.5297   27.0298 C.ar    1  UNL1        0.1671
     23 C           0.1009    3.2894   26.3318 C.ar    1  UNL1        0.0319
     24 C           1.5379    3.0139   26.6620 C.ar    1  UNL1        0.0022
     25 C           1.8861    1.9787   27.6902 C.ar    1  UNL1       -0.0005
     26 C           0.7972    1.2191   28.3883 C.ar    1  UNL1        0.0236
     27 C          -0.6399    1.4946   28.0580 C.ar    1  UNL1        0.1647
     28 F          -1.7288    0.7349   28.7561 F       1  UNL1       -0.2021
@<TRIPOS>BOND
     1    21    22    1
     2    22    23   ar
     3    23    24   ar
     4    24    25   ar
     5    25    26   ar
     6    26    20    1
     7    20     1    1
     8     1     2    1
     9     2     3    1
    10     3     4    1
    11     4     7    1
    12     7     8   ar
    13     8     9   ar
    14     9    10   ar
    15    10    11   ar
    16    11    12   ar
    17    12    13   ar
    18    13    16    1
    19    16    17    1
    20    16    18    1
    21    16    19    1
    22    13    14   ar
    23    14    15   ar
    24     4     5    1
    25     5     6    1
    26    26    27   ar
    27    27    28    1
    28    27    22   ar
    29     6     1    1
    30    15     7   ar
    31    14    10   ar
@<TRIPOS>MOLECULE
*****
 28 31 0 0 0
SMALL
GASTEIGER

@<TRIPOS>ATOM
      1 N         -12.0517   -3.0015   18.7378 N.3     1  UNL1       -0.2659
      2 C         -12.9072   -3.6419   19.7905 C.3     1  UNL1        0.0941
      3 C         -14.2570   -3.0708   20.1097 C.3     1  UNL1        0.1096
      4 N         -14.7513   -1.8593   19.3763 N.pl3   1  UNL1       -0.2890
      5 C         -13.8959   -1.2189   18.3237 C.3     1  UNL1        0.1096
      6 C         -12.5460   -1.7900   18.0044 C.3     1  UNL1        0.0941
      7 C         -16.1011   -1.2882   19.6956 C.ar    1  UNL1        0.1521
      8 C         -17.3405   -1.9642   19.1888 C.ar    1  UNL1        0.0393
      9 C         -18.6902   -1.3931   19.5080 C.ar    1  UNL1        0.0436
     10 C         -18.8006   -0.1459   20.3341 C.ar    1  UNL1        0.1867
     11 N         -19.9855    0.6436   20.8064 N.ar    1  UNL1       -0.1270
     12 N         -19.4783    1.8076   21.6050 N.ar    1  UNL1       -0.1228
     13 C         -17.9801    1.7374   21.6264 C.ar    1  UNL1        0.2583
     14 N         -17.5613    0.5301   20.8409 N.ar    1  UNL1       -0.1866
     15 N         -16.2115   -0.0410   20.5216 N.ar    1  UNL1       -0.1473
     16 C         -17.0618    2.7048   22.3127 C.3     1  UNL1        0.4541
     17 F         -16.1435    3.6722   22.9991 F       1  UNL1       -0.1631
     18 F         -17.2373    1.9572   23.6012 F       1  UNL1       -0.1631
     19 F         -16.8864    3.4524   21.0242 F       1  UNL1       -0.1631
     20 C         -10.7020   -3.5726   18.4186 C.3     1  UNL1        0.1015
     21 F         -11.8944   -8.0075   15.9878 F       1  UNL1       -0.2018
     22 C         -11.1288   -7.2723   17.0476 C.ar    1  UNL1        0.1671
     23 C         -10.1937   -8.0194   17.9518 C.ar    1  UNL1        0.0319
     24 C          -9.4280   -7.2842   19.0115 C.ar    1  UNL1        0.0022
     25 C          -9.5974   -5.8019   19.1672 C.ar    1  UNL1       -0.0005
     26 C         -10.5325   -5.0548   18.2630 C.ar    1  UNL1        0.0236
     27 C         -11.2982   -5.7901   17.2032 C.ar    1  UNL1        0.1647
     28 F         -12.2333   -5.0431   16.2990 F       1  UNL1       -0.2021
@<TRIPOS>BOND
     1    21    22    1
     2    22    23   ar
     3    23    24   ar
     4    24    25   ar
     5    25    26   ar
     6    26    20    1
     7    20     1    1
     8     1     2    1
     9     2     3    1
    10     3     4    1
    11     4     7    1
    12     7     8   ar
    13     8     9   ar
    14     9    10   ar
    15    10    11   ar
    16    11    12   ar
    17    12    13   ar
    18    13    16    1
    19    16    17    1
    20    16    18    1
    21    16    19    1
    22    13    14   ar
    23    14    15   ar
    24     4     5    1
    25     5     6    1
    26    26    27   ar
    27    27    28    1
    28    27    22   ar
    29     6     1    1
    30    15     7   ar
    31    14    10   ar
@<TRIPOS>MOLECULE
*****
 28 31 0 0 0
SMALL
GASTEIGER

@<TRIPOS>ATOM
      1 N           0.1177    3.0612   21.2929 N.3     1  UNL1       -0.2659
      2 C           0.4227    1.8453   22.1168 C.3     1  UNL1        0.0941
      3 C           1.3476    0.7913   21.5843 C.3     1  UNL1        0.1096
      4 N           1.9675    0.9531   20.2280 N.pl3   1  UNL1       -0.2890
      5 C           1.6625    2.1689   19.4042 C.3     1  UNL1        0.1096
      6 C           0.7376    3.2230   19.9366 C.3     1  UNL1        0.0941
      7 C           2.8924   -0.1011   19.6955 C.ar    1  UNL1        0.1521
      8 C           2.5985   -1.5510   19.9427 C.ar    1  UNL1        0.0393
      9 C           3.5234   -2.6051   19.4103 C.ar    1  UNL1        0.0436
     10 C           4.7422   -2.2091   18.6307 C.ar    1  UNL1        0.1867
     11 N           5.8285   -3.0186   17.9866 N.ar    1  UNL1       -0.1270
     12 N           6.7937   -2.0689   17.3414 N.ar    1  UNL1       -0.1228
     13 C           6.3040   -0.6724   17.5867 C.ar    1  UNL1        0.2583
     14 N           5.0361   -0.7591   18.3835 N.ar    1  UNL1       -0.1866
     15 N           4.1112    0.2949   18.9160 N.ar    1  UNL1       -0.1473
     16 C           6.9659    0.5892   17.1176 C.3     1  UNL1        0.4541
     17 F           7.6280    1.8509   16.6485 F       1  UNL1       -0.1631
     18 F           8.0364    0.4127   18.1534 F       1  UNL1       -0.1631
     19 F           5.8955    0.7657   16.0817 F       1  UNL1       -0.1631
     20 C          -0.8072    4.1152   21.8254 C.3     1  UNL1        0.1015
     21 F          -5.5156    2.8794   20.0080 F       1  UNL1       -0.2018
     22 C          -4.6051    3.1733   21.1632 C.ar    1  UNL1        0.1671
     23 C          -5.1382    3.1431   22.5649 C.ar    1  UNL1        0.0319
     24 C          -4.2277    3.4369   23.7201 C.ar    1  UNL1        0.0022
     25 C          -2.7840    3.7610   23.4736 C.ar    1  UNL1       -0.0005
     26 C          -2.2509    3.7912   22.0719 C.ar    1  UNL1        0.0236
     27 C          -3.1615    3.4973   20.9166 C.ar    1  UNL1        0.1647
     28 F          -2.6283    3.5275   19.5149 F       1  UNL1       -0.2021
@<TRIPOS>BOND
     1    21    22    1
     2    22    23   ar
     3    23    24   ar
     4    24    25   ar
     5    25    26   ar
     6    26    20    1
     7    20     1    1
     8     1     2    1
     9     2     3    1
    10     3     4    1
    11     4     7    1
    12     7     8   ar
    13     8     9   ar
    14     9    10   ar
    15    10    11   ar
    16    11    12   ar
    17    12    13   ar
    18    13    16    1
    19    16    17    1
    20    16    18    1
    21    16    19    1
    22    13    14   ar
    23    14    15   ar
    24     4     5    1
    25     5     6    1
    26    26    27   ar
    27    27    28    1
    28    27    22   ar
    29     6     1    1
    30    15     7   ar
    31    14    10   ar
@<TRIPOS>MOLECULE
*****
 28 31 0 0 0
SMALL
GASTEIGER

@<TRIPOS>ATOM
      1 N           0.4264    3.0169   22.5252 N.3     1  UNL1       -0.2659
      2 C           1.2442    3.7912   21.5343 C.3     1  UNL1        0.0941
      3 C           2.2157    3.0766   20.6424 C.3     1  UNL1        0.1096
      4 N           2.3695    1.5878   20.7414 N.pl3   1  UNL1       -0.2890
      5 C           1.5517    0.8136   21.7322 C.3     1  UNL1        0.1096
      6 C           0.5802    1.5281   22.6242 C.3     1  UNL1        0.0941
      7 C           3.3410    0.8732   19.8494 C.ar    1  UNL1        0.1521
      8 C           4.1552    1.6468   18.8551 C.ar    1  UNL1        0.0393
      9 C           5.1267    0.9323   17.9632 C.ar    1  UNL1        0.0436
     10 C           5.2840   -0.5560   18.0656 C.ar    1  UNL1        0.1867
     11 N           6.1555   -1.5264   17.3248 N.ar    1  UNL1       -0.1270
     12 N           5.8799   -2.8998   17.8612 N.ar    1  UNL1       -0.1228
     13 C           4.8381   -2.7782   18.9336 C.ar    1  UNL1        0.2583
     14 N           4.4699   -1.3296   19.0599 N.ar    1  UNL1       -0.1866
     15 N           3.4984   -0.6150   19.9518 N.ar    1  UNL1       -0.1473
     16 C           4.2652   -3.9069   19.7383 C.3     1  UNL1        0.4541
     17 F           3.6922   -5.0357   20.5431 F       1  UNL1       -0.1631
     18 F           3.3968   -4.2934   18.5780 F       1  UNL1       -0.1631
     19 F           5.1336   -3.5204   20.8987 F       1  UNL1       -0.1631
     20 C          -0.5451    3.7315   23.4171 C.3     1  UNL1        0.1015
     21 F          -5.3715    3.3411   25.3019 F       1  UNL1       -0.2018
     22 C          -4.4336    3.3885   24.1323 C.ar    1  UNL1        0.1671
     23 C          -4.9710    3.2880   22.7355 C.ar    1  UNL1        0.0319
     24 C          -4.0331    3.3354   21.5659 C.ar    1  UNL1        0.0022
     25 C          -2.5577    3.4832   21.7931 C.ar    1  UNL1       -0.0005
     26 C          -2.0204    3.5837   23.1899 C.ar    1  UNL1        0.0236
     27 C          -2.9584    3.5363   24.3595 C.ar    1  UNL1        0.1647
     28 F          -2.4210    3.6368   25.7564 F       1  UNL1       -0.2021
@<TRIPOS>BOND
     1    21    22    1
     2    22    23   ar
     3    23    24   ar
     4    24    25   ar
     5    25    26   ar
     6    26    20    1
     7    20     1    1
     8     1     2    1
     9     2     3    1
    10     3     4    1
    11     4     7    1
    12     7     8   ar
    13     8     9   ar
    14     9    10   ar
    15    10    11   ar
    16    11    12   ar
    17    12    13   ar
    18    13    16    1
    19    16    17    1
    20    16    18    1
    21    16    19    1
    22    13    14   ar
    23    14    15   ar
    24     4     5    1
    25     5     6    1
    26    26    27   ar
    27    27    28    1
    28    27    22   ar
    29     6     1    1
    30    15     7   ar
    31    14    10   ar
@<TRIPOS>MOLECULE
*****
 28 31 0 0 0
SMALL
GASTEIGER

@<TRIPOS>ATOM
      1 N           2.0188    0.2968   30.8328 N.3     1  UNL1       -0.2659
      2 C           3.1307   -0.4482   31.5102 C.3     1  UNL1        0.0941
      3 C           3.6551    0.0270   32.8328 C.3     1  UNL1        0.1096
      4 N           3.0677    1.2472   33.4779 N.pl3   1  UNL1       -0.2890
      5 C           1.9559    1.9921   32.8006 C.3     1  UNL1        0.1096
      6 C           1.4314    1.5169   31.4780 C.3     1  UNL1        0.0941
      7 C           3.5922    1.7223   34.8005 C.ar    1  UNL1        0.1521
      8 C           5.0533    2.0188   34.9652 C.ar    1  UNL1        0.0393
      9 C           5.5777    2.4939   36.2878 C.ar    1  UNL1        0.0436
     10 C           4.6410    2.6726   37.4456 C.ar    1  UNL1        0.1867
     11 N           4.8662    3.1233   38.8586 N.ar    1  UNL1       -0.1270
     12 N           3.5442    3.1054   39.5670 N.ar    1  UNL1       -0.1228
     13 C           2.5020    2.6436   38.5920 C.ar    1  UNL1        0.2583
     14 N           3.1799    2.3762   37.2809 N.ar    1  UNL1       -0.1866
     15 N           2.6555    1.9010   35.9584 N.ar    1  UNL1       -0.1473
     16 C           1.0388    2.4783   38.8779 C.3     1  UNL1        0.4541
     17 F          -0.4245    2.3131   39.1637 F       1  UNL1       -0.1631
     18 F           0.7280    3.6059   37.9388 F       1  UNL1       -0.1631
     19 F           1.3497    1.3507   39.8170 F       1  UNL1       -0.1631
     20 C           1.4944   -0.1784   29.5103 C.3     1  UNL1        0.1015
     21 F           2.3548    3.6610   26.1164 F       1  UNL1       -0.2018
     22 C           1.4059    2.7311   26.8127 C.ar    1  UNL1        0.1671
     23 C          -0.0617    2.7911   26.5086 C.ar    1  UNL1        0.0319
     24 C          -1.0106    1.8613   27.2050 C.ar    1  UNL1        0.0022
     25 C          -0.4919    0.8714   28.2056 C.ar    1  UNL1       -0.0005
     26 C           0.9757    0.8114   28.5097 C.ar    1  UNL1        0.0236
     27 C           1.9246    1.7413   27.8133 C.ar    1  UNL1        0.1647
     28 F           3.3922    1.6813   28.1174 F       1  UNL1       -0.2021
@<TRIPOS>BOND
     1    21    22    1
     2    22    23   ar
     3    23    24   ar
     4    24    25   ar
     5    25    26   ar
     6    26    20    1
     7    20     1    1
     8     1     2    1
     9     2     3    1
    10     3     4    1
    11     4     7    1
    12     7     8   ar
    13     8     9   ar
    14     9    10   ar
    15    10    11   ar
    16    11    12   ar
    17    12    13   ar
    18    13    16    1
    19    16    17    1
    20    16    18    1
    21    16    19    1
    22    13    14   ar
    23    14    15   ar
    24     4     5    1
    25     5     6    1
    26    26    27   ar
    27    27    28    1
    28    27    22   ar
    29     6     1    1
    30    15     7   ar
    31    14    10   ar
