@<TRIPOS>MOLECULE
*****
 24 26 0 0 0
SMALL
GASTEIGER

@<TRIPOS>ATOM
      1 C          -5.9957  -15.5919   24.0929 C.ar    1  UNL1        0.0801
      2 C          -5.9267  -15.3614   25.5735 C.ar    1  UNL1        0.0241
      3 C          -7.1613  -15.5041   26.4131 C.ar    1  UNL1        0.0360
      4 BR         -7.0923  -15.2735   27.8937 Br      1  UNL1       -0.0490
      5 C          -8.4653  -15.8772   25.7722 C.ar    1  UNL1        0.0099
      6 C          -8.5343  -16.1077   24.2916 C.ar    1  UNL1        0.0394
      7 C          -9.6697  -16.4833   23.3862 C.ar    1  UNL1        0.0418
      8 C          -9.1367  -16.5728   21.9870 C.ar    1  UNL1        0.1593
      9 O          -7.6718  -16.2525   22.0276 O.2     1  UNL1       -0.4511
     10 C          -7.2995  -15.9651   23.4520 C.ar    1  UNL1        0.1583
     11 C          -9.9293  -16.9213   20.7622 C.2     1  UNL1        0.1076
     12 O          -9.7812  -18.2749   20.1330 O.co2   1  UNL1       -0.5415
     13 O         -10.8701  -15.9163   20.1665 O.co2   1  UNL1       -0.5415
     14 N          -4.7609  -15.4493   23.2533 N.pl3   1  UNL1       -0.3317
     15 H          -4.4323  -14.5539   23.0092 H       1  UNL1        0.1469
     16 N          -1.8245  -20.3356   21.3820 N.3     1  UNL1       -0.3222
     17 C          -2.5586  -19.1140   21.8498 C.3     1  UNL1        0.0509
     18 C          -1.9311  -17.7596   21.7026 C.3     1  UNL1        0.0172
     19 C          -2.6652  -16.5379   22.1704 C.3     1  UNL1        0.0208
     20 C          -4.0268  -16.6708   22.7854 C.3     1  UNL1        0.0692
     21 C          -4.6544  -18.0253   22.9327 C.3     1  UNL1        0.0208
     22 C          -3.9203  -19.2469   22.4648 C.3     1  UNL1        0.0172
     23 H          -0.9218  -20.0620   20.9938 H       1  UNL1        0.1188
     24 H          -2.3739  -20.8085   20.6644 H       1  UNL1        0.1188
@<TRIPOS>UNITY_ATOM_ATTR
12 1
charge -1
@<TRIPOS>BOND
     1    17    16    1
     2    17    18    1
     3    18    19    1
     4    19    20    1
     5    20    14    1
     6    14     1    1
     7     1     2   ar
     8     2     3   ar
     9     3     4    1
    10     3     5   ar
    11     5     6   ar
    12     6     7   ar
    13     7     8   ar
    14     8    11    1
    15    11    12   ar
    16    11    13   ar
    17     8     9   ar
    18     9    10   ar
    19    20    21    1
    20    21    22    1
    21    22    17    1
    22    10     1   ar
    23    10     6   ar
    24    16    23    1
    25    16    24    1
    26    14    15    1
@<TRIPOS>MOLECULE
*****
 24 26 0 0 0
SMALL
GASTEIGER

@<TRIPOS>ATOM
      1 C          -7.4886  -17.2211   22.8471 C.ar    1  UNL1        0.0801
      2 C          -7.7037  -16.2852   23.9994 C.ar    1  UNL1        0.0241
      3 C          -6.5414  -15.8579   24.8456 C.ar    1  UNL1        0.0360
      4 BR         -6.7565  -14.9219   25.9980 Br      1  UNL1       -0.0490
      5 C          -5.1637  -16.3664   24.5396 C.ar    1  UNL1        0.0099
      6 C          -4.9486  -17.3024   23.3874 C.ar    1  UNL1        0.0394
      7 C          -3.7148  -17.9634   22.8481 C.ar    1  UNL1        0.0418
      8 C          -4.1147  -18.7994   21.6686 C.ar    1  UNL1        0.1593
      9 O          -5.5957  -18.6549   21.4789 O.2     1  UNL1       -0.4511
     10 C          -6.1110  -17.7297   22.5411 C.ar    1  UNL1        0.1583
     11 C          -3.1952  -19.6334   20.8267 C.2     1  UNL1        0.1076
     12 O          -1.9939  -20.2836   21.4465 O.co2   1  UNL1       -0.5415
     13 O          -3.4769  -19.8172   19.3649 O.co2   1  UNL1       -0.5415
     14 N          -8.6510  -17.6485   22.0009 N.pl3   1  UNL1       -0.3317
     15 H          -8.5155  -17.8596   21.0489 H       1  UNL1        0.1469
     16 N         -14.1264  -18.0713   24.4179 N.3     1  UNL1       -0.3222
     17 C         -12.7575  -17.9655   23.8136 C.3     1  UNL1        0.0509
     18 C         -12.4941  -16.9705   22.7226 C.3     1  UNL1        0.0172
     19 C         -11.1253  -16.8648   22.1183 C.3     1  UNL1        0.0208
     20 C         -10.0199  -17.7542   22.6051 C.3     1  UNL1        0.0692
     21 C         -10.2832  -18.7493   23.6962 C.3     1  UNL1        0.0208
     22 C         -11.6520  -18.8550   24.3005 C.3     1  UNL1        0.0172
     23 H         -14.7484  -17.3977   23.9708 H       1  UNL1        0.1188
     24 H         -14.0731  -17.8737   25.4172 H       1  UNL1        0.1188
@<TRIPOS>UNITY_ATOM_ATTR
12 1
charge -1
@<TRIPOS>BOND
     1    17    16    1
     2    17    18    1
     3    18    19    1
     4    19    20    1
     5    20    14    1
     6    14     1    1
     7     1     2   ar
     8     2     3   ar
     9     3     4    1
    10     3     5   ar
    11     5     6   ar
    12     6     7   ar
    13     7     8   ar
    14     8    11    1
    15    11    12   ar
    16    11    13   ar
    17     8     9   ar
    18     9    10   ar
    19    20    21    1
    20    21    22    1
    21    22    17    1
    22    10     1   ar
    23    10     6   ar
    24    16    23    1
    25    16    24    1
    26    14    15    1
@<TRIPOS>MOLECULE
*****
 24 26 0 0 0
SMALL
GASTEIGER

@<TRIPOS>ATOM
      1 C          -6.7185  -19.3294   21.2173 C.ar    1  UNL1        0.0801
      2 C          -7.8192  -19.8002   20.3135 C.ar    1  UNL1        0.0241
      3 C          -9.1495  -19.1075   20.3281 C.ar    1  UNL1        0.0360
      4 BR        -10.2502  -19.5783   19.4242 Br      1  UNL1       -0.0490
      5 C          -9.3792  -17.9439   21.2464 C.ar    1  UNL1        0.0099
      6 C          -8.2785  -17.4731   22.1502 C.ar    1  UNL1        0.0394
      7 C          -8.2114  -16.3616   23.1552 C.ar    1  UNL1        0.0418
      8 C          -6.8396  -16.3674   23.7618 C.ar    1  UNL1        0.1593
      9 O          -6.0588  -17.4825   23.1317 O.2     1  UNL1       -0.4511
     10 C          -6.9482  -18.1659   22.1356 C.ar    1  UNL1        0.1583
     11 C          -6.3367  -15.4238   24.8138 C.2     1  UNL1        0.1076
     12 O          -7.0956  -15.2576   26.0968 O.co2   1  UNL1       -0.5415
     13 O          -5.0748  -14.6465   24.5827 O.co2   1  UNL1       -0.5415
     14 N          -5.3881  -20.0222   21.2027 N.pl3   1  UNL1       -0.3317
     15 H          -5.3305  -20.9819   21.4150 H       1  UNL1        0.1469
     16 N          -0.4178  -16.9450   19.8511 N.3     1  UNL1       -0.3222
     17 C          -1.6604  -17.7143   20.1891 C.3     1  UNL1        0.0509
     18 C          -1.9030  -18.1657   21.5987 C.3     1  UNL1        0.0172
     19 C          -3.1456  -18.9350   21.9367 C.3     1  UNL1        0.0208
     20 C          -4.1456  -19.2529   20.8648 C.3     1  UNL1        0.0692
     21 C          -3.9031  -18.8016   19.4550 C.3     1  UNL1        0.0208
     22 C          -2.6605  -18.0323   19.1171 C.3     1  UNL1        0.0172
     23 H           0.1442  -16.8200   20.6930 H       1  UNL1        0.1188
     24 H          -0.6747  -16.0323   19.4751 H       1  UNL1        0.1188
@<TRIPOS>UNITY_ATOM_ATTR
12 1
charge -1
@<TRIPOS>BOND
     1    17    16    1
     2    17    18    1
     3    18    19    1
     4    19    20    1
     5    20    14    1
     6    14     1    1
     7     1     2   ar
     8     2     3   ar
     9     3     4    1
    10     3     5   ar
    11     5     6   ar
    12     6     7   ar
    13     7     8   ar
    14     8    11    1
    15    11    12   ar
    16    11    13   ar
    17     8     9   ar
    18     9    10   ar
    19    20    21    1
    20    21    22    1
    21    22    17    1
    22    10     1   ar
    23    10     6   ar
    24    16    23    1
    25    16    24    1
    26    14    15    1
@<TRIPOS>MOLECULE
*****
 24 26 0 0 0
SMALL
GASTEIGER

@<TRIPOS>ATOM
      1 C          -8.9368  -18.2350   21.4779 C.ar    1  UNL1        0.0801
      2 C         -10.4144  -18.4670   21.5908 C.ar    1  UNL1        0.0241
      3 C         -11.2142  -17.7224   22.6182 C.ar    1  UNL1        0.0360
      4 BR        -12.6919  -17.9545   22.7311 Br      1  UNL1       -0.0490
      5 C         -10.5365  -16.7455   23.5328 C.ar    1  UNL1        0.0099
      6 C          -9.0588  -16.5134   23.4198 C.ar    1  UNL1        0.0394
      7 C          -8.1225  -15.6194   24.1775 C.ar    1  UNL1        0.0418
      8 C          -6.7440  -15.8117   23.6183 C.ar    1  UNL1        0.1593
      9 O          -6.8283  -16.8244   22.5151 O.2     1  UNL1       -0.4511
     10 C          -8.2590  -17.2581   22.3924 C.ar    1  UNL1        0.1583
     11 C          -5.4995  -15.1137   24.0811 C.2     1  UNL1        0.1076
     12 O          -4.4419  -14.7298   23.0892 O.co2   1  UNL1       -0.5415
     13 O          -5.3127  -14.7996   25.5359 O.co2   1  UNL1       -0.5415
     14 N          -8.1370  -18.9797   20.4504 N.pl3   1  UNL1       -0.3317
     15 H          -8.5670  -19.2872   19.6199 H       1  UNL1        0.1469
     16 N          -2.3169  -20.0849   21.4021 N.3     1  UNL1       -0.3222
     17 C          -3.7720  -19.8086   21.1642 C.3     1  UNL1        0.0509
     18 C          -4.7887  -20.2044   22.1936 C.3     1  UNL1        0.0172
     19 C          -6.2437  -19.9281   21.9557 C.3     1  UNL1        0.0208
     20 C          -6.6820  -19.2560   20.6883 C.3     1  UNL1        0.0692
     21 C          -5.6653  -18.8601   19.6589 C.3     1  UNL1        0.0208
     22 C          -4.2103  -19.1364   19.8968 C.3     1  UNL1        0.0172
     23 H          -2.2012  -20.5428   22.3062 H       1  UNL1        0.1188
     24 H          -1.7988  -19.2063   21.3972 H       1  UNL1        0.1188
@<TRIPOS>UNITY_ATOM_ATTR
12 1
charge -1
@<TRIPOS>BOND
     1    17    16    1
     2    17    18    1
     3    18    19    1
     4    19    20    1
     5    20    14    1
     6    14     1    1
     7     1     2   ar
     8     2     3   ar
     9     3     4    1
    10     3     5   ar
    11     5     6   ar
    12     6     7   ar
    13     7     8   ar
    14     8    11    1
    15    11    12   ar
    16    11    13   ar
    17     8     9   ar
    18     9    10   ar
    19    20    21    1
    20    21    22    1
    21    22    17    1
    22    10     1   ar
    23    10     6   ar
    24    16    23    1
    25    16    24    1
    26    14    15    1
@<TRIPOS>MOLECULE
*****
 24 26 0 0 0
SMALL
GASTEIGER

@<TRIPOS>ATOM
      1 C          -7.2905  -17.6846   22.9750 C.ar    1  UNL1        0.0801
      2 C          -7.6437  -16.6928   24.0434 C.ar    1  UNL1        0.0241
      3 C          -6.5613  -15.9180   24.7348 C.ar    1  UNL1        0.0360
      4 BR         -6.9145  -14.9261   25.8033 Br      1  UNL1       -0.0490
      5 C          -5.1257  -16.1350   24.3578 C.ar    1  UNL1        0.0099
      6 C          -4.7726  -17.1268   23.2894 C.ar    1  UNL1        0.0394
      7 C          -3.4560  -17.5511   22.7094 C.ar    1  UNL1        0.0418
      8 C          -3.7247  -18.5882   21.6595 C.ar    1  UNL1        0.1593
      9 O          -5.2074  -18.8049   21.5907 O.2     1  UNL1       -0.4511
     10 C          -5.8550  -17.9017   22.5980 C.ar    1  UNL1        0.1583
     11 C          -2.6920  -19.2862   20.8250 C.2     1  UNL1        0.1076
     12 O          -2.5864  -18.9886   19.3586 O.co2   1  UNL1       -0.5415
     13 O          -1.7649  -20.2818   21.4568 O.co2   1  UNL1       -0.5415
     14 N          -8.3730  -18.4595   22.2836 N.pl3   1  UNL1       -0.3317
     15 H          -8.4016  -19.4406   22.3600 H       1  UNL1        0.1469
     16 N         -12.5281  -15.5794   19.0524 N.3     1  UNL1       -0.3222
     17 C         -11.4893  -16.2995   19.8602 C.3     1  UNL1        0.0509
     18 C         -11.2586  -17.7664   19.6487 C.3     1  UNL1        0.0172
     19 C         -10.2198  -18.4865   20.4566 C.3     1  UNL1        0.0208
     20 C          -9.4117  -17.7395   21.4758 C.3     1  UNL1        0.0692
     21 C          -9.6423  -16.2724   21.6874 C.3     1  UNL1        0.0208
     22 C         -10.6811  -15.5524   20.8795 C.3     1  UNL1        0.0172
     23 H         -12.9773  -16.2357   18.4137 H       1  UNL1        0.1188
     24 H         -12.0850  -14.8329   18.5167 H       1  UNL1        0.1188
@<TRIPOS>UNITY_ATOM_ATTR
12 1
charge -1
@<TRIPOS>BOND
     1    17    16    1
     2    17    18    1
     3    18    19    1
     4    19    20    1
     5    20    14    1
     6    14     1    1
     7     1     2   ar
     8     2     3   ar
     9     3     4    1
    10     3     5   ar
    11     5     6   ar
    12     6     7   ar
    13     7     8   ar
    14     8    11    1
    15    11    12   ar
    16    11    13   ar
    17     8     9   ar
    18     9    10   ar
    19    20    21    1
    20    21    22    1
    21    22    17    1
    22    10     1   ar
    23    10     6   ar
    24    16    23    1
    25    16    24    1
    26    14    15    1
@<TRIPOS>MOLECULE
*****
 24 26 0 0 0
SMALL
GASTEIGER

@<TRIPOS>ATOM
      1 C          -8.0657  -18.3696   21.2593 C.ar    1  UNL1        0.0801
      2 C          -9.2458  -19.2491   20.9698 C.ar    1  UNL1        0.0241
      3 C         -10.3530  -19.3730   21.9740 C.ar    1  UNL1        0.0360
      4 BR        -11.5332  -20.2526   21.6844 Br      1  UNL1       -0.0490
      5 C         -10.2804  -18.6174   23.2678 C.ar    1  UNL1        0.0099
      6 C          -9.1003  -17.7379   23.5572 C.ar    1  UNL1        0.0394
      7 C          -8.7546  -16.8783   24.7369 C.ar    1  UNL1        0.0418
      8 C          -7.4336  -16.2232   24.4618 C.ar    1  UNL1        0.1593
      9 O          -6.9628  -16.6778   23.1121 O.2     1  UNL1       -0.4511
     10 C          -7.9929  -17.6140   22.5530 C.ar    1  UNL1        0.1583
     11 C          -6.7103  -15.2791   25.3758 C.2     1  UNL1        0.1076
     12 O          -7.2459  -15.0080   26.7504 O.co2   1  UNL1       -0.5415
     13 O          -5.4513  -14.6061   24.9153 O.co2   1  UNL1       -0.5415
     14 N          -6.9583  -18.2457   20.2551 N.pl3   1  UNL1       -0.3317
     15 H          -7.1305  -17.8249   19.3819 H       1  UNL1        0.1469
     16 N          -1.4797  -20.3151   21.5600 N.3     1  UNL1       -0.3222
     17 C          -2.8494  -19.7977   21.2337 C.3     1  UNL1        0.0509
     18 C          -3.1995  -19.4420   19.8192 C.3     1  UNL1        0.0172
     19 C          -4.5692  -18.9247   19.4930 C.3     1  UNL1        0.0208
     20 C          -5.5887  -18.7630   20.5813 C.3     1  UNL1        0.0692
     21 C          -5.2386  -19.1187   21.9959 C.3     1  UNL1        0.0208
     22 C          -3.8689  -19.6360   22.3221 C.3     1  UNL1        0.0172
     23 H          -0.9214  -20.3605   20.7075 H       1  UNL1        0.1188
     24 H          -1.5563  -21.2475   21.9663 H       1  UNL1        0.1188
@<TRIPOS>UNITY_ATOM_ATTR
12 1
charge -1
@<TRIPOS>BOND
     1    17    16    1
     2    17    18    1
     3    18    19    1
     4    19    20    1
     5    20    14    1
     6    14     1    1
     7     1     2   ar
     8     2     3   ar
     9     3     4    1
    10     3     5   ar
    11     5     6   ar
    12     6     7   ar
    13     7     8   ar
    14     8    11    1
    15    11    12   ar
    16    11    13   ar
    17     8     9   ar
    18     9    10   ar
    19    20    21    1
    20    21    22    1
    21    22    17    1
    22    10     1   ar
    23    10     6   ar
    24    16    23    1
    25    16    24    1
    26    14    15    1
@<TRIPOS>MOLECULE
*****
 24 26 0 0 0
SMALL
GASTEIGER

@<TRIPOS>ATOM
      1 C         -14.0851   -6.3728   19.2443 C.ar    1  UNL1        0.0801
      2 C         -14.3321   -4.9140   19.4910 C.ar    1  UNL1        0.0241
      3 C         -15.7366   -4.3987   19.5975 C.ar    1  UNL1        0.0360
      4 BR        -15.9836   -2.9397   19.8441 Br      1  UNL1       -0.0490
      5 C         -16.8944   -5.3421   19.4573 C.ar    1  UNL1        0.0099
      6 C         -16.6474   -6.8009   19.2106 C.ar    1  UNL1        0.0394
      7 C         -17.5816   -7.9607   19.0311 C.ar    1  UNL1        0.0418
      8 C         -16.7543   -9.1928   18.8137 C.ar    1  UNL1        0.1593
      9 O         -15.3088   -8.7946   18.8588 O.2     1  UNL1       -0.4511
     10 C         -15.2428   -7.3163   19.1042 C.ar    1  UNL1        0.1583
     11 C         -17.2801  -10.5798   18.5904 C.2     1  UNL1        0.1076
     12 O         -16.4804  -11.7665   19.0400 O.co2   1  UNL1       -0.5415
     13 O         -18.6056  -10.7800   17.9174 O.co2   1  UNL1       -0.5415
     14 N         -12.6804   -6.8882   19.1379 N.pl3   1  UNL1       -0.3317
     15 H         -12.4371   -7.7446   19.5581 H       1  UNL1        0.1469
     16 N          -8.5445   -3.7303   16.1508 N.3     1  UNL1       -0.3222
     17 C          -9.5785   -4.5198   16.8976 C.3     1  UNL1        0.0509
     18 C          -9.5357   -4.5839   18.3956 C.3     1  UNL1        0.0172
     19 C         -10.5697   -5.3734   19.1424 C.3     1  UNL1        0.0208
     20 C         -11.6465   -6.0987   18.3911 C.3     1  UNL1        0.0692
     21 C         -11.6893   -6.0347   16.8931 C.3     1  UNL1        0.0208
     22 C         -10.6554   -5.2452   16.1463 C.3     1  UNL1        0.0172
     23 H          -7.8957   -3.3066   16.8141 H       1  UNL1        0.1188
     24 H          -9.0024   -2.9981   15.6081 H       1  UNL1        0.1188
@<TRIPOS>UNITY_ATOM_ATTR
12 1
charge -1
@<TRIPOS>BOND
     1    17    16    1
     2    17    18    1
     3    18    19    1
     4    19    20    1
     5    20    14    1
     6    14     1    1
     7     1     2   ar
     8     2     3   ar
     9     3     4    1
    10     3     5   ar
    11     5     6   ar
    12     6     7   ar
    13     7     8   ar
    14     8    11    1
    15    11    12   ar
    16    11    13   ar
    17     8     9   ar
    18     9    10   ar
    19    20    21    1
    20    21    22    1
    21    22    17    1
    22    10     1   ar
    23    10     6   ar
    24    16    23    1
    25    16    24    1
    26    14    15    1
@<TRIPOS>MOLECULE
*****
 24 26 0 0 0
SMALL
GASTEIGER

@<TRIPOS>ATOM
      1 C         -13.1190   -5.4308   17.9188 C.ar    1  UNL1        0.0801
      2 C         -12.0225   -6.4244   18.1644 C.ar    1  UNL1        0.0241
      3 C         -10.6962   -5.9627   18.6914 C.ar    1  UNL1        0.0360
      4 BR         -9.5996   -6.9563   18.9369 Br      1  UNL1       -0.0490
      5 C         -10.4664   -4.5073   18.9728 C.ar    1  UNL1        0.0099
      6 C         -11.5630   -3.5137   18.7273 C.ar    1  UNL1        0.0394
      7 C         -11.6291   -2.0263   18.9098 C.ar    1  UNL1        0.0418
      8 C         -12.9962   -1.5688   18.4957 C.ar    1  UNL1        0.1593
      9 O         -13.7751   -2.7734   18.0571 O.2     1  UNL1       -0.4511
     10 C         -12.8893   -3.9755   18.2003 C.ar    1  UNL1        0.1583
     11 C         -13.4967   -0.1549   18.5164 C.2     1  UNL1        0.1076
     12 O         -12.5720    0.9732   18.1666 O.co2   1  UNL1       -0.5415
     13 O         -14.9219    0.1309   18.8868 O.co2   1  UNL1       -0.5415
     14 N         -14.4453   -5.8925   17.3918 N.pl3   1  UNL1       -0.3317
     15 H         -14.8936   -5.3869   16.6758 H       1  UNL1        0.1469
     16 N         -17.0186  -10.8212   19.6473 N.3     1  UNL1       -0.3222
     17 C         -16.3753   -9.5890   19.0835 C.3     1  UNL1        0.0509
     18 C         -16.5798   -8.2626   19.7533 C.3     1  UNL1        0.0172
     19 C         -15.9365   -7.0304   19.1895 C.3     1  UNL1        0.0208
     20 C         -15.0886   -7.1247   17.9557 C.3     1  UNL1        0.0692
     21 C         -14.8841   -8.4511   17.2857 C.3     1  UNL1        0.0208
     22 C         -15.5274   -9.6832   17.8496 C.3     1  UNL1        0.0172
     23 H         -17.5540  -10.5746   20.4798 H       1  UNL1        0.1188
     24 H         -16.2972  -11.4983   19.8952 H       1  UNL1        0.1188
@<TRIPOS>UNITY_ATOM_ATTR
12 1
charge -1
@<TRIPOS>BOND
     1    17    16    1
     2    17    18    1
     3    18    19    1
     4    19    20    1
     5    20    14    1
     6    14     1    1
     7     1     2   ar
     8     2     3   ar
     9     3     4    1
    10     3     5   ar
    11     5     6   ar
    12     6     7   ar
    13     7     8   ar
    14     8    11    1
    15    11    12   ar
    16    11    13   ar
    17     8     9   ar
    18     9    10   ar
    19    20    21    1
    20    21    22    1
    21    22    17    1
    22    10     1   ar
    23    10     6   ar
    24    16    23    1
    25    16    24    1
    26    14    15    1
@<TRIPOS>MOLECULE
*****
 24 26 0 0 0
SMALL
GASTEIGER

@<TRIPOS>ATOM
      1 C         -14.9621   -6.2055   19.4066 C.ar    1  UNL1        0.0801
      2 C         -16.2061   -5.3839   19.5724 C.ar    1  UNL1        0.0241
      3 C         -16.1182   -3.8868   19.5980 C.ar    1  UNL1        0.0360
      4 BR        -17.3623   -3.0652   19.7638 Br      1  UNL1       -0.0490
      5 C         -14.7863   -3.2111   19.4578 C.ar    1  UNL1        0.0099
      6 C         -13.5424   -4.0326   19.2920 C.ar    1  UNL1        0.0394
      7 C         -12.1008   -3.6501   19.1319 C.ar    1  UNL1        0.0418
      8 C         -11.2978   -4.9109   19.0074 C.ar    1  UNL1        0.1593
      9 O         -12.2430   -6.0726   19.0905 O.2     1  UNL1       -0.4511
     10 C         -13.6302   -5.5298   19.2664 C.ar    1  UNL1        0.1583
     11 C          -9.8106   -4.9951   18.8307 C.2     1  UNL1        0.1076
     12 O          -8.9562   -5.5621   19.9255 O.co2   1  UNL1       -0.5415
     13 O          -9.1778   -4.5125   17.5593 O.co2   1  UNL1       -0.5415
     14 N         -15.0500   -7.7027   19.3810 N.pl3   1  UNL1       -0.3317
     15 H         -14.2426   -8.2458   19.5308 H       1  UNL1        0.1469
     16 N         -20.3220  -10.3816   18.3661 N.3     1  UNL1       -0.3222
     17 C         -19.0039   -9.7118   18.6198 C.3     1  UNL1        0.0509
     18 C         -18.0822   -9.4123   17.4750 C.3     1  UNL1        0.0172
     19 C         -16.7641   -8.7426   17.7287 C.3     1  UNL1        0.0208
     20 C         -16.3679   -8.3724   19.1273 C.3     1  UNL1        0.0692
     21 C         -17.2897   -8.6719   20.2722 C.3     1  UNL1        0.0208
     22 C         -18.6077   -9.3416   20.0184 C.3     1  UNL1        0.0172
     23 H         -20.4262  -10.5595   17.3672 H       1  UNL1        0.1188
     24 H         -21.0781   -9.7754   18.6842 H       1  UNL1        0.1188
@<TRIPOS>UNITY_ATOM_ATTR
12 1
charge -1
@<TRIPOS>BOND
     1    17    16    1
     2    17    18    1
     3    18    19    1
     4    19    20    1
     5    20    14    1
     6    14     1    1
     7     1     2   ar
     8     2     3   ar
     9     3     4    1
    10     3     5   ar
    11     5     6   ar
    12     6     7   ar
    13     7     8   ar
    14     8    11    1
    15    11    12   ar
    16    11    13   ar
    17     8     9   ar
    18     9    10   ar
    19    20    21    1
    20    21    22    1
    21    22    17    1
    22    10     1   ar
    23    10     6   ar
    24    16    23    1
    25    16    24    1
    26    14    15    1
