@<TRIPOS>MOLECULE
*****
 22 25 0 0 0
SMALL
GASTEIGER

@<TRIPOS>ATOM
      1 O          -9.0734  -20.4943   18.3396 O.2     1  UNL1       -0.2448
      2 C          -8.8633  -19.5423   19.4795 C.2     1  UNL1        0.3428
      3 C         -10.0439  -18.9779   20.2128 C.2     1  UNL1        0.0959
      4 C         -11.1420  -18.1513   19.6121 C.2     1  UNL1        0.1049
      5 N         -12.1104  -17.8036   20.7036 N.2     1  UNL1       -0.2464
      6 C         -11.6107  -18.4152   21.9788 C.2     1  UNL1        0.0782
      7 C         -12.1537  -18.4050   23.3770 C.3     1  UNL1        0.1416
      8 CL        -13.4309  -17.6792   23.6803 Cl      1  UNL1       -0.1037
      9 C         -11.4195  -19.1206   24.4719 C.2     1  UNL1       -0.0043
     10 C         -10.1423  -19.8464   24.1686 C.2     1  UNL1       -0.0029
     11 C          -9.5993  -19.8566   22.7704 C.2     1  UNL1        0.0012
     12 C         -10.3335  -19.1410   21.6755 C.2     1  UNL1        0.0228
     13 O          -7.4724  -19.1548   19.8863 O.3     1  UNL1       -0.4454
     14 C          -6.5534  -20.1781   20.4848 C.3     1  UNL1        0.2087
     15 C          -5.2164  -19.7621   21.0225 C.3     1  UNL1        0.0445
     16 C          -5.1338  -18.9489   22.2802 C.3     1  UNL1        0.0210
     17 C          -3.7967  -18.5329   22.8179 C.3     1  UNL1        0.0722
     18 N          -2.5421  -18.9302   22.0979 N.3     1  UNL1       -0.2727
     19 C          -2.6247  -19.7435   20.8403 C.3     1  UNL1        0.0722
     20 C          -3.9619  -20.1594   20.3025 C.3     1  UNL1        0.0210
     21 C          -3.2520  -19.1816   21.7650 C.3     1  UNL1        0.0722
     22 C          -4.4610  -19.5578   21.2787 C.3     1  UNL1        0.0210
@<TRIPOS>BOND
     1     1     2    2
     2     2    13    1
     3    13    14    1
     4    14    15    1
     5    15    16    1
     6    16    17    1
     7    17    18    1
     8    18    19    1
     9    19    20    1
    10    18    21    1
    11    21    22    1
    12     2     3    1
    13     3     4    2
    14     4     5    1
    15     5     6    2
    16     6     7    1
    17     7     8    1
    18     7     9    1
    19     9    10    2
    20    10    11    1
    21    11    12    2
    22    20    15    1
    23    12     3    1
    24    22    15    1
    25    12     6    1
@<TRIPOS>MOLECULE
*****
 22 25 0 0 0
SMALL
GASTEIGER

@<TRIPOS>ATOM
      1 O          -6.9736  -19.3553   22.3609 O.2     1  UNL1       -0.2448
      2 C          -7.8306  -18.1412   22.5638 C.2     1  UNL1        0.3428
      3 C          -9.1954  -18.2793   23.1707 C.2     1  UNL1        0.0959
      4 C          -9.5098  -18.8908   24.5038 C.2     1  UNL1        0.1049
      5 N         -10.9941  -18.8196   24.7079 N.2     1  UNL1       -0.2464
      6 C         -11.5971  -18.1642   23.5009 C.2     1  UNL1        0.0782
      7 C         -13.0148  -17.8282   23.1443 C.3     1  UNL1        0.1416
      8 CL        -14.1265  -18.1621   24.0944 Cl      1  UNL1       -0.1037
      9 C         -13.3208  -17.1584   21.8376 C.2     1  UNL1       -0.0043
     10 C         -12.2092  -16.8244   20.8875 C.2     1  UNL1       -0.0029
     11 C         -10.7915  -17.1604   21.2441 C.2     1  UNL1        0.0012
     12 C         -10.4854  -17.8302   22.5509 C.2     1  UNL1        0.0228
     13 O          -7.3228  -16.7887   22.1598 O.3     1  UNL1       -0.4454
     14 C          -7.6951  -15.5774   22.9623 C.3     1  UNL1        0.2087
     15 C          -7.3570  -15.5120   24.4222 C.3     1  UNL1        0.0445
     16 C          -8.4522  -15.5262   25.4471 C.3     1  UNL1        0.0210
     17 C          -8.1140  -15.4608   26.9070 C.3     1  UNL1        0.0722
     18 N          -6.6806  -15.3814   27.3421 N.3     1  UNL1       -0.2727
     19 C          -5.5855  -15.3672   26.3172 C.3     1  UNL1        0.0722
     20 C          -5.9237  -15.4326   24.8572 C.3     1  UNL1        0.0210
     21 C          -6.8169  -15.4154   26.5307 C.3     1  UNL1        0.0722
     22 C          -7.1226  -15.4744   25.2106 C.3     1  UNL1        0.0210
@<TRIPOS>BOND
     1     1     2    2
     2     2    13    1
     3    13    14    1
     4    14    15    1
     5    15    16    1
     6    16    17    1
     7    17    18    1
     8    18    19    1
     9    19    20    1
    10    18    21    1
    11    21    22    1
    12     2     3    1
    13     3     4    2
    14     4     5    1
    15     5     6    2
    16     6     7    1
    17     7     8    1
    18     7     9    1
    19     9    10    2
    20    10    11    1
    21    11    12    2
    22    20    15    1
    23    12     3    1
    24    22    15    1
    25    12     6    1
@<TRIPOS>MOLECULE
*****
 22 25 0 0 0
SMALL
GASTEIGER

@<TRIPOS>ATOM
      1 O          -8.4934  -19.2730   18.8833 O.2     1  UNL1       -0.2448
      2 C          -7.9002  -18.9590   20.2247 C.2     1  UNL1        0.3428
      3 C          -8.7459  -19.0550   21.4599 C.2     1  UNL1        0.0959
      4 C          -8.3481  -19.7036   22.7526 C.2     1  UNL1        0.1049
      5 N          -9.4942  -19.5687   23.7108 N.2     1  UNL1       -0.2464
      6 C         -10.6004  -18.8367   23.0103 C.2     1  UNL1        0.0782
      7 C         -11.9690  -18.4183   23.4595 C.3     1  UNL1        0.1416
      8 CL        -12.4314  -18.7358   24.8507 Cl      1  UNL1       -0.1037
      9 C         -12.8751  -17.6824   22.5176 C.2     1  UNL1       -0.0043
     10 C         -12.4126  -17.3649   21.1264 C.2     1  UNL1       -0.0029
     11 C         -11.0440  -17.7833   20.6772 C.2     1  UNL1        0.0012
     12 C         -10.1379  -18.5192   21.6192 C.2     1  UNL1        0.0228
     13 O          -6.4612  -18.5489   20.3310 O.3     1  UNL1       -0.4454
     14 C          -5.3811  -19.5895   20.3080 C.3     1  UNL1        0.2087
     15 C          -3.9449  -19.1830   20.4555 C.3     1  UNL1        0.0445
     16 C          -3.2824  -19.2437   21.7999 C.3     1  UNL1        0.0210
     17 C          -1.8461  -18.8372   21.9472 C.3     1  UNL1        0.0722
     18 N          -1.0722  -18.3698   20.7503 N.3     1  UNL1       -0.2727
     19 C          -1.7347  -18.3091   19.4059 C.3     1  UNL1        0.0722
     20 C          -3.1711  -18.7157   19.2585 C.3     1  UNL1        0.0210
     21 C          -1.8570  -18.5824   20.6202 C.3     1  UNL1        0.0722
     22 C          -3.1557  -18.9499   20.4868 C.3     1  UNL1        0.0210
@<TRIPOS>BOND
     1     1     2    2
     2     2    13    1
     3    13    14    1
     4    14    15    1
     5    15    16    1
     6    16    17    1
     7    17    18    1
     8    18    19    1
     9    19    20    1
    10    18    21    1
    11    21    22    1
    12     2     3    1
    13     3     4    2
    14     4     5    1
    15     5     6    2
    16     6     7    1
    17     7     8    1
    18     7     9    1
    19     9    10    2
    20    10    11    1
    21    11    12    2
    22    20    15    1
    23    12     3    1
    24    22    15    1
    25    12     6    1
@<TRIPOS>MOLECULE
*****
 22 25 0 0 0
SMALL
GASTEIGER

@<TRIPOS>ATOM
      1 O          -5.7704  -18.8043   19.8086 O.2     1  UNL1       -0.2448
      2 C          -6.1259  -18.9446   21.2590 C.2     1  UNL1        0.3428
      3 C          -7.3269  -18.2338   21.8091 C.2     1  UNL1        0.0959
      4 C          -7.3194  -17.2058   22.9014 C.2     1  UNL1        0.1049
      5 N          -8.7341  -16.7629   23.1307 N.2     1  UNL1       -0.2464
      6 C          -9.6159  -17.5173   22.1802 C.2     1  UNL1        0.0782
      7 C         -11.0983  -17.4938   21.9530 C.3     1  UNL1        0.1416
      8 CL        -11.9680  -16.5848   22.7698 Cl      1  UNL1       -0.1037
      9 C         -11.7111  -18.3795   20.9089 C.2     1  UNL1       -0.0043
     10 C         -10.8414  -19.2885   20.0921 C.2     1  UNL1       -0.0029
     11 C          -9.3589  -19.3120   20.3193 C.2     1  UNL1        0.0012
     12 C          -8.7462  -18.4263   21.3634 C.2     1  UNL1        0.0228
     13 O          -5.2804  -19.7957   22.1595 O.3     1  UNL1       -0.4454
     14 C          -4.0636  -19.2141   22.8162 C.3     1  UNL1        0.2087
     15 C          -3.0633  -18.4510   21.9995 C.3     1  UNL1        0.0445
     16 C          -2.3357  -19.1309   20.8778 C.3     1  UNL1        0.0210
     17 C          -1.3353  -18.3677   20.0612 C.3     1  UNL1        0.0722
     18 N          -1.0625  -16.9246   20.3663 N.3     1  UNL1       -0.2727
     19 C          -1.7901  -16.2447   21.4880 C.3     1  UNL1        0.0722
     20 C          -2.7905  -17.0079   22.3047 C.3     1  UNL1        0.0210
     21 C          -1.6195  -17.3016   20.8414 C.3     1  UNL1        0.0722
     22 C          -2.5240  -17.9915   21.5798 C.3     1  UNL1        0.0210
@<TRIPOS>BOND
     1     1     2    2
     2     2    13    1
     3    13    14    1
     4    14    15    1
     5    15    16    1
     6    16    17    1
     7    17    18    1
     8    18    19    1
     9    19    20    1
    10    18    21    1
    11    21    22    1
    12     2     3    1
    13     3     4    2
    14     4     5    1
    15     5     6    2
    16     6     7    1
    17     7     8    1
    18     7     9    1
    19     9    10    2
    20    10    11    1
    21    11    12    2
    22    20    15    1
    23    12     3    1
    24    22    15    1
    25    12     6    1
@<TRIPOS>MOLECULE
*****
 22 25 0 0 0
SMALL
GASTEIGER

@<TRIPOS>ATOM
      1 O          -9.5337  -17.8489   20.5556 O.2     1  UNL1       -0.2448
      2 C          -8.3973  -17.8126   21.5339 C.2     1  UNL1        0.3428
      3 C          -8.6630  -17.5254   22.9820 C.2     1  UNL1        0.0959
      4 C          -9.8355  -18.0172   23.7777 C.2     1  UNL1        0.1049
      5 N          -9.6999  -17.4916   25.1760 N.2     1  UNL1       -0.2464
      6 C          -8.4436  -16.6750   25.2445 C.2     1  UNL1        0.0782
      7 C          -7.8003  -15.9151   26.3665 C.3     1  UNL1        0.1416
      8 CL         -8.4412  -15.8943   27.7225 Cl      1  UNL1       -0.1037
      9 C          -6.5162  -15.1761   26.1324 C.2     1  UNL1       -0.0043
     10 C          -5.8753  -15.1969   24.7763 C.2     1  UNL1       -0.0029
     11 C          -6.5186  -15.9568   23.6544 C.2     1  UNL1        0.0012
     12 C          -7.8027  -16.6958   23.8885 C.2     1  UNL1        0.0228
     13 O          -6.9950  -18.0636   21.0640 O.3     1  UNL1       -0.4454
     14 C          -6.2005  -19.1954   21.6452 C.3     1  UNL1        0.2087
     15 C          -4.7086  -19.0858   21.7547 C.3     1  UNL1        0.0445
     16 C          -4.0965  -18.1712   22.7740 C.3     1  UNL1        0.0210
     17 C          -2.6045  -18.0616   22.8835 C.3     1  UNL1        0.0722
     18 N          -1.7245  -18.8667   21.9737 N.3     1  UNL1       -0.2727
     19 C          -2.3366  -19.7813   20.9545 C.3     1  UNL1        0.0722
     20 C          -3.8287  -19.8908   20.8450 C.3     1  UNL1        0.0210
     21 C          -2.5368  -18.9600   21.8763 C.3     1  UNL1        0.0722
     22 C          -3.8859  -19.0592   21.7772 C.3     1  UNL1        0.0210
@<TRIPOS>BOND
     1     1     2    2
     2     2    13    1
     3    13    14    1
     4    14    15    1
     5    15    16    1
     6    16    17    1
     7    17    18    1
     8    18    19    1
     9    19    20    1
    10    18    21    1
    11    21    22    1
    12     2     3    1
    13     3     4    2
    14     4     5    1
    15     5     6    2
    16     6     7    1
    17     7     8    1
    18     7     9    1
    19     9    10    2
    20    10    11    1
    21    11    12    2
    22    20    15    1
    23    12     3    1
    24    22    15    1
    25    12     6    1
@<TRIPOS>MOLECULE
*****
 22 25 0 0 0
SMALL
GASTEIGER

@<TRIPOS>ATOM
      1 O          -5.3856  -17.7799   22.6299 O.2     1  UNL1       -0.2448
      2 C          -6.1058  -18.8893   21.9227 C.2     1  UNL1        0.3428
      3 C          -7.5050  -18.6778   21.4251 C.2     1  UNL1        0.0959
      4 C          -8.0755  -19.2115   20.1446 C.2     1  UNL1        0.1049
      5 N          -9.5024  -18.7590   20.0488 N.2     1  UNL1       -0.2464
      6 C          -9.8138  -17.9456   21.2701 C.2     1  UNL1        0.0782
      7 C         -11.0619  -17.2442   21.7175 C.3     1  UNL1        0.1416
      8 CL        -12.2964  -17.2944   20.8669 Cl      1  UNL1       -0.1037
      9 C         -11.0755  -16.4926   23.0155 C.2     1  UNL1       -0.0043
     10 C          -9.8410  -16.4424   23.8661 C.2     1  UNL1       -0.0029
     11 C          -8.5929  -17.1438   23.4187 C.2     1  UNL1        0.0012
     12 C          -8.5793  -17.8954   22.1207 C.2     1  UNL1        0.0228
     13 O          -5.4269  -20.2104   21.7131 O.3     1  UNL1       -0.4454
     14 C          -4.5369  -20.4158   20.5232 C.3     1  UNL1        0.2087
     15 C          -3.4675  -19.4134   20.2046 C.3     1  UNL1        0.0445
     16 C          -2.2025  -19.3846   21.0101 C.3     1  UNL1        0.0210
     17 C          -1.1331  -18.3822   20.6915 C.3     1  UNL1        0.0722
     18 N          -1.3287  -17.4084   19.5674 N.3     1  UNL1       -0.2727
     19 C          -2.5938  -17.4371   18.7619 C.3     1  UNL1        0.0722
     20 C          -3.6632  -18.4396   19.0806 C.3     1  UNL1        0.0210
     21 C          -1.9430  -17.9393   19.7045 C.3     1  UNL1        0.0722
     22 C          -2.9100  -18.8457   19.9925 C.3     1  UNL1        0.0210
@<TRIPOS>BOND
     1     1     2    2
     2     2    13    1
     3    13    14    1
     4    14    15    1
     5    15    16    1
     6    16    17    1
     7    17    18    1
     8    18    19    1
     9    19    20    1
    10    18    21    1
    11    21    22    1
    12     2     3    1
    13     3     4    2
    14     4     5    1
    15     5     6    2
    16     6     7    1
    17     7     8    1
    18     7     9    1
    19     9    10    2
    20    10    11    1
    21    11    12    2
    22    20    15    1
    23    12     3    1
    24    22    15    1
    25    12     6    1
@<TRIPOS>MOLECULE
*****
 22 25 0 0 0
SMALL
GASTEIGER

@<TRIPOS>ATOM
      1 O          -8.2829  -19.2348   19.0169 O.2     1  UNL1       -0.2448
      2 C          -8.2382  -19.4003   20.5070 C.2     1  UNL1        0.3428
      3 C          -7.0764  -18.8602   21.2871 C.2     1  UNL1        0.0959
      4 C          -7.1458  -17.8195   22.3651 C.2     1  UNL1        0.1049
      5 N          -5.7535  -17.5822   22.8704 N.2     1  UNL1       -0.2464
      6 C          -4.8238  -18.4763   22.1048 C.2     1  UNL1        0.0782
      7 C          -3.3383  -18.6732   22.1723 C.3     1  UNL1        0.1416
      8 CL         -2.5207  -17.8833   23.1508 Cl      1  UNL1       -0.1037
      9 C          -2.6705  -19.6600   21.2612 C.2     1  UNL1       -0.0043
     10 C          -3.4881  -20.4499   20.2826 C.2     1  UNL1       -0.0029
     11 C          -4.9736  -20.2530   20.2152 C.2     1  UNL1        0.0012
     12 C          -5.6414  -19.2662   21.1263 C.2     1  UNL1        0.0228
     13 O          -9.3554  -20.1059   21.2170 O.3     1  UNL1       -0.4454
     14 C         -10.7796  -19.8268   20.8380 C.3     1  UNL1        0.2087
     15 C         -11.4537  -18.5777   21.3231 C.3     1  UNL1        0.0445
     16 C         -11.6040  -17.4014   20.4046 C.3     1  UNL1        0.0210
     17 C         -12.2781  -16.1523   20.8898 C.3     1  UNL1        0.0722
     18 N         -12.8019  -16.0795   22.2935 N.3     1  UNL1       -0.2727
     19 C         -12.6516  -17.2558   23.2120 C.3     1  UNL1        0.0722
     20 C         -11.9775  -18.5049   22.7268 C.3     1  UNL1        0.0210
     21 C         -12.4398  -16.7853   22.0727 C.3     1  UNL1        0.0722
     22 C         -11.8303  -17.9148   21.6341 C.3     1  UNL1        0.0210
@<TRIPOS>BOND
     1     1     2    2
     2     2    13    1
     3    13    14    1
     4    14    15    1
     5    15    16    1
     6    16    17    1
     7    17    18    1
     8    18    19    1
     9    19    20    1
    10    18    21    1
    11    21    22    1
    12     2     3    1
    13     3     4    2
    14     4     5    1
    15     5     6    2
    16     6     7    1
    17     7     8    1
    18     7     9    1
    19     9    10    2
    20    10    11    1
    21    11    12    2
    22    20    15    1
    23    12     3    1
    24    22    15    1
    25    12     6    1
@<TRIPOS>MOLECULE
*****
 22 25 0 0 0
SMALL
GASTEIGER

@<TRIPOS>ATOM
      1 O          -9.1934  -19.2732   23.9903 O.2     1  UNL1       -0.2448
      2 C          -8.6781  -18.3222   22.9512 C.2     1  UNL1        0.3428
      3 C          -7.7006  -18.7981   21.9177 C.2     1  UNL1        0.0959
      4 C          -8.0464  -19.4287   20.6014 C.2     1  UNL1        0.1049
      5 N          -6.7652  -19.7473   19.8893 N.2     1  UNL1       -0.2464
      6 C          -5.6276  -19.3136   20.7655 C.2     1  UNL1        0.0782
      7 C          -4.1401  -19.3771   20.5838 C.3     1  UNL1        0.1416
      8 CL         -3.5619  -19.9637   19.3302 Cl      1  UNL1       -0.1037
      9 C          -3.2306  -18.8540   21.6558 C.2     1  UNL1       -0.0043
     10 C          -3.8087  -18.2673   22.9095 C.2     1  UNL1       -0.0029
     11 C          -5.2963  -18.2038   23.0912 C.2     1  UNL1        0.0012
     12 C          -6.2057  -18.7270   22.0192 C.2     1  UNL1        0.0228
     13 O          -9.1402  -16.8951   22.9455 O.3     1  UNL1       -0.4454
     14 C          -8.1676  -15.7906   23.2354 C.3     1  UNL1        0.2087
     15 C          -7.6164  -15.6210   24.6201 C.3     1  UNL1        0.0445
     16 C          -8.5225  -15.7471   25.8087 C.3     1  UNL1        0.0210
     17 C          -7.9713  -15.5775   27.1934 C.3     1  UNL1        0.0722
     18 N          -6.5138  -15.2817   27.3895 N.3     1  UNL1       -0.2727
     19 C          -5.6077  -15.1555   26.2008 C.3     1  UNL1        0.0722
     20 C          -6.1590  -15.3252   24.8161 C.3     1  UNL1        0.0210
     21 C          -6.7700  -15.3664   26.6115 C.3     1  UNL1        0.0722
     22 C          -7.2684  -15.5198   25.3594 C.3     1  UNL1        0.0210
@<TRIPOS>BOND
     1     1     2    2
     2     2    13    1
     3    13    14    1
     4    14    15    1
     5    15    16    1
     6    16    17    1
     7    17    18    1
     8    18    19    1
     9    19    20    1
    10    18    21    1
    11    21    22    1
    12     2     3    1
    13     3     4    2
    14     4     5    1
    15     5     6    2
    16     6     7    1
    17     7     8    1
    18     7     9    1
    19     9    10    2
    20    10    11    1
    21    11    12    2
    22    20    15    1
    23    12     3    1
    24    22    15    1
    25    12     6    1
@<TRIPOS>MOLECULE
*****
 22 25 0 0 0
SMALL
GASTEIGER

@<TRIPOS>ATOM
      1 O          -5.5288  -17.3431   22.9882 O.2     1  UNL1       -0.2448
      2 C          -6.6311  -18.1675   22.3921 C.2     1  UNL1        0.3428
      3 C          -8.0427  -17.6607   22.4142 C.2     1  UNL1        0.0959
      4 C          -8.5392  -16.4055   21.7600 C.2     1  UNL1        0.1049
      5 N         -10.0090  -16.2892   22.0359 N.2     1  UNL1       -0.2464
      6 C         -10.4209  -17.4725   22.8606 C.2     1  UNL1        0.0782
      7 C         -11.7456  -17.8877   23.4288 C.3     1  UNL1        0.1416
      8 CL        -12.9608  -17.0400   23.1950 Cl      1  UNL1       -0.1037
      9 C         -11.8549  -19.1505   24.2308 C.2     1  UNL1       -0.0043
     10 C         -10.6397  -19.9981   24.4647 C.2     1  UNL1       -0.0029
     11 C          -9.3151  -19.5829   23.8964 C.2     1  UNL1        0.0012
     12 C          -9.2057  -18.3201   23.0944 C.2     1  UNL1        0.0228
     13 O          -6.3217  -19.4988   21.7739 O.3     1  UNL1       -0.4454
     14 C          -5.5741  -19.5671   20.4753 C.3     1  UNL1        0.2087
     15 C          -4.1040  -19.2713   20.4399 C.3     1  UNL1        0.0445
     16 C          -3.5085  -18.5687   19.2560 C.3     1  UNL1        0.0210
     17 C          -2.0384  -18.2730   19.2207 C.3     1  UNL1        0.0722
     18 N          -1.1636  -18.6798   20.3693 N.3     1  UNL1       -0.2727
     19 C          -1.7591  -19.3824   21.5533 C.3     1  UNL1        0.0722
     20 C          -3.2293  -19.6782   21.5886 C.3     1  UNL1        0.0210
     21 C          -1.9638  -18.8634   20.4339 C.3     1  UNL1        0.0722
     22 C          -3.2931  -19.1308   20.4659 C.3     1  UNL1        0.0210
@<TRIPOS>BOND
     1     1     2    2
     2     2    13    1
     3    13    14    1
     4    14    15    1
     5    15    16    1
     6    16    17    1
     7    17    18    1
     8    18    19    1
     9    19    20    1
    10    18    21    1
    11    21    22    1
    12     2     3    1
    13     3     4    2
    14     4     5    1
    15     5     6    2
    16     6     7    1
    17     7     8    1
    18     7     9    1
    19     9    10    2
    20    10    11    1
    21    11    12    2
    22    20    15    1
    23    12     3    1
    24    22    15    1
    25    12     6    1
