@<TRIPOS>MOLECULE
*****
 28 30 0 0 0
SMALL
GASTEIGER

@<TRIPOS>ATOM
      1 C          -6.4841  -18.5540   21.7718 C.2     1  UNL1        0.0731
      2 C          -5.0164  -18.4157   22.0485 C.2     1  UNL1        0.0529
      3 N          -4.5382  -17.4564   23.0978 N.pl3   1  UNL1       -0.3173
      4 C          -5.5277  -16.6354   23.8703 C.2     1  UNL1        0.0317
      5 C          -5.0495  -15.6760   24.9196 C.3     1  UNL1        0.0475
      6 C          -6.9954  -16.7737   23.5935 C.2     1  UNL1        0.0635
      7 C          -7.4736  -17.7330   22.5442 C.3     1  UNL1        0.0855
      8 H          -3.5748  -17.3656   23.2795 H       1  UNL1        0.1517
      9 C          -8.9414  -17.8714   22.2675 C.ar    1  UNL1       -0.0026
     10 C          -9.6515  -16.8332   21.4502 C.ar    1  UNL1       -0.0005
     11 C         -11.1193  -16.9715   21.1734 C.ar    1  UNL1        0.0294
     12 C         -11.8769  -18.1479   21.7139 C.ar    1  UNL1        0.1410
     13 F         -13.3446  -18.2862   21.4371 F       1  UNL1       -0.2041
     14 C         -11.1667  -19.1861   22.5312 C.ar    1  UNL1        0.0407
     15 C          -9.6989  -19.0478   22.8079 C.ar    1  UNL1        0.0566
     16 CL         -8.9887  -20.0859   23.6252 Cl      1  UNL1       -0.0825
     17 C          -6.9623  -19.5134   20.7225 C.2     1  UNL1        0.3389
     18 O          -6.6890  -20.9811   20.8677 O.2     1  UNL1       -0.2452
     19 C          -8.9467  -19.7186   19.0582 C.3     1  UNL1        0.2559
     20 O          -7.7138  -19.0050   19.5280 O.3     1  UNL1       -0.4415
     21 C          -7.9850  -15.9527   24.3660 C.1     1  UNL1        0.0976
     22 N          -8.9745  -15.1317   25.1385 N.1     1  UNL1       -0.1911
     23 C          -4.0268  -19.2367   21.2760 C.3     1  UNL1        0.1699
     24 N          -2.8631  -18.5712   20.6031 N.ar    1  UNL1       -0.2242
     25 C          -2.4390  -18.7670   19.1777 C.ar    1  UNL1        0.1976
     26 N          -1.2330  -17.9099   18.9310 N.ar    1  UNL1       -0.2007
     27 C          -0.9117  -17.1843   20.2040 C.ar    1  UNL1        0.2210
     28 N          -1.9192  -17.5931   21.2373 N.ar    1  UNL1       -0.1448
@<TRIPOS>BOND
     1    19    20    1
     2    20    17    1
     3    17    18    2
     4    17     1    1
     5     1     2    2
     6     2    23    1
     7    23    24    1
     8    24    25   ar
     9    25    26   ar
    10    26    27   ar
    11    27    28   ar
    12     2     3    1
    13     3     4    1
    14     4     5    1
    15     4     6    2
    16     6    21    1
    17    21    22    3
    18     6     7    1
    19     7     9    1
    20     9    10   ar
    21    10    11   ar
    22    11    12   ar
    23    12    13    1
    24    12    14   ar
    25    14    15   ar
    26    15    16    1
    27     7     1    1
    28    15     9   ar
    29    28    24   ar
    30     3     8    1
@<TRIPOS>MOLECULE
*****
 28 30 0 0 0
SMALL
GASTEIGER

@<TRIPOS>ATOM
      1 C          -7.7392  -18.3742   22.0195 C.2     1  UNL1        0.0731
      2 C          -6.2538  -18.2898   21.8287 C.2     1  UNL1        0.0529
      3 N          -5.4350  -17.3893   22.7053 N.pl3   1  UNL1       -0.3173
      4 C          -6.1015  -16.5730   23.7727 C.2     1  UNL1        0.0317
      5 C          -5.2826  -15.6724   24.6493 C.3     1  UNL1        0.0475
      6 C          -7.5868  -16.6574   23.9636 C.2     1  UNL1        0.0635
      7 C          -8.4057  -17.5579   23.0870 C.3     1  UNL1        0.0855
      8 H          -4.4600  -17.3339   22.5800 H       1  UNL1        0.1517
      9 C          -9.8912  -17.6422   23.2779 C.ar    1  UNL1       -0.0026
     10 C         -10.4632  -18.5665   24.3116 C.ar    1  UNL1       -0.0005
     11 C         -11.9486  -18.6508   24.5025 C.ar    1  UNL1        0.0294
     12 C         -12.8620  -17.8109   23.6597 C.ar    1  UNL1        0.1410
     13 F         -14.3474  -17.8952   23.8507 F       1  UNL1       -0.2041
     14 C         -12.2900  -16.8866   22.6260 C.ar    1  UNL1        0.0407
     15 C         -10.8045  -16.8023   22.4351 C.ar    1  UNL1        0.0566
     16 CL        -10.2325  -15.8780   21.4014 Cl      1  UNL1       -0.0825
     17 C          -8.5581  -19.2748   21.1430 C.2     1  UNL1        0.3389
     18 O          -9.2780  -20.4485   21.7379 O.2     1  UNL1       -0.2452
     19 C          -8.9351  -20.1250   18.7171 C.3     1  UNL1        0.2559
     20 O          -8.6571  -19.0016   19.6714 O.3     1  UNL1       -0.4415
     21 C          -8.2534  -15.8411   25.0310 C.1     1  UNL1        0.0976
     22 N          -8.9200  -15.0249   26.0984 N.1     1  UNL1       -0.1911
     23 C          -5.5873  -19.1061   20.7612 C.3     1  UNL1        0.1699
     24 N          -4.1032  -19.0140   20.5636 N.ar    1  UNL1       -0.2242
     25 C          -3.0619  -19.7608   21.3433 C.ar    1  UNL1        0.1976
     26 N          -1.7150  -19.3673   20.8132 N.ar    1  UNL1       -0.2007
     27 C          -1.9239  -18.3774   19.7057 C.ar    1  UNL1        0.2210
     28 N          -3.3999  -18.1590   19.5515 N.ar    1  UNL1       -0.1448
@<TRIPOS>BOND
     1    19    20    1
     2    20    17    1
     3    17    18    2
     4    17     1    1
     5     1     2    2
     6     2    23    1
     7    23    24    1
     8    24    25   ar
     9    25    26   ar
    10    26    27   ar
    11    27    28   ar
    12     2     3    1
    13     3     4    1
    14     4     5    1
    15     4     6    2
    16     6    21    1
    17    21    22    3
    18     6     7    1
    19     7     9    1
    20     9    10   ar
    21    10    11   ar
    22    11    12   ar
    23    12    13    1
    24    12    14   ar
    25    14    15   ar
    26    15    16    1
    27     7     1    1
    28    15     9   ar
    29    28    24   ar
    30     3     8    1
@<TRIPOS>MOLECULE
*****
 28 30 0 0 0
SMALL
GASTEIGER

@<TRIPOS>ATOM
      1 C          -6.1769  -18.1708   22.3655 C.2     1  UNL1        0.0731
      2 C          -4.7462  -18.0197   22.7898 C.2     1  UNL1        0.0529
      3 N          -4.3897  -17.0824   23.9053 N.pl3   1  UNL1       -0.3173
      4 C          -5.4640  -16.2963   24.5966 C.2     1  UNL1        0.0317
      5 C          -5.1075  -15.3590   25.7121 C.3     1  UNL1        0.0475
      6 C          -6.8947  -16.4474   24.1723 C.2     1  UNL1        0.0635
      7 C          -7.2512  -17.3847   23.0568 C.3     1  UNL1        0.0855
      8 H          -3.4506  -16.9832   24.1838 H       1  UNL1        0.1517
      9 C          -8.6820  -17.5358   22.6325 C.ar    1  UNL1       -0.0026
     10 C          -9.4584  -18.7550   23.0336 C.ar    1  UNL1       -0.0005
     11 C         -10.8892  -18.9062   22.6094 C.ar    1  UNL1        0.0294
     12 C         -11.5437  -17.8381   21.7841 C.ar    1  UNL1        0.1410
     13 F         -12.9744  -17.9893   21.3599 F       1  UNL1       -0.2041
     14 C         -10.7673  -16.6189   21.3831 C.ar    1  UNL1        0.0407
     15 C          -9.3365  -16.4678   21.8073 C.ar    1  UNL1        0.0566
     16 CL         -8.5601  -15.2486   21.4063 Cl      1  UNL1       -0.0825
     17 C          -6.5334  -19.1081   21.2500 C.2     1  UNL1        0.3389
     18 O          -6.9859  -18.5628   19.9279 O.2     1  UNL1       -0.2452
     19 C          -5.8746  -21.4638   20.3744 C.3     1  UNL1        0.2559
     20 O          -6.4374  -20.5907   21.4565 O.3     1  UNL1       -0.4415
     21 C          -7.9691  -15.6613   24.8636 C.1     1  UNL1        0.0976
     22 N          -9.0434  -14.8752   25.5549 N.1     1  UNL1       -0.1911
     23 C          -3.6718  -18.8058   22.0985 C.3     1  UNL1        0.1699
     24 N          -2.9540  -18.2191   20.9194 N.ar    1  UNL1       -0.2242
     25 C          -1.5296  -17.7495   20.8986 C.ar    1  UNL1        0.1976
     26 N          -1.2298  -17.2391   19.5204 N.ar    1  UNL1       -0.2007
     27 C          -2.4690  -17.3932   18.6893 C.ar    1  UNL1        0.2210
     28 N          -3.5346  -17.9989   19.5539 N.ar    1  UNL1       -0.1448
@<TRIPOS>BOND
     1    19    20    1
     2    20    17    1
     3    17    18    2
     4    17     1    1
     5     1     2    2
     6     2    23    1
     7    23    24    1
     8    24    25   ar
     9    25    26   ar
    10    26    27   ar
    11    27    28   ar
    12     2     3    1
    13     3     4    1
    14     4     5    1
    15     4     6    2
    16     6    21    1
    17    21    22    3
    18     6     7    1
    19     7     9    1
    20     9    10   ar
    21    10    11   ar
    22    11    12   ar
    23    12    13    1
    24    12    14   ar
    25    14    15   ar
    26    15    16    1
    27     7     1    1
    28    15     9   ar
    29    28    24   ar
    30     3     8    1
@<TRIPOS>MOLECULE
*****
 28 30 0 0 0
SMALL
GASTEIGER

@<TRIPOS>ATOM
      1 C          -8.0872  -17.2566   23.3404 C.2     1  UNL1        0.0731
      2 C          -6.6738  -17.3084   22.8408 C.2     1  UNL1        0.0529
      3 N          -6.3446  -18.0861   21.6011 N.pl3   1  UNL1       -0.3173
      4 C          -7.4287  -18.8120   20.8611 C.2     1  UNL1        0.0317
      5 C          -7.0994  -19.5898   19.6214 C.3     1  UNL1        0.0475
      6 C          -8.8420  -18.7603   21.3607 C.2     1  UNL1        0.0635
      7 C          -9.1713  -17.9826   22.6004 C.3     1  UNL1        0.0855
      8 H          -5.4169  -18.1201   21.2732 H       1  UNL1        0.1517
      9 C         -10.5847  -17.9308   23.1000 C.ar    1  UNL1       -0.0026
     10 C         -11.0418  -18.8908   24.1581 C.ar    1  UNL1       -0.0005
     11 C         -12.4552  -18.8391   24.6577 C.ar    1  UNL1        0.0294
     12 C         -13.4116  -17.8274   24.0992 C.ar    1  UNL1        0.1410
     13 F         -14.8249  -17.7757   24.5989 F       1  UNL1       -0.2041
     14 C         -12.9545  -16.8674   23.0411 C.ar    1  UNL1        0.0407
     15 C         -11.5410  -16.9191   22.5415 C.ar    1  UNL1        0.0566
     16 CL        -11.0840  -15.9592   21.4834 Cl      1  UNL1       -0.0825
     17 C          -8.4164  -16.4789   24.5800 C.2     1  UNL1        0.3389
     18 O          -8.5022  -14.9824   24.5259 O.2     1  UNL1       -0.2452
     19 C          -8.3872  -16.5082   27.1778 C.3     1  UNL1        0.2559
     20 O          -8.6599  -17.1977   25.8738 O.3     1  UNL1       -0.4415
     21 C          -9.9262  -19.4862   20.6207 C.1     1  UNL1        0.0976
     22 N         -11.0103  -20.2122   19.8807 N.1     1  UNL1       -0.1911
     23 C          -5.5896  -16.5824   23.5808 C.3     1  UNL1        0.1699
     24 N          -4.1681  -16.6774   23.1116 N.ar    1  UNL1       -0.2242
     25 C          -3.2435  -17.8383   23.3294 C.ar    1  UNL1        0.1976
     26 N          -1.9255  -17.5066   22.6946 N.ar    1  UNL1       -0.2007
     27 C          -2.0355  -16.1407   22.0846 C.ar    1  UNL1        0.2210
     28 N          -3.4215  -15.6282   22.3423 N.ar    1  UNL1       -0.1448
@<TRIPOS>BOND
     1    19    20    1
     2    20    17    1
     3    17    18    2
     4    17     1    1
     5     1     2    2
     6     2    23    1
     7    23    24    1
     8    24    25   ar
     9    25    26   ar
    10    26    27   ar
    11    27    28   ar
    12     2     3    1
    13     3     4    1
    14     4     5    1
    15     4     6    2
    16     6    21    1
    17    21    22    3
    18     6     7    1
    19     7     9    1
    20     9    10   ar
    21    10    11   ar
    22    11    12   ar
    23    12    13    1
    24    12    14   ar
    25    14    15   ar
    26    15    16    1
    27     7     1    1
    28    15     9   ar
    29    28    24   ar
    30     3     8    1
@<TRIPOS>MOLECULE
*****
 28 30 0 0 0
SMALL
GASTEIGER

@<TRIPOS>ATOM
      1 C          -6.7913  -17.6602   22.5406 C.2     1  UNL1        0.0731
      2 C          -5.4696  -18.3293   22.3057 C.2     1  UNL1        0.0529
      3 N          -5.3721  -19.4835   21.3525 N.pl3   1  UNL1       -0.3173
      4 C          -6.5964  -19.9685   20.6344 C.2     1  UNL1        0.0317
      5 C          -6.4989  -21.1227   19.6812 C.3     1  UNL1        0.0475
      6 C          -7.9181  -19.2994   20.8693 C.2     1  UNL1        0.0635
      7 C          -8.0156  -18.1453   21.8224 C.3     1  UNL1        0.0855
      8 H          -4.5046  -19.9226   21.1983 H       1  UNL1        0.1517
      9 C          -9.3374  -17.4761   22.0574 C.ar    1  UNL1       -0.0026
     10 C          -9.7384  -16.2947   21.2247 C.ar    1  UNL1       -0.0005
     11 C         -11.0602  -15.6256   21.4596 C.ar    1  UNL1        0.0294
     12 C         -11.9810  -16.1379   22.5272 C.ar    1  UNL1        0.1410
     13 F         -13.3027  -15.4688   22.7621 F       1  UNL1       -0.2041
     14 C         -11.5800  -17.3194   23.3599 C.ar    1  UNL1        0.0407
     15 C         -10.2581  -17.9885   23.1249 C.ar    1  UNL1        0.0566
     16 CL         -9.8571  -19.1699   23.9576 Cl      1  UNL1       -0.0825
     17 C          -6.8887  -16.5061   23.4937 C.2     1  UNL1        0.3389
     18 O          -6.2918  -15.1794   23.1286 O.2     1  UNL1       -0.2452
     19 C          -8.4897  -15.6011   25.3290 C.3     1  UNL1        0.2559
     20 O          -7.5832  -16.6786   24.8120 O.3     1  UNL1       -0.4415
     21 C          -9.1425  -19.7844   20.1511 C.1     1  UNL1        0.0976
     22 N         -10.3668  -20.2694   19.4330 N.1     1  UNL1       -0.1911
     23 C          -4.2452  -17.8443   23.0239 C.3     1  UNL1        0.1699
     24 N          -2.9732  -17.6105   22.2640 N.ar    1  UNL1       -0.2242
     25 C          -1.9684  -18.6572   21.8836 C.ar    1  UNL1        0.1976
     26 N          -0.8569  -17.9826   21.1356 N.ar    1  UNL1       -0.2007
     27 C          -1.1748  -16.5189   21.0537 C.ar    1  UNL1        0.2210
     28 N          -2.4828  -16.2890   21.7511 N.ar    1  UNL1       -0.1448
@<TRIPOS>BOND
     1    19    20    1
     2    20    17    1
     3    17    18    2
     4    17     1    1
     5     1     2    2
     6     2    23    1
     7    23    24    1
     8    24    25   ar
     9    25    26   ar
    10    26    27   ar
    11    27    28   ar
    12     2     3    1
    13     3     4    1
    14     4     5    1
    15     4     6    2
    16     6    21    1
    17    21    22    3
    18     6     7    1
    19     7     9    1
    20     9    10   ar
    21    10    11   ar
    22    11    12   ar
    23    12    13    1
    24    12    14   ar
    25    14    15   ar
    26    15    16    1
    27     7     1    1
    28    15     9   ar
    29    28    24   ar
    30     3     8    1
@<TRIPOS>MOLECULE
*****
 28 30 0 0 0
SMALL
GASTEIGER

@<TRIPOS>ATOM
      1 C           4.0650    1.0906   34.8075 C.2     1  UNL1        0.0731
      2 C           3.0898    2.1457   35.2383 C.2     1  UNL1        0.0529
      3 N           1.9843    2.5667   34.3161 N.pl3   1  UNL1       -0.3173
      4 C           1.8538    1.9325   32.9631 C.2     1  UNL1        0.0317
      5 C           0.7483    2.3535   32.0409 C.3     1  UNL1        0.0475
      6 C           2.8290    0.8774   32.5322 C.2     1  UNL1        0.0635
      7 C           3.9346    0.4564   33.4544 C.3     1  UNL1        0.0855
      8 H           1.3442    3.2592   34.5990 H       1  UNL1        0.1517
      9 C           4.9098   -0.5988   33.0235 C.ar    1  UNL1       -0.0026
     10 C           4.5901   -2.0484   33.2390 C.ar    1  UNL1       -0.0005
     11 C           5.5652   -3.1036   32.8081 C.ar    1  UNL1        0.0294
     12 C           6.8601   -2.7091   32.1617 C.ar    1  UNL1        0.1410
     13 F           7.8352   -3.7643   31.7308 F       1  UNL1       -0.2041
     14 C           7.1798   -1.2595   31.9462 C.ar    1  UNL1        0.0407
     15 C           6.2046   -0.2043   32.3771 C.ar    1  UNL1        0.0566
     16 CL          6.5243    1.2453   32.1616 Cl      1  UNL1       -0.0825
     17 C           5.1706    0.6696   35.7297 C.2     1  UNL1        0.3389
     18 O           5.0074   -0.5491   36.5889 O.2     1  UNL1       -0.2452
     19 C           7.7627    0.7879   35.5996 C.3     1  UNL1        0.2559
     20 O           6.4393    1.4672   35.7927 O.3     1  UNL1       -0.4415
     21 C           2.6986    0.2432   31.1791 C.1     1  UNL1        0.0976
     22 N           2.5682   -0.3910   29.8261 N.1     1  UNL1       -0.1911
     23 C           3.2202    2.7799   36.5915 C.3     1  UNL1        0.1699
     24 N           2.3863    2.2843   37.7355 N.ar    1  UNL1       -0.2242
     25 C           2.7047    1.1123   38.6158 C.ar    1  UNL1        0.1976
     26 N           1.6028    0.9773   39.6245 N.ar    1  UNL1       -0.2007
     27 C           0.6033    2.0660   39.3677 C.ar    1  UNL1        0.2210
     28 N           1.0876    2.8737   38.2002 N.ar    1  UNL1       -0.1448
@<TRIPOS>BOND
     1    19    20    1
     2    20    17    1
     3    17    18    2
     4    17     1    1
     5     1     2    2
     6     2    23    1
     7    23    24    1
     8    24    25   ar
     9    25    26   ar
    10    26    27   ar
    11    27    28   ar
    12     2     3    1
    13     3     4    1
    14     4     5    1
    15     4     6    2
    16     6    21    1
    17    21    22    3
    18     6     7    1
    19     7     9    1
    20     9    10   ar
    21    10    11   ar
    22    11    12   ar
    23    12    13    1
    24    12    14   ar
    25    14    15   ar
    26    15    16    1
    27     7     1    1
    28    15     9   ar
    29    28    24   ar
    30     3     8    1
@<TRIPOS>MOLECULE
*****
 28 30 0 0 0
SMALL
GASTEIGER

@<TRIPOS>ATOM
      1 C          -9.0582  -17.8496   21.9018 C.2     1  UNL1        0.0731
      2 C          -9.9855  -16.8906   22.5875 C.2     1  UNL1        0.0529
      3 N          -9.4411  -15.8856   23.5589 N.pl3   1  UNL1       -0.3173
      4 C          -7.9693  -15.8396   23.8446 C.2     1  UNL1        0.0317
      5 C          -7.4249  -14.8346   24.8159 C.3     1  UNL1        0.0475
      6 C          -7.0419  -16.7986   23.1588 C.2     1  UNL1        0.0635
      7 C          -7.5864  -17.8036   22.1875 C.3     1  UNL1        0.0855
      8 H         -10.0498  -15.2562   24.0090 H       1  UNL1        0.1517
      9 C          -6.6589  -18.7626   21.5017 C.ar    1  UNL1       -0.0026
     10 C          -5.7550  -18.2787   20.4068 C.ar    1  UNL1       -0.0005
     11 C          -4.8276  -19.2376   19.7211 C.ar    1  UNL1        0.0294
     12 C          -4.8040  -20.6806   20.1303 C.ar    1  UNL1        0.1410
     13 F          -3.8766  -21.6395   19.4446 F       1  UNL1       -0.2041
     14 C          -5.7078  -21.1645   21.2252 C.ar    1  UNL1        0.0407
     15 C          -6.6353  -20.2055   21.9109 C.ar    1  UNL1        0.0566
     16 CL         -7.5392  -20.6894   23.0059 Cl      1  UNL1       -0.0825
     17 C          -9.6026  -18.8546   20.9305 C.2     1  UNL1        0.3389
     18 O         -10.5022  -19.9534   21.4134 O.2     1  UNL1       -0.2452
     19 C          -8.7575  -19.9749   18.7440 C.3     1  UNL1        0.2559
     20 O          -9.2474  -18.7608   19.4762 O.3     1  UNL1       -0.4415
     21 C          -5.5700  -16.7526   23.4445 C.1     1  UNL1        0.0976
     22 N          -4.0982  -16.7066   23.7301 N.1     1  UNL1       -0.1911
     23 C         -11.4574  -16.9366   22.3019 C.3     1  UNL1        0.1699
     24 N         -12.3925  -17.5768   23.2846 N.ar    1  UNL1       -0.2242
     25 C         -11.9974  -18.4601   24.4308 C.ar    1  UNL1        0.1976
     26 N         -13.2475  -18.8753   25.1482 N.ar    1  UNL1       -0.2007
     27 C         -14.4152  -18.2486   24.4455 C.ar    1  UNL1        0.2210
     28 N         -13.8868  -17.4461   23.2937 N.ar    1  UNL1       -0.1448
@<TRIPOS>BOND
     1    19    20    1
     2    20    17    1
     3    17    18    2
     4    17     1    1
     5     1     2    2
     6     2    23    1
     7    23    24    1
     8    24    25   ar
     9    25    26   ar
    10    26    27   ar
    11    27    28   ar
    12     2     3    1
    13     3     4    1
    14     4     5    1
    15     4     6    2
    16     6    21    1
    17    21    22    3
    18     6     7    1
    19     7     9    1
    20     9    10   ar
    21    10    11   ar
    22    11    12   ar
    23    12    13    1
    24    12    14   ar
    25    14    15   ar
    26    15    16    1
    27     7     1    1
    28    15     9   ar
    29    28    24   ar
    30     3     8    1
@<TRIPOS>MOLECULE
*****
 28 30 0 0 0
SMALL
GASTEIGER

@<TRIPOS>ATOM
      1 C           4.2466   -2.0275   21.8973 C.2     1  UNL1        0.0731
      2 C           4.9455   -2.8106   22.9688 C.2     1  UNL1        0.0529
      3 N           4.7401   -2.4560   24.4118 N.pl3   1  UNL1       -0.3173
      4 C           3.8357   -1.3184   24.7832 C.2     1  UNL1        0.0317
      5 C           3.6303   -0.9639   26.2261 C.3     1  UNL1        0.0475
      6 C           3.1368   -0.5354   23.7116 C.2     1  UNL1        0.0635
      7 C           3.3423   -0.8899   22.2687 C.3     1  UNL1        0.0855
      8 H           5.1988   -2.9700   25.1151 H       1  UNL1        0.1517
      9 C           2.6433   -0.1068   21.1971 C.ar    1  UNL1       -0.0026
     10 C           1.2625   -0.4988   20.7614 C.ar    1  UNL1       -0.0005
     11 C           0.5636    0.2843   19.6898 C.ar    1  UNL1        0.0294
     12 C           1.2454    1.4594   19.0540 C.ar    1  UNL1        0.1410
     13 F           0.5464    2.2425   17.9824 F       1  UNL1       -0.2041
     14 C           2.6261    1.8514   19.4897 C.ar    1  UNL1        0.0407
     15 C           3.3251    1.0683   20.5612 C.ar    1  UNL1        0.0566
     16 CL          4.7059    1.4603   20.9969 Cl      1  UNL1       -0.0825
     17 C           4.4521   -2.3820   20.4543 C.2     1  UNL1        0.3389
     18 O           5.6431   -1.8504   19.7136 O.2     1  UNL1       -0.2452
     19 C           3.8419   -4.6776   19.4018 C.3     1  UNL1        0.2559
     20 O           3.4665   -3.2682   19.7521 O.3     1  UNL1       -0.4415
     21 C           2.2324    0.6023   24.0830 C.1     1  UNL1        0.0976
     22 N           1.3281    1.7399   24.4543 N.1     1  UNL1       -0.1911
     23 C           5.8499   -3.9482   22.5975 C.3     1  UNL1        0.1699
     24 N           6.8466   -4.4689   23.5902 N.ar    1  UNL1       -0.2242
     25 C           8.2034   -5.0223   23.2699 C.ar    1  UNL1        0.1976
     26 N           8.8568   -5.4230   24.5593 N.ar    1  UNL1       -0.2007
     27 C           7.9037   -5.1173   25.6766 C.ar    1  UNL1        0.2210
     28 N           6.6613   -4.5276   25.0776 N.ar    1  UNL1       -0.1448
@<TRIPOS>BOND
     1    19    20    1
     2    20    17    1
     3    17    18    2
     4    17     1    1
     5     1     2    2
     6     2    23    1
     7    23    24    1
     8    24    25   ar
     9    25    26   ar
    10    26    27   ar
    11    27    28   ar
    12     2     3    1
    13     3     4    1
    14     4     5    1
    15     4     6    2
    16     6    21    1
    17    21    22    3
    18     6     7    1
    19     7     9    1
    20     9    10   ar
    21    10    11   ar
    22    11    12   ar
    23    12    13    1
    24    12    14   ar
    25    14    15   ar
    26    15    16    1
    27     7     1    1
    28    15     9   ar
    29    28    24   ar
    30     3     8    1
@<TRIPOS>MOLECULE
*****
 28 30 0 0 0
SMALL
GASTEIGER

@<TRIPOS>ATOM
      1 C           4.0658   -2.0747   21.5646 C.2     1  UNL1        0.0731
      2 C           4.7677   -2.9354   22.5727 C.2     1  UNL1        0.0529
      3 N           4.6681   -2.6121   24.0341 N.pl3   1  UNL1       -0.3173
      4 C           3.8665   -1.4281   24.4874 C.2     1  UNL1        0.0317
      5 C           3.7669   -1.1048   25.9487 C.3     1  UNL1        0.0475
      6 C           3.1646   -0.5673   23.4793 C.2     1  UNL1        0.0635
      7 C           3.2642   -0.8906   22.0179 C.3     1  UNL1        0.0855
      8 H           5.1288   -3.1771   24.6957 H       1  UNL1        0.1517
      9 C           2.5622   -0.0298   21.0098 C.ar    1  UNL1       -0.0026
     10 C           1.1436   -0.3297   20.6256 C.ar    1  UNL1       -0.0005
     11 C           0.4416    0.5311   19.6176 C.ar    1  UNL1        0.0294
     12 C           1.1582    1.6918   18.9936 C.ar    1  UNL1        0.1410
     13 F           0.4562    2.5526   17.9855 F       1  UNL1       -0.2041
     14 C           2.5768    1.9917   19.3778 C.ar    1  UNL1        0.0407
     15 C           3.2788    1.1309   20.3859 C.ar    1  UNL1        0.0566
     16 CL          4.6974    1.4308   20.7701 Cl      1  UNL1       -0.0825
     17 C           4.1654   -2.3979   20.1033 C.2     1  UNL1        0.3389
     18 O           3.1784   -3.3356   19.4736 O.2     1  UNL1       -0.2452
     19 C           6.0442   -2.6355   18.3246 C.3     1  UNL1        0.2559
     20 O           5.2520   -1.7836   19.2716 O.3     1  UNL1       -0.4415
     21 C           2.3630    0.6168   23.9325 C.1     1  UNL1        0.0976
     22 N           1.5614    1.8009   24.3857 N.1     1  UNL1       -0.1911
     23 C           5.5693   -4.1195   22.1195 C.3     1  UNL1        0.1699
     24 N           6.9993   -3.9421   21.7027 N.ar    1  UNL1       -0.2242
     25 C           7.7612   -2.6501   21.6941 C.ar    1  UNL1        0.1976
     26 N           9.1512   -2.9350   21.2074 N.ar    1  UNL1       -0.2007
     27 C           9.2483   -4.4031   20.9153 C.ar    1  UNL1        0.2210
     28 N           7.9183   -5.0255   21.2215 N.ar    1  UNL1       -0.1448
@<TRIPOS>BOND
     1    19    20    1
     2    20    17    1
     3    17    18    2
     4    17     1    1
     5     1     2    2
     6     2    23    1
     7    23    24    1
     8    24    25   ar
     9    25    26   ar
    10    26    27   ar
    11    27    28   ar
    12     2     3    1
    13     3     4    1
    14     4     5    1
    15     4     6    2
    16     6    21    1
    17    21    22    3
    18     6     7    1
    19     7     9    1
    20     9    10   ar
    21    10    11   ar
    22    11    12   ar
    23    12    13    1
    24    12    14   ar
    25    14    15   ar
    26    15    16    1
    27     7     1    1
    28    15     9   ar
    29    28    24   ar
    30     3     8    1
