@<TRIPOS>MOLECULE
*****
 32 36 0 0 0
SMALL
GASTEIGER

@<TRIPOS>ATOM
      1 C         -14.7555   -0.0714   19.0457 C.ar    1  UNL1        0.1667
      2 N         -14.3792   -1.5000   18.7862 N.ar    1  UNL1       -0.2221
      3 C         -13.0477   -1.5106   18.0956 C.ar    1  UNL1        0.1309
      4 C         -12.1843   -2.6314   17.5975 C.ar    1  UNL1        0.0810
      5 C         -10.8742   -2.3301   16.9320 C.ar    1  UNL1        0.0895
      6 CL        -10.0107   -3.4510   16.4339 Cl      1  UNL1       -0.0793
      7 C         -10.4276   -0.9080   16.7647 C.ar    1  UNL1        0.0863
      8 N         -11.2910    0.2128   17.2627 N.ar    1  UNL1       -0.3354
      9 C         -12.6011   -0.0884   17.9282 C.ar    1  UNL1        0.1613
     10 N         -13.6566    0.8011   18.5154 N.ar    1  UNL1       -0.2080
     11 H         -10.9978    1.1462   17.1529 H       1  UNL1        0.1675
     12 C         -17.3243   -1.9230   19.8345 C.3     1  UNL1        0.0541
     13 C         -17.1911   -0.4493   20.0800 C.ar    1  UNL1        0.0834
     14 N         -18.2154    0.4321   20.7312 N.ar    1  UNL1       -0.1735
     15 N         -17.6677    1.8280   20.7712 N.ar    1  UNL1       -0.2476
     16 C         -18.3609    3.0312   21.3381 C.3     1  UNL1        0.1538
     17 C         -16.3049    1.8093   20.1446 C.ar    1  UNL1        0.0994
     18 C         -16.0104    0.4019   19.7175 C.ar    1  UNL1        0.0698
     19 N         -12.6309   -4.0536   17.7649 N.pl3   1  UNL1       -0.3027
     20 C         -12.3046   -4.7988   19.0251 C.3     1  UNL1        0.1082
     21 C         -12.7513   -6.2210   19.1924 C.3     1  UNL1        0.0941
     22 N         -13.5241   -6.8979   18.0995 N.3     1  UNL1       -0.2660
     23 C         -13.8504   -6.1527   16.8393 C.3     1  UNL1        0.0941
     24 C         -13.4038   -4.7305   16.6720 C.3     1  UNL1        0.1082
     25 C         -13.9707   -8.3201   18.2668 C.3     1  UNL1        0.0992
     26 C         -15.3767   -8.6191   18.6958 C.ar    1  UNL1       -0.0061
     27 C         -16.1543   -7.6028   19.4783 C.ar    1  UNL1       -0.0021
     28 C         -17.5602   -7.9018   19.9074 C.ar    1  UNL1        0.0111
     29 C         -18.1884   -9.2172   19.5539 C.ar    1  UNL1        0.0577
     30 CL        -19.5943   -9.5163   19.9829 Cl      1  UNL1       -0.0822
     31 C         -17.4108  -10.2336   18.7714 C.ar    1  UNL1        0.0111
     32 C         -16.0049   -9.9346   18.3424 C.ar    1  UNL1       -0.0021
@<TRIPOS>BOND
     1    12    13    1
     2    13    14   ar
     3    14    15   ar
     4    15    16    1
     5    15    17   ar
     6    17    18   ar
     7    18     1    1
     8     1     2   ar
     9     2     3   ar
    10     3     4   ar
    11     4    19    1
    12    19    20    1
    13    20    21    1
    14    21    22    1
    15    22    25    1
    16    25    26    1
    17    26    27   ar
    18    27    28   ar
    19    28    29   ar
    20    29    30    1
    21    29    31   ar
    22    31    32   ar
    23    22    23    1
    24    23    24    1
    25     4     5   ar
    26     5     6    1
    27     5     7   ar
    28     7     8   ar
    29     8     9   ar
    30     9    10   ar
    31    18    13   ar
    32    10     1   ar
    33     9     3    1
    34    24    19    1
    35    32    26   ar
    36     8    11    1
@<TRIPOS>MOLECULE
*****
 32 36 0 0 0
SMALL
GASTEIGER

@<TRIPOS>ATOM
      1 C           3.1982    2.4146   35.8041 C.ar    1  UNL1        0.1667
      2 N           3.8655    1.4003   34.9232 N.ar    1  UNL1       -0.2221
      3 C           3.1056    1.3368   33.6314 C.ar    1  UNL1        0.1309
      4 C           3.3020    0.5171   32.3907 C.ar    1  UNL1        0.0810
      5 C           2.3615    0.6725   31.2325 C.ar    1  UNL1        0.0895
      6 CL          2.5579   -0.1472   29.9917 Cl      1  UNL1       -0.0793
      7 C           1.2246    1.6474   31.3151 C.ar    1  UNL1        0.0863
      8 N           1.0282    2.4671   32.5558 N.ar    1  UNL1       -0.3354
      9 C           1.9686    2.3118   33.7140 C.ar    1  UNL1        0.1613
     10 N           2.0259    2.9779   35.0568 N.ar    1  UNL1       -0.2080
     11 H           0.2820    3.1071   32.6100 H       1  UNL1        0.1675
     12 C           2.2682    0.9593   38.5729 C.3     1  UNL1        0.0541
     13 C           3.2002    2.1292   38.4618 C.ar    1  UNL1        0.0834
     14 N           3.8685    2.8356   39.6039 N.ar    1  UNL1       -0.1735
     15 N           4.7090    3.9412   39.0371 N.ar    1  UNL1       -0.2476
     16 C           5.5505    4.9013   39.8244 C.3     1  UNL1        0.1538
     17 C           4.5602    3.9181   37.5446 C.ar    1  UNL1        0.0994
     18 C           3.6277    2.7982   37.1891 C.ar    1  UNL1        0.0698
     19 N           4.4389   -0.4579   32.3080 N.pl3   1  UNL1       -0.3027
     20 C           4.2892   -1.8351   32.8833 C.3     1  UNL1        0.1082
     21 C           5.4261   -2.8100   32.8005 C.3     1  UNL1        0.0941
     22 N           6.7127   -2.4078   32.1426 N.3     1  UNL1       -0.2660
     23 C           6.8625   -1.0306   31.5674 C.3     1  UNL1        0.0941
     24 C           5.7255   -0.0556   31.6501 C.3     1  UNL1        0.1082
     25 C           7.8497   -3.3827   32.0599 C.3     1  UNL1        0.0992
     26 C           7.8730   -4.4173   30.9740 C.ar    1  UNL1       -0.0061
     27 C           8.9271   -5.4845   30.9773 C.ar    1  UNL1       -0.0021
     28 C           8.9506   -6.5190   29.8915 C.ar    1  UNL1        0.0111
     29 C           7.9198   -6.4863   28.8022 C.ar    1  UNL1        0.0577
     30 CL          7.9432   -7.5208   27.7162 Cl      1  UNL1       -0.0822
     31 C           6.8658   -5.4191   28.7988 C.ar    1  UNL1        0.0111
     32 C           6.8423   -4.3846   29.8847 C.ar    1  UNL1       -0.0021
@<TRIPOS>BOND
     1    12    13    1
     2    13    14   ar
     3    14    15   ar
     4    15    16    1
     5    15    17   ar
     6    17    18   ar
     7    18     1    1
     8     1     2   ar
     9     2     3   ar
    10     3     4   ar
    11     4    19    1
    12    19    20    1
    13    20    21    1
    14    21    22    1
    15    22    25    1
    16    25    26    1
    17    26    27   ar
    18    27    28   ar
    19    28    29   ar
    20    29    30    1
    21    29    31   ar
    22    31    32   ar
    23    22    23    1
    24    23    24    1
    25     4     5   ar
    26     5     6    1
    27     5     7   ar
    28     7     8   ar
    29     8     9   ar
    30     9    10   ar
    31    18    13   ar
    32    10     1   ar
    33     9     3    1
    34    24    19    1
    35    32    26   ar
    36     8    11    1
@<TRIPOS>MOLECULE
*****
 32 36 0 0 0
SMALL
GASTEIGER

@<TRIPOS>ATOM
      1 C           1.3044    1.5253   30.1338 C.ar    1  UNL1        0.1667
      2 N           2.4413    0.7029   30.6639 N.ar    1  UNL1       -0.2221
      3 C           2.6360    1.0578   32.1083 C.ar    1  UNL1        0.1309
      4 C           3.6076    0.5669   33.1402 C.ar    1  UNL1        0.0810
      5 C           3.5626    1.1178   34.5348 C.ar    1  UNL1        0.0895
      6 CL          4.5343    0.6270   35.5668 Cl      1  UNL1       -0.0793
      7 C           2.5460    2.1594   34.8972 C.ar    1  UNL1        0.0863
      8 N           1.5743    2.6502   33.8653 N.ar    1  UNL1       -0.3354
      9 C           1.6193    2.0994   32.4708 C.ar    1  UNL1        0.1613
     10 N           0.7963    2.3884   31.2505 N.ar    1  UNL1       -0.2080
     11 H           0.9071    3.3339   34.1032 H       1  UNL1        0.1675
     12 C          -1.3282   -0.1189   29.1260 C.3     1  UNL1        0.0541
     13 C          -0.4407    0.7349   28.2697 C.ar    1  UNL1        0.0834
     14 N          -0.6075    0.9828   26.7997 N.ar    1  UNL1       -0.1735
     15 N           0.4995    1.8919   26.3544 N.ar    1  UNL1       -0.2476
     16 C           0.7173    2.3981   24.9594 C.3     1  UNL1        0.1538
     17 C           1.3505    2.2057   27.5492 C.ar    1  UNL1        0.0994
     18 C           0.7694    1.4907   28.7329 C.ar    1  UNL1        0.0698
     19 N           4.6243   -0.4747   32.7778 N.pl3   1  UNL1       -0.3027
     20 C           5.9145   -0.0696   32.1288 C.3     1  UNL1        0.1082
     21 C           6.9311   -1.1113   31.7664 C.3     1  UNL1        0.0941
     22 N           6.6575   -2.5580   32.0530 N.3     1  UNL1       -0.2660
     23 C           5.3674   -2.9631   32.7020 C.3     1  UNL1        0.0941
     24 C           4.3507   -1.9214   33.0644 C.3     1  UNL1        0.1082
     25 C           7.6742   -3.5997   31.6906 C.3     1  UNL1        0.0992
     26 C           7.5142   -4.3974   30.4303 C.ar    1  UNL1       -0.0061
     27 C           8.1876   -5.7310   30.2962 C.ar    1  UNL1       -0.0021
     28 C           8.0277   -6.5287   29.0360 C.ar    1  UNL1        0.0111
     29 C           7.1943   -5.9927   27.9099 C.ar    1  UNL1        0.0577
     30 CL          7.0343   -6.7903   26.6496 Cl      1  UNL1       -0.0822
     31 C           6.5209   -4.6591   28.0440 C.ar    1  UNL1        0.0111
     32 C           6.6808   -3.8614   29.3041 C.ar    1  UNL1       -0.0021
@<TRIPOS>BOND
     1    12    13    1
     2    13    14   ar
     3    14    15   ar
     4    15    16    1
     5    15    17   ar
     6    17    18   ar
     7    18     1    1
     8     1     2   ar
     9     2     3   ar
    10     3     4   ar
    11     4    19    1
    12    19    20    1
    13    20    21    1
    14    21    22    1
    15    22    25    1
    16    25    26    1
    17    26    27   ar
    18    27    28   ar
    19    28    29   ar
    20    29    30    1
    21    29    31   ar
    22    31    32   ar
    23    22    23    1
    24    23    24    1
    25     4     5   ar
    26     5     6    1
    27     5     7   ar
    28     7     8   ar
    29     8     9   ar
    30     9    10   ar
    31    18    13   ar
    32    10     1   ar
    33     9     3    1
    34    24    19    1
    35    32    26   ar
    36     8    11    1
@<TRIPOS>MOLECULE
*****
 32 36 0 0 0
SMALL
GASTEIGER

@<TRIPOS>ATOM
      1 C          -0.0660    1.7964   26.8483 C.ar    1  UNL1        0.1667
      2 N           0.4592    1.7476   25.4442 N.ar    1  UNL1       -0.2221
      3 C          -0.5028    2.4885   24.5635 C.ar    1  UNL1        0.1309
      4 C          -0.5038    2.7672   23.0896 C.ar    1  UNL1        0.0810
      5 C          -1.6247    3.5525   22.4756 C.ar    1  UNL1        0.0895
      6 CL         -1.6257    3.8313   21.0017 Cl      1  UNL1       -0.0793
      7 C          -2.7445    4.0591   23.3354 C.ar    1  UNL1        0.0863
      8 N          -2.7435    3.7804   24.8093 N.ar    1  UNL1       -0.3354
      9 C          -1.6226    2.9950   25.4233 C.ar    1  UNL1        0.1613
     10 N          -1.3527    2.5673   26.8355 N.ar    1  UNL1       -0.2080
     11 H          -3.4785    4.1128   25.3737 H       1  UNL1        0.1675
     12 C          -1.3596   -0.5181   28.7507 C.3     1  UNL1        0.0541
     13 C          -0.0130    0.1182   28.9282 C.ar    1  UNL1        0.0834
     14 N           0.9755   -0.1976   30.0113 N.ar    1  UNL1       -0.1735
     15 N           2.1812    0.6710   29.8063 N.ar    1  UNL1       -0.2476
     16 C           3.4137    0.6846   30.6610 C.3     1  UNL1        0.1538
     17 C           1.9377    1.5237   28.5964 C.ar    1  UNL1        0.0994
     18 C           0.5817    1.1821   28.0538 C.ar    1  UNL1        0.0698
     19 N           0.6160    2.2606   22.2296 N.pl3   1  UNL1       -0.3027
     20 C           0.3966    1.0795   21.3315 C.3     1  UNL1        0.1082
     21 C           1.5164    0.5730   20.4716 C.3     1  UNL1        0.0941
     22 N           2.8556    1.2476   20.5099 N.3     1  UNL1       -0.2660
     23 C           3.0750    2.4287   21.4081 C.3     1  UNL1        0.0941
     24 C           1.9552    2.9352   22.2680 C.3     1  UNL1        0.1082
     25 C           3.9755    0.7411   19.6500 C.3     1  UNL1        0.0992
     26 C           4.1566   -0.7340   19.4464 C.ar    1  UNL1       -0.0061
     27 C           3.7962   -1.6922   20.5427 C.ar    1  UNL1       -0.0021
     28 C           3.9773   -3.1672   20.3392 C.ar    1  UNL1        0.0111
     29 C           4.5189   -3.6840   19.0394 C.ar    1  UNL1        0.0577
     30 CL          4.7000   -5.1590   18.8358 Cl      1  UNL1       -0.0822
     31 C           4.8793   -2.7258   17.9431 C.ar    1  UNL1        0.0111
     32 C           4.6982   -1.2508   18.1466 C.ar    1  UNL1       -0.0021
@<TRIPOS>BOND
     1    12    13    1
     2    13    14   ar
     3    14    15   ar
     4    15    16    1
     5    15    17   ar
     6    17    18   ar
     7    18     1    1
     8     1     2   ar
     9     2     3   ar
    10     3     4   ar
    11     4    19    1
    12    19    20    1
    13    20    21    1
    14    21    22    1
    15    22    25    1
    16    25    26    1
    17    26    27   ar
    18    27    28   ar
    19    28    29   ar
    20    29    30    1
    21    29    31   ar
    22    31    32   ar
    23    22    23    1
    24    23    24    1
    25     4     5   ar
    26     5     6    1
    27     5     7   ar
    28     7     8   ar
    29     8     9   ar
    30     9    10   ar
    31    18    13   ar
    32    10     1   ar
    33     9     3    1
    34    24    19    1
    35    32    26   ar
    36     8    11    1
@<TRIPOS>MOLECULE
*****
 32 36 0 0 0
SMALL
GASTEIGER

@<TRIPOS>ATOM
      1 C           4.1115   -1.0742   28.1686 C.ar    1  UNL1        0.1667
      2 N           4.3857   -1.3877   26.7276 N.ar    1  UNL1       -0.2221
      3 C           5.7979   -1.8822   26.6214 C.ar    1  UNL1        0.1309
      4 C           6.6160   -2.3386   25.4500 C.ar    1  UNL1        0.0810
      5 C           8.0328   -2.7872   25.6540 C.ar    1  UNL1        0.0895
      6 CL          8.8511   -3.2436   24.4825 Cl      1  UNL1       -0.0793
      7 C           8.6314   -2.7792   27.0293 C.ar    1  UNL1        0.0863
      8 N           7.8132   -2.3228   28.2007 N.ar    1  UNL1       -0.3354
      9 C           6.3965   -1.8743   27.9968 C.ar    1  UNL1        0.1613
     10 N           5.3542   -1.3749   28.9530 N.ar    1  UNL1       -0.2080
     11 H           8.2061   -2.3176   29.1034 H       1  UNL1        0.1675
     12 C           3.3424   -0.8489   31.3320 C.3     1  UNL1        0.0541
     13 C           2.4677   -0.4481   30.1813 C.ar    1  UNL1        0.0834
     14 N           1.0859    0.1265   30.2826 N.ar    1  UNL1       -0.1735
     15 N           0.5853    0.3782   28.8911 N.ar    1  UNL1       -0.2476
     16 C          -0.7527    0.9488   28.5252 C.3     1  UNL1        0.1538
     17 C           1.6579   -0.0410   27.9298 C.ar    1  UNL1        0.0994
     18 C           2.8212   -0.5517   28.7272 C.ar    1  UNL1        0.0698
     19 N           6.0175   -2.3466   24.0746 N.pl3   1  UNL1       -0.3027
     20 C           5.3345   -3.5793   23.5610 C.3     1  UNL1        0.1082
     21 C           4.7360   -3.5871   22.1856 C.3     1  UNL1        0.0941
     22 N           4.8205   -2.3623   21.3238 N.3     1  UNL1       -0.2660
     23 C           5.5035   -1.1296   21.8374 C.3     1  UNL1        0.0941
     24 C           6.1020   -1.1217   23.2128 C.3     1  UNL1        0.1082
     25 C           4.2220   -2.3702   19.9484 C.3     1  UNL1        0.0992
     26 C           3.2883   -1.2730   19.5305 C.ar    1  UNL1       -0.0061
     27 C           3.7120   -0.2857   18.4837 C.ar    1  UNL1       -0.0021
     28 C           2.7784    0.8114   18.0658 C.ar    1  UNL1        0.0111
     29 C           1.4210    0.9211   18.6946 C.ar    1  UNL1        0.0577
     30 CL          0.4873    2.0182   18.2767 Cl      1  UNL1       -0.0822
     31 C           0.9973   -0.0662   19.7413 C.ar    1  UNL1        0.0111
     32 C           1.9309   -1.1633   20.1593 C.ar    1  UNL1       -0.0021
@<TRIPOS>BOND
     1    12    13    1
     2    13    14   ar
     3    14    15   ar
     4    15    16    1
     5    15    17   ar
     6    17    18   ar
     7    18     1    1
     8     1     2   ar
     9     2     3   ar
    10     3     4   ar
    11     4    19    1
    12    19    20    1
    13    20    21    1
    14    21    22    1
    15    22    25    1
    16    25    26    1
    17    26    27   ar
    18    27    28   ar
    19    28    29   ar
    20    29    30    1
    21    29    31   ar
    22    31    32   ar
    23    22    23    1
    24    23    24    1
    25     4     5   ar
    26     5     6    1
    27     5     7   ar
    28     7     8   ar
    29     8     9   ar
    30     9    10   ar
    31    18    13   ar
    32    10     1   ar
    33     9     3    1
    34    24    19    1
    35    32    26   ar
    36     8    11    1
@<TRIPOS>MOLECULE
*****
 32 36 0 0 0
SMALL
GASTEIGER

@<TRIPOS>ATOM
      1 C           1.4356    0.8409   23.1945 C.ar    1  UNL1        0.1667
      2 N           2.5514    0.0899   22.5304 N.ar    1  UNL1       -0.2221
      3 C           2.3615    0.1945   21.0462 C.ar    1  UNL1        0.1309
      4 C           3.1523   -0.3476   19.8926 C.ar    1  UNL1        0.0810
      5 C           2.7098   -0.0741   18.4856 C.ar    1  UNL1        0.0895
      6 CL          3.5005   -0.6162   17.3319 Cl      1  UNL1       -0.0793
      7 C           1.4767    0.7414   18.2324 C.ar    1  UNL1        0.0863
      8 N           0.6859    1.2835   19.3860 N.ar    1  UNL1       -0.3354
      9 C           1.1284    1.0100   20.7929 C.ar    1  UNL1        0.1613
     10 N           0.5561    1.4095   22.1206 N.ar    1  UNL1       -0.2080
     11 H          -0.1235    1.8188   19.2197 H       1  UNL1        0.1675
     12 C           3.7811    0.8090   25.4631 C.3     1  UNL1        0.0541
     13 C           2.3127    0.9813   25.7156 C.ar    1  UNL1        0.0834
     14 N           1.6645    1.1692   27.0552 N.ar    1  UNL1       -0.1735
     15 N           0.1857    1.3000   26.8404 N.ar    1  UNL1       -0.2476
     16 C          -0.8461    1.5023   27.9101 C.3     1  UNL1        0.1538
     17 C          -0.0801    1.1929   25.3679 C.ar    1  UNL1        0.0994
     18 C           1.2345    0.9960   24.6728 C.ar    1  UNL1        0.0698
     19 N           4.3855   -1.1632   20.1458 N.pl3   1  UNL1       -0.3027
     20 C           4.3116   -2.6612   20.1238 C.3     1  UNL1        0.1082
     21 C           5.5448   -3.4767   20.3770 C.3     1  UNL1        0.0941
     22 N           6.8519   -2.7941   20.6522 N.3     1  UNL1       -0.2660
     23 C           6.9258   -1.2962   20.6742 C.3     1  UNL1        0.0941
     24 C           5.6925   -0.4807   20.4210 C.3     1  UNL1        0.1082
     25 C           8.0851   -3.6096   20.9054 C.3     1  UNL1        0.0992
     26 C           8.1004   -4.6226   22.0117 C.ar    1  UNL1       -0.0061
     27 C           8.8347   -5.9182   21.8322 C.ar    1  UNL1       -0.0021
     28 C           8.8500   -6.9311   22.9384 C.ar    1  UNL1        0.0111
     29 C           8.1310   -6.6484   24.2242 C.ar    1  UNL1        0.0577
     30 CL          8.1463   -7.6613   25.3304 Cl      1  UNL1       -0.0822
     31 C           7.3967   -5.3528   24.4036 C.ar    1  UNL1        0.0111
     32 C           7.3814   -4.3399   23.2975 C.ar    1  UNL1       -0.0021
@<TRIPOS>BOND
     1    12    13    1
     2    13    14   ar
     3    14    15   ar
     4    15    16    1
     5    15    17   ar
     6    17    18   ar
     7    18     1    1
     8     1     2   ar
     9     2     3   ar
    10     3     4   ar
    11     4    19    1
    12    19    20    1
    13    20    21    1
    14    21    22    1
    15    22    25    1
    16    25    26    1
    17    26    27   ar
    18    27    28   ar
    19    28    29   ar
    20    29    30    1
    21    29    31   ar
    22    31    32   ar
    23    22    23    1
    24    23    24    1
    25     4     5   ar
    26     5     6    1
    27     5     7   ar
    28     7     8   ar
    29     8     9   ar
    30     9    10   ar
    31    18    13   ar
    32    10     1   ar
    33     9     3    1
    34    24    19    1
    35    32    26   ar
    36     8    11    1
@<TRIPOS>MOLECULE
*****
 32 36 0 0 0
SMALL
GASTEIGER

@<TRIPOS>ATOM
      1 C           3.6288   -1.1285   23.1670 C.ar    1  UNL1        0.1667
      2 N           2.7848   -0.2690   24.0607 N.ar    1  UNL1       -0.2221
      3 C           3.2083   -0.5180   25.4780 C.ar    1  UNL1        0.1309
      4 C           2.7299    0.0471   26.7825 C.ar    1  UNL1        0.0810
      5 C           3.3573   -0.4012   28.0691 C.ar    1  UNL1        0.0895
      6 CL          2.8789    0.1640   29.3737 Cl      1  UNL1       -0.0793
      7 C           4.4630   -1.4145   28.0513 C.ar    1  UNL1        0.0863
      8 N           4.9414   -1.9797   26.7468 N.ar    1  UNL1       -0.3354
      9 C           4.3141   -1.5314   25.4601 C.ar    1  UNL1        0.1613
     10 N           4.5740   -1.9087   24.0318 N.ar    1  UNL1       -0.2080
     11 H           5.6672   -2.6448   26.7351 H       1  UNL1        0.1675
     12 C           4.4176   -3.6965   21.3142 C.3     1  UNL1        0.0541
     13 C           3.9054   -2.3764   20.8194 C.ar    1  UNL1        0.0834
     14 N           3.6658   -2.0049   19.3860 N.ar    1  UNL1       -0.1735
     15 N           3.1552   -0.5949   19.3516 N.ar    1  UNL1       -0.2476
     16 C           2.7856    0.1792   18.1213 C.3     1  UNL1        0.1538
     17 C           3.0792   -0.0950   20.7639 C.ar    1  UNL1        0.0994
     18 C           3.5428   -1.1960   21.6710 C.ar    1  UNL1        0.0698
     19 N           1.6241    1.0606   26.8004 N.pl3   1  UNL1       -0.3027
     20 C           0.2456    0.6588   27.2342 C.3     1  UNL1        0.1082
     21 C          -0.8601    1.6723   27.2521 C.3     1  UNL1        0.0941
     22 N          -0.5872    3.0874   26.8362 N.3     1  UNL1       -0.2660
     23 C           0.7913    3.4892   26.4024 C.3     1  UNL1        0.0941
     24 C           1.8970    2.4757   26.3845 C.3     1  UNL1        0.1082
     25 C          -1.6929    4.1009   26.8541 C.3     1  UNL1        0.0992
     26 C          -2.8245    3.9938   25.8752 C.ar    1  UNL1       -0.0061
     27 C          -2.5425    3.6936   24.4328 C.ar    1  UNL1       -0.0021
     28 C          -3.6739    3.5865   23.4539 C.ar    1  UNL1        0.0111
     29 C          -5.0874    3.7795   23.9174 C.ar    1  UNL1        0.0577
     30 CL         -6.2189    3.6724   22.9385 Cl      1  UNL1       -0.0822
     31 C          -5.3694    4.0796   25.3597 C.ar    1  UNL1        0.0111
     32 C          -4.2380    4.1868   26.3387 C.ar    1  UNL1       -0.0021
@<TRIPOS>BOND
     1    12    13    1
     2    13    14   ar
     3    14    15   ar
     4    15    16    1
     5    15    17   ar
     6    17    18   ar
     7    18     1    1
     8     1     2   ar
     9     2     3   ar
    10     3     4   ar
    11     4    19    1
    12    19    20    1
    13    20    21    1
    14    21    22    1
    15    22    25    1
    16    25    26    1
    17    26    27   ar
    18    27    28   ar
    19    28    29   ar
    20    29    30    1
    21    29    31   ar
    22    31    32   ar
    23    22    23    1
    24    23    24    1
    25     4     5   ar
    26     5     6    1
    27     5     7   ar
    28     7     8   ar
    29     8     9   ar
    30     9    10   ar
    31    18    13   ar
    32    10     1   ar
    33     9     3    1
    34    24    19    1
    35    32    26   ar
    36     8    11    1
@<TRIPOS>MOLECULE
*****
 32 36 0 0 0
SMALL
GASTEIGER

@<TRIPOS>ATOM
      1 C           1.7134    0.8336   26.4810 C.ar    1  UNL1        0.1667
      2 N           2.7066    0.0501   25.6751 N.ar    1  UNL1       -0.2221
      3 C           2.3594    0.2142   24.2251 C.ar    1  UNL1        0.1309
      4 C           2.9870   -0.3279   22.9752 C.ar    1  UNL1        0.0810
      5 C           2.4068    0.0151   21.6351 C.ar    1  UNL1        0.0895
      6 CL          3.0344   -0.5270   20.3851 Cl      1  UNL1       -0.0793
      7 C           1.1991    0.9000   21.5449 C.ar    1  UNL1        0.0863
      8 N           0.5715    1.4421   22.7948 N.ar    1  UNL1       -0.3354
      9 C           1.1516    1.0992   24.1349 C.ar    1  UNL1        0.1613
     10 N           0.7524    1.4820   25.5292 N.ar    1  UNL1       -0.2080
     11 H          -0.2212    2.0229   22.7356 H       1  UNL1        0.1675
     12 C          -0.7067   -0.1505   28.4365 C.3     1  UNL1        0.0541
     13 C           0.5736    0.4963   28.8752 C.ar    1  UNL1        0.0834
     14 N           0.9663    0.8042   30.2897 N.ar    1  UNL1       -0.1735
     15 N           2.3214    1.4470   30.2652 N.ar    1  UNL1       -0.2476
     16 C           3.0957    1.9178   31.4604 C.3     1  UNL1        0.1538
     17 C           2.7662    1.5362   28.8354 C.ar    1  UNL1        0.0994
     18 C           1.6860    0.9486   27.9764 C.ar    1  UNL1        0.0698
     19 N           4.1948   -1.2129   23.0653 N.pl3   1  UNL1       -0.3027
     20 C           4.0696   -2.6826   22.7932 C.3     1  UNL1        0.1082
     21 C           5.2774   -3.5675   22.8834 C.3     1  UNL1        0.0941
     22 N           6.6104   -2.9827   23.2455 N.3     1  UNL1       -0.2660
     23 C           6.7356   -1.5129   23.5176 C.3     1  UNL1        0.0941
     24 C           5.5278   -0.6280   23.4274 C.3     1  UNL1        0.1082
     25 C           7.8182   -3.8676   23.3356 C.3     1  UNL1        0.0992
     26 C           7.8038   -5.0669   24.2366 C.ar    1  UNL1       -0.0061
     27 C           8.3250   -6.3833   23.7413 C.ar    1  UNL1       -0.0021
     28 C           8.3106   -7.5825   24.6421 C.ar    1  UNL1        0.0111
     29 C           7.7750   -7.4653   26.0383 C.ar    1  UNL1        0.0577
     30 CL          7.7605   -8.6645   26.9392 Cl      1  UNL1       -0.0822
     31 C           7.2537   -6.1489   26.5336 C.ar    1  UNL1        0.0111
     32 C           7.2681   -4.9497   25.6328 C.ar    1  UNL1       -0.0021
@<TRIPOS>BOND
     1    12    13    1
     2    13    14   ar
     3    14    15   ar
     4    15    16    1
     5    15    17   ar
     6    17    18   ar
     7    18     1    1
     8     1     2   ar
     9     2     3   ar
    10     3     4   ar
    11     4    19    1
    12    19    20    1
    13    20    21    1
    14    21    22    1
    15    22    25    1
    16    25    26    1
    17    26    27   ar
    18    27    28   ar
    19    28    29   ar
    20    29    30    1
    21    29    31   ar
    22    31    32   ar
    23    22    23    1
    24    23    24    1
    25     4     5   ar
    26     5     6    1
    27     5     7   ar
    28     7     8   ar
    29     8     9   ar
    30     9    10   ar
    31    18    13   ar
    32    10     1   ar
    33     9     3    1
    34    24    19    1
    35    32    26   ar
    36     8    11    1
@<TRIPOS>MOLECULE
*****
 32 36 0 0 0
SMALL
GASTEIGER

@<TRIPOS>ATOM
      1 C           2.1664    0.4660   28.5043 C.ar    1  UNL1        0.1667
      2 N           2.9264    0.5239   29.7962 N.ar    1  UNL1       -0.2221
      3 C           4.0763   -0.4345   29.7008 C.ar    1  UNL1        0.1309
      4 C           5.1620   -0.7991   30.6695 C.ar    1  UNL1        0.0810
      5 C           6.1984   -1.8139   30.2873 C.ar    1  UNL1        0.0895
      6 CL          7.2841   -2.1786   31.2561 Cl      1  UNL1       -0.0793
      7 C           6.1491   -2.4641   28.9365 C.ar    1  UNL1        0.0863
      8 N           5.0634   -2.0995   27.9678 N.ar    1  UNL1       -0.3354
      9 C           4.0270   -1.0847   28.3500 C.ar    1  UNL1        0.1613
     10 N           2.8466   -0.5281   27.6105 N.ar    1  UNL1       -0.2080
     11 H           5.0311   -2.5263   27.0812 H       1  UNL1        0.1675
     12 C          -0.9206   -0.5604   28.7621 C.3     1  UNL1        0.0541
     13 C          -0.4777    0.7906   28.2842 C.ar    1  UNL1        0.0834
     14 N          -1.3760    1.9070   27.8408 N.ar    1  UNL1       -0.1735
     15 N          -0.5123    3.0689   27.4483 N.ar    1  UNL1       -0.2476
     16 C          -0.9958    4.3961   26.9436 C.3     1  UNL1        0.1538
     17 C           0.9199    2.6705   27.6491 C.ar    1  UNL1        0.0994
     18 C           0.9412    1.2624   28.1657 C.ar    1  UNL1        0.0698
     19 N           5.2113   -0.1489   32.0204 N.pl3   1  UNL1       -0.3027
     20 C           4.5697   -0.8189   33.1991 C.3     1  UNL1        0.1082
     21 C           4.6191   -0.1686   34.5500 C.3     1  UNL1        0.0941
     22 N           5.3101    1.1516   34.7220 N.3     1  UNL1       -0.2660
     23 C           5.9518    1.8216   33.5433 C.3     1  UNL1        0.0941
     24 C           5.9023    1.1713   32.1925 C.3     1  UNL1        0.1082
     25 C           5.3595    1.8018   36.0729 C.3     1  UNL1        0.0992
     26 C           4.1040    1.9502   36.8802 C.ar    1  UNL1       -0.0061
     27 C           3.7536    0.9247   37.9173 C.ar    1  UNL1       -0.0021
     28 C           2.4981    1.0731   38.7246 C.ar    1  UNL1        0.0111
     29 C           1.5931    2.2470   38.4948 C.ar    1  UNL1        0.0577
     30 CL          0.3376    2.3954   39.3021 Cl      1  UNL1       -0.0822
     31 C           1.9435    3.2725   37.4577 C.ar    1  UNL1        0.0111
     32 C           3.1989    3.1241   36.6504 C.ar    1  UNL1       -0.0021
@<TRIPOS>BOND
     1    12    13    1
     2    13    14   ar
     3    14    15   ar
     4    15    16    1
     5    15    17   ar
     6    17    18   ar
     7    18     1    1
     8     1     2   ar
     9     2     3   ar
    10     3     4   ar
    11     4    19    1
    12    19    20    1
    13    20    21    1
    14    21    22    1
    15    22    25    1
    16    25    26    1
    17    26    27   ar
    18    27    28   ar
    19    28    29   ar
    20    29    30    1
    21    29    31   ar
    22    31    32   ar
    23    22    23    1
    24    23    24    1
    25     4     5   ar
    26     5     6    1
    27     5     7   ar
    28     7     8   ar
    29     8     9   ar
    30     9    10   ar
    31    18    13   ar
    32    10     1   ar
    33     9     3    1
    34    24    19    1
    35    32    26   ar
    36     8    11    1
