@<TRIPOS>MOLECULE
*****
 29 31 0 0 0
SMALL
GASTEIGER

@<TRIPOS>ATOM
      1 C          -8.1842  -19.9917   19.7060 C.ar    1  UNL1       -0.0090
      2 C          -9.4603  -19.2130   19.8293 C.ar    1  UNL1       -0.0017
      3 C          -9.5439  -18.0556   20.7798 C.ar    1  UNL1        0.0199
      4 C          -8.3513  -17.6768   21.6070 C.ar    1  UNL1        0.1264
      5 C          -7.0752  -18.4555   21.4837 C.ar    1  UNL1        0.0342
      6 C          -6.9917  -19.6129   20.5332 C.ar    1  UNL1        0.0419
      7 S          -8.4349  -16.5194   22.5574 S.O2    1  UNL1        0.0736
      8 O          -8.0443  -15.5836   21.4522 O.2     1  UNL1       -0.1499
      9 O          -8.8254  -17.4553   23.6627 O.2     1  UNL1       -0.1499
     10 N          -8.5184  -15.3620   23.5079 N.pl3   1  UNL1       -0.2145
     11 H          -8.9742  -14.5330   23.2352 H       1  UNL1        0.1737
     12 C          -7.9076  -15.4676   24.8738 C.ar    1  UNL1        0.0709
     13 C          -8.7886  -15.5742   26.0832 C.ar    1  UNL1        0.0164
     14 C          -8.1778  -15.6798   27.4491 C.ar    1  UNL1        0.0013
     15 C          -6.6860  -15.6788   27.6057 C.ar    1  UNL1        0.0006
     16 C          -5.8050  -15.5722   26.3963 C.ar    1  UNL1        0.0080
     17 C          -6.4158  -15.4666   25.0304 C.ar    1  UNL1        0.0491
     18 BR         -5.5348  -15.3601   23.8211 Br      1  UNL1       -0.0477
     19 C          -9.0690  -21.2543   17.6149 C.3     1  UNL1        0.0051
     20 C          -8.1006  -21.1491   18.7555 C.3     1  UNL1        0.0276
     21 N          -5.7155  -20.3915   20.4100 N.pl3   1  UNL1       -0.3342
     22 H          -5.7410  -21.3748   20.3665 H       1  UNL1        0.1468
     23 C          -4.4005  -19.6722   20.3530 C.3     1  UNL1        0.0718
     24 C          -4.1169  -18.7154   19.2330 C.3     1  UNL1        0.0368
     25 C          -2.8019  -17.9960   19.1761 C.3     1  UNL1        0.0738
     26 N          -1.7705  -18.2333   20.2390 N.3     1  UNL1       -0.2714
     27 C          -0.4555  -17.5140   20.1820 C.3     1  UNL1        0.0896
     28 C          -2.0540  -19.1900   21.3589 C.3     1  UNL1        0.0738
     29 C          -3.3691  -19.9095   21.4159 C.3     1  UNL1        0.0368
@<TRIPOS>BOND
     1    19    20    1
     2    20     1    1
     3     1     2   ar
     4     2     3   ar
     5     3     4   ar
     6     4     7    1
     7     7     8    2
     8     7     9    2
     9     7    10    1
    10    10    12    1
    11    12    13   ar
    12    13    14   ar
    13    14    15   ar
    14    15    16   ar
    15    16    17   ar
    16    17    18    1
    17     4     5   ar
    18     5     6   ar
    19     6    21    1
    20    21    23    1
    21    23    24    1
    22    24    25    1
    23    25    26    1
    24    26    27    1
    25    26    28    1
    26    28    29    1
    27     6     1   ar
    28    29    23    1
    29    17    12   ar
    30    10    11    1
    31    21    22    1
@<TRIPOS>MOLECULE
*****
 29 31 0 0 0
SMALL
GASTEIGER

@<TRIPOS>ATOM
      1 C          -7.5628  -15.5070   26.2304 C.ar    1  UNL1       -0.0090
      2 C          -6.1831  -15.5455   26.8178 C.ar    1  UNL1       -0.0017
      3 C          -5.0126  -15.9228   25.9590 C.ar    1  UNL1        0.0199
      4 C          -5.2216  -16.2615   24.5129 C.ar    1  UNL1        0.1264
      5 C          -6.6013  -16.2230   23.9254 C.ar    1  UNL1        0.0342
      6 C          -7.7718  -15.8457   24.7842 C.ar    1  UNL1        0.0419
      7 S          -4.0511  -16.6387   23.6541 S.O2    1  UNL1        0.0736
      8 O          -4.2334  -15.3831   22.8540 O.2     1  UNL1       -0.1499
      9 O          -3.8688  -17.8944   24.4542 O.2     1  UNL1       -0.1499
     10 N          -2.8805  -17.0160   22.7953 N.pl3   1  UNL1       -0.2145
     11 H          -1.9854  -16.6607   22.9996 H       1  UNL1        0.1737
     12 C          -3.0738  -17.9345   21.6253 C.ar    1  UNL1        0.0709
     13 C          -4.1761  -18.9517   21.6444 C.ar    1  UNL1        0.0164
     14 C          -4.3694  -19.8702   20.4743 C.ar    1  UNL1        0.0013
     15 C          -3.4604  -19.7715   19.2852 C.ar    1  UNL1        0.0006
     16 C          -2.3581  -18.7543   19.2661 C.ar    1  UNL1        0.0080
     17 C          -2.1649  -17.8358   20.4361 C.ar    1  UNL1        0.0491
     18 BR         -1.0626  -16.8186   20.4170 Br      1  UNL1       -0.0477
     19 C          -8.5230  -14.3022   28.3224 C.3     1  UNL1        0.0051
     20 C          -8.7333  -15.1297   27.0892 C.3     1  UNL1        0.0276
     21 N          -9.1515  -15.8072   24.1967 N.pl3   1  UNL1       -0.3342
     22 H          -9.8049  -15.1445   24.5178 H       1  UNL1        0.1468
     23 C          -9.5356  -16.7784   23.1201 C.3     1  UNL1        0.0718
     24 C         -10.0261  -16.2741   21.7952 C.3     1  UNL1        0.0368
     25 C         -10.4102  -17.2453   20.7186 C.3     1  UNL1        0.0738
     26 N         -10.3038  -18.7208   20.9667 N.3     1  UNL1       -0.2714
     27 C         -10.6879  -19.6920   19.8901 C.3     1  UNL1        0.0896
     28 C          -9.8133  -19.2251   22.2915 C.3     1  UNL1        0.0738
     29 C          -9.4292  -18.2539   23.3682 C.3     1  UNL1        0.0368
@<TRIPOS>BOND
     1    19    20    1
     2    20     1    1
     3     1     2   ar
     4     2     3   ar
     5     3     4   ar
     6     4     7    1
     7     7     8    2
     8     7     9    2
     9     7    10    1
    10    10    12    1
    11    12    13   ar
    12    13    14   ar
    13    14    15   ar
    14    15    16   ar
    15    16    17   ar
    16    17    18    1
    17     4     5   ar
    18     5     6   ar
    19     6    21    1
    20    21    23    1
    21    23    24    1
    22    24    25    1
    23    25    26    1
    24    26    27    1
    25    26    28    1
    26    28    29    1
    27     6     1   ar
    28    29    23    1
    29    17    12   ar
    30    10    11    1
    31    21    22    1
@<TRIPOS>MOLECULE
*****
 29 31 0 0 0
SMALL
GASTEIGER

@<TRIPOS>ATOM
      1 C          -7.2653  -15.5045   25.7491 C.ar    1  UNL1       -0.0090
      2 C          -6.0085  -15.7559   26.5284 C.ar    1  UNL1       -0.0017
      3 C          -4.7756  -16.2430   25.8265 C.ar    1  UNL1        0.0199
      4 C          -4.7993  -16.4786   24.3454 C.ar    1  UNL1        0.1264
      5 C          -6.0561  -16.2271   23.5661 C.ar    1  UNL1        0.0342
      6 C          -7.2890  -15.7401   24.2679 C.ar    1  UNL1        0.0419
      7 S          -3.5664  -16.9656   23.6435 S.O2    1  UNL1        0.0736
      8 O          -3.7203  -15.8801   22.6198 O.2     1  UNL1       -0.1499
      9 O          -3.4124  -18.0511   24.6672 O.2     1  UNL1       -0.1499
     10 N          -2.3334  -17.4527   22.9417 N.pl3   1  UNL1       -0.2145
     11 H          -1.4868  -17.5389   23.4367 H       1  UNL1        0.1737
     12 C          -2.3903  -17.8083   21.4856 C.ar    1  UNL1        0.0709
     13 C          -1.4848  -17.1182   20.5090 C.ar    1  UNL1        0.0164
     14 C          -1.5418  -17.4739   19.0528 C.ar    1  UNL1        0.0013
     15 C          -2.5042  -18.5197   18.5733 C.ar    1  UNL1        0.0006
     16 C          -3.4097  -19.2098   19.5499 C.ar    1  UNL1        0.0080
     17 C          -3.3528  -18.8542   21.0060 C.ar    1  UNL1        0.0491
     18 BR         -4.2583  -19.5443   21.9826 Br      1  UNL1       -0.0477
     19 C          -8.4944  -14.8451   27.9409 C.3     1  UNL1        0.0051
     20 C          -8.4982  -15.0174   26.4509 C.3     1  UNL1        0.0276
     21 N          -8.5458  -15.4886   23.4885 N.pl3   1  UNL1       -0.3342
     22 H          -8.9213  -14.5798   23.4398 H       1  UNL1        0.1468
     23 C          -9.2304  -16.6217   22.7834 C.3     1  UNL1        0.0718
     24 C          -9.1737  -18.0063   23.3579 C.3     1  UNL1        0.0368
     25 C          -9.8583  -19.1394   22.6528 C.3     1  UNL1        0.0738
     26 N         -10.5998  -18.8881   21.3733 N.3     1  UNL1       -0.2714
     27 C         -11.2844  -20.0213   20.6682 C.3     1  UNL1        0.0896
     28 C         -10.6565  -17.5037   20.7989 C.3     1  UNL1        0.0738
     29 C          -9.9719  -16.3704   21.5039 C.3     1  UNL1        0.0368
@<TRIPOS>BOND
     1    19    20    1
     2    20     1    1
     3     1     2   ar
     4     2     3   ar
     5     3     4   ar
     6     4     7    1
     7     7     8    2
     8     7     9    2
     9     7    10    1
    10    10    12    1
    11    12    13   ar
    12    13    14   ar
    13    14    15   ar
    14    15    16   ar
    15    16    17   ar
    16    17    18    1
    17     4     5   ar
    18     5     6   ar
    19     6    21    1
    20    21    23    1
    21    23    24    1
    22    24    25    1
    23    25    26    1
    24    26    27    1
    25    26    28    1
    26    28    29    1
    27     6     1   ar
    28    29    23    1
    29    17    12   ar
    30    10    11    1
    31    21    22    1
@<TRIPOS>MOLECULE
*****
 29 31 0 0 0
SMALL
GASTEIGER

@<TRIPOS>ATOM
      1 C           7.7046   -7.4619   26.0129 C.ar    1  UNL1       -0.0090
      2 C           8.4963   -7.6177   24.7484 C.ar    1  UNL1       -0.0017
      3 C           8.4605   -6.5419   23.7037 C.ar    1  UNL1        0.0199
      4 C           7.6331   -5.3102   23.9235 C.ar    1  UNL1        0.1264
      5 C           6.8415   -5.1544   25.1880 C.ar    1  UNL1        0.0342
      6 C           6.8772   -6.2302   26.2327 C.ar    1  UNL1        0.0419
      7 S           7.5973   -4.2344   22.8789 S.O2    1  UNL1        0.0736
      8 O           8.0274   -5.2281   21.8408 O.2     1  UNL1       -0.1499
      9 O           7.1672   -3.2407   23.9169 O.2     1  UNL1       -0.1499
     10 N           7.5616   -3.1586   21.8342 N.pl3   1  UNL1       -0.2145
     11 H           8.2336   -2.4392   21.8452 H       1  UNL1        0.1737
     12 C           6.5020   -3.1789   20.7727 C.ar    1  UNL1        0.0709
     13 C           5.1255   -3.6793   21.0965 C.ar    1  UNL1        0.0164
     14 C           4.0659   -3.6996   20.0349 C.ar    1  UNL1        0.0013
     15 C           4.3828   -3.2194   18.6496 C.ar    1  UNL1        0.0006
     16 C           5.7593   -2.7191   18.3258 C.ar    1  UNL1        0.0080
     17 C           6.8189   -2.6988   19.3873 C.ar    1  UNL1        0.0491
     18 BR          8.1954   -2.1984   19.0636 Br      1  UNL1       -0.0477
     19 C           9.0292   -8.8679   27.7503 C.3     1  UNL1        0.0051
     20 C           7.7404   -8.5377   27.0576 C.3     1  UNL1        0.0276
     21 N           6.0855   -6.0743   27.4972 N.pl3   1  UNL1       -0.3342
     22 H           5.1902   -6.4772   27.5703 H       1  UNL1        0.1468
     23 C           6.6579   -5.3045   28.6504 C.3     1  UNL1        0.0718
     24 C           6.5248   -3.8110   28.6951 C.3     1  UNL1        0.0368
     25 C           7.0971   -3.0413   29.8483 C.3     1  UNL1        0.0738
     26 N           7.8027   -3.7649   30.9567 N.3     1  UNL1       -0.2714
     27 C           8.3751   -2.9951   32.1098 C.3     1  UNL1        0.0896
     28 C           7.9358   -5.2582   30.9120 C.3     1  UNL1        0.0738
     29 C           7.3634   -6.0281   29.7588 C.3     1  UNL1        0.0368
@<TRIPOS>BOND
     1    19    20    1
     2    20     1    1
     3     1     2   ar
     4     2     3   ar
     5     3     4   ar
     6     4     7    1
     7     7     8    2
     8     7     9    2
     9     7    10    1
    10    10    12    1
    11    12    13   ar
    12    13    14   ar
    13    14    15   ar
    14    15    16   ar
    15    16    17   ar
    16    17    18    1
    17     4     5   ar
    18     5     6   ar
    19     6    21    1
    20    21    23    1
    21    23    24    1
    22    24    25    1
    23    25    26    1
    24    26    27    1
    25    26    28    1
    26    28    29    1
    27     6     1   ar
    28    29    23    1
    29    17    12   ar
    30    10    11    1
    31    21    22    1
@<TRIPOS>MOLECULE
*****
 29 31 0 0 0
SMALL
GASTEIGER

@<TRIPOS>ATOM
      1 C          -4.5590  -16.7742   25.2510 C.ar    1  UNL1       -0.0090
      2 C          -5.5872  -15.8043   25.7531 C.ar    1  UNL1       -0.0017
      3 C          -6.8060  -15.5102   24.9298 C.ar    1  UNL1        0.0199
      4 C          -6.9968  -16.1860   23.6043 C.ar    1  UNL1        0.1264
      5 C          -5.9686  -17.1559   23.1022 C.ar    1  UNL1        0.0342
      6 C          -4.7498  -17.4500   23.9255 C.ar    1  UNL1        0.0419
      7 S          -8.2156  -15.8919   22.7810 S.O2    1  UNL1        0.0736
      8 O          -8.6988  -14.9413   23.8359 O.2     1  UNL1       -0.1499
      9 O          -7.7324  -16.8425   21.7261 O.2     1  UNL1       -0.1499
     10 N          -9.4345  -15.5978   21.9577 N.pl3   1  UNL1       -0.2145
     11 H          -9.4241  -14.8561   21.3103 H       1  UNL1        0.1737
     12 C         -10.6692  -16.4337   22.1206 C.ar    1  UNL1        0.0709
     13 C         -10.9134  -17.1686   23.4052 C.ar    1  UNL1        0.0164
     14 C         -12.1482  -18.0046   23.5681 C.ar    1  UNL1        0.0013
     15 C         -13.1388  -18.1056   22.4463 C.ar    1  UNL1        0.0006
     16 C         -12.8947  -17.3708   21.1617 C.ar    1  UNL1        0.0080
     17 C         -11.6599  -16.5348   20.9988 C.ar    1  UNL1        0.0491
     18 BR        -11.4158  -15.8000   19.7141 Br      1  UNL1       -0.0477
     19 C          -3.4023  -18.0951   27.1659 C.3     1  UNL1        0.0051
     20 C          -3.3402  -17.0683   26.0743 C.3     1  UNL1        0.0276
     21 N          -3.7216  -18.4200   23.4233 N.pl3   1  UNL1       -0.3342
     22 H          -3.4143  -19.1550   24.0017 H       1  UNL1        0.1468
     23 C          -3.1617  -18.2701   22.0398 C.3     1  UNL1        0.0718
     24 C          -2.1579  -17.1939   21.7495 C.3     1  UNL1        0.0368
     25 C          -1.5980  -17.0440   20.3660 C.3     1  UNL1        0.0738
     26 N          -2.0419  -17.9702   19.2728 N.3     1  UNL1       -0.2714
     27 C          -1.4820  -17.8203   17.8894 C.3     1  UNL1        0.0896
     28 C          -3.0457  -19.0464   19.5631 C.3     1  UNL1        0.0738
     29 C          -3.6056  -19.1963   20.9466 C.3     1  UNL1        0.0368
@<TRIPOS>BOND
     1    19    20    1
     2    20     1    1
     3     1     2   ar
     4     2     3   ar
     5     3     4   ar
     6     4     7    1
     7     7     8    2
     8     7     9    2
     9     7    10    1
    10    10    12    1
    11    12    13   ar
    12    13    14   ar
    13    14    15   ar
    14    15    16   ar
    15    16    17   ar
    16    17    18    1
    17     4     5   ar
    18     5     6   ar
    19     6    21    1
    20    21    23    1
    21    23    24    1
    22    24    25    1
    23    25    26    1
    24    26    27    1
    25    26    28    1
    26    28    29    1
    27     6     1   ar
    28    29    23    1
    29    17    12   ar
    30    10    11    1
    31    21    22    1
@<TRIPOS>MOLECULE
*****
 29 31 0 0 0
SMALL
GASTEIGER

@<TRIPOS>ATOM
      1 C          -7.2239  -15.7764   24.6123 C.ar    1  UNL1       -0.0090
      2 C          -5.9463  -15.8868   25.3905 C.ar    1  UNL1       -0.0017
      3 C          -4.7764  -16.6253   24.8107 C.ar    1  UNL1        0.0199
      4 C          -4.8841  -17.2533   23.4528 C.ar    1  UNL1        0.1264
      5 C          -6.1617  -17.1428   22.6747 C.ar    1  UNL1        0.0342
      6 C          -7.3316  -16.4044   23.2544 C.ar    1  UNL1        0.0419
      7 S          -3.7143  -17.9917   22.8731 S.O2    1  UNL1        0.0736
      8 O          -3.0603  -16.6862   22.5297 O.2     1  UNL1       -0.1499
      9 O          -4.3682  -19.2973   23.2164 O.2     1  UNL1       -0.1499
     10 N          -2.5444  -18.7302   22.2933 N.pl3   1  UNL1       -0.2145
     11 H          -2.0828  -19.4173   22.8263 H       1  UNL1        0.1737
     12 C          -2.0778  -18.4218   20.9015 C.ar    1  UNL1        0.0709
     13 C          -0.7390  -17.7814   20.6839 C.ar    1  UNL1        0.0164
     14 C          -0.2724  -17.4730   19.2920 C.ar    1  UNL1        0.0013
     15 C          -1.1447  -17.8051   18.1178 C.ar    1  UNL1        0.0006
     16 C          -2.4836  -18.4455   18.3354 C.ar    1  UNL1        0.0080
     17 C          -2.9501  -18.7539   19.7272 C.ar    1  UNL1        0.0491
     18 BR         -4.2890  -19.3943   19.9448 Br      1  UNL1       -0.0477
     19 C          -8.7281  -15.1863   26.6467 C.3     1  UNL1        0.0051
     20 C          -8.3937  -15.0379   25.1921 C.3     1  UNL1        0.0276
     21 N          -8.6092  -16.2939   22.4762 N.pl3   1  UNL1       -0.3342
     22 H          -8.6174  -15.8328   21.6064 H       1  UNL1        0.1468
     23 C          -9.8741  -16.8861   23.0232 C.3     1  UNL1        0.0718
     24 C         -11.2032  -16.3207   22.6183 C.3     1  UNL1        0.0368
     25 C         -12.4682  -16.9129   23.1653 C.3     1  UNL1        0.0738
     26 N         -12.4041  -18.0704   24.1171 N.3     1  UNL1       -0.2714
     27 C         -13.6690  -18.6625   24.6641 C.3     1  UNL1        0.0896
     28 C         -11.0751  -18.6357   24.5220 C.3     1  UNL1        0.0738
     29 C          -9.8100  -18.0436   23.9750 C.3     1  UNL1        0.0368
@<TRIPOS>BOND
     1    19    20    1
     2    20     1    1
     3     1     2   ar
     4     2     3   ar
     5     3     4   ar
     6     4     7    1
     7     7     8    2
     8     7     9    2
     9     7    10    1
    10    10    12    1
    11    12    13   ar
    12    13    14   ar
    13    14    15   ar
    14    15    16   ar
    15    16    17   ar
    16    17    18    1
    17     4     5   ar
    18     5     6   ar
    19     6    21    1
    20    21    23    1
    21    23    24    1
    22    24    25    1
    23    25    26    1
    24    26    27    1
    25    26    28    1
    26    28    29    1
    27     6     1   ar
    28    29    23    1
    29    17    12   ar
    30    10    11    1
    31    21    22    1
@<TRIPOS>MOLECULE
*****
 29 31 0 0 0
SMALL
GASTEIGER

@<TRIPOS>ATOM
      1 C           5.3792   -1.8761   18.5391 C.ar    1  UNL1       -0.0090
      2 C           6.8720   -1.8590   18.3937 C.ar    1  UNL1       -0.0017
      3 C           7.7334   -2.5318   19.4209 C.ar    1  UNL1        0.0199
      4 C           7.1020   -3.2218   20.5935 C.ar    1  UNL1        0.1264
      5 C           5.6092   -3.2390   20.7390 C.ar    1  UNL1        0.0342
      6 C           4.7478   -2.5661   19.7118 C.ar    1  UNL1        0.0419
      7 S           7.9635   -3.8947   21.6208 S.O2    1  UNL1        0.0736
      8 O           8.3644   -2.5546   22.1624 O.2     1  UNL1       -0.1499
      9 O           7.5625   -5.2348   21.0791 O.2     1  UNL1       -0.1499
     10 N           8.8249   -4.5676   22.6480 N.pl3   1  UNL1       -0.2145
     11 H           9.7997   -4.6145   22.5186 H       1  UNL1        0.1737
     12 C           8.2011   -5.1690   23.8724 C.ar    1  UNL1        0.0709
     13 C           7.3324   -4.3290   24.7612 C.ar    1  UNL1        0.0164
     14 C           6.7086   -4.9305   25.9856 C.ar    1  UNL1        0.0013
     15 C           6.9535   -6.3717   26.3212 C.ar    1  UNL1        0.0006
     16 C           7.8221   -7.2117   25.4325 C.ar    1  UNL1        0.0080
     17 C           8.4459   -6.6103   24.2081 C.ar    1  UNL1        0.0491
     18 BR          9.3146   -7.4502   23.3193 Br      1  UNL1       -0.0477
     19 C           4.1263    0.2342   17.6866 C.3     1  UNL1        0.0051
     20 C           4.5178   -1.2032   17.5119 C.3     1  UNL1        0.0276
     21 N           3.2549   -2.5832   19.8573 N.pl3   1  UNL1       -0.3342
     22 H           2.7336   -3.3355   19.4947 H       1  UNL1        0.1468
     23 C           2.5564   -1.4542   20.5553 C.3     1  UNL1        0.0718
     24 C           3.1114   -0.9065   21.8367 C.3     1  UNL1        0.0368
     25 C           2.4129    0.2225   22.5347 C.3     1  UNL1        0.0738
     26 N           1.1593    0.8040   21.9513 N.3     1  UNL1       -0.2714
     27 C           0.4608    1.9331   22.6492 C.3     1  UNL1        0.0896
     28 C           0.6043    0.2565   20.6698 C.3     1  UNL1        0.0738
     29 C           1.3028   -0.8727   19.9718 C.3     1  UNL1        0.0368
@<TRIPOS>BOND
     1    19    20    1
     2    20     1    1
     3     1     2   ar
     4     2     3   ar
     5     3     4   ar
     6     4     7    1
     7     7     8    2
     8     7     9    2
     9     7    10    1
    10    10    12    1
    11    12    13   ar
    12    13    14   ar
    13    14    15   ar
    14    15    16   ar
    15    16    17   ar
    16    17    18    1
    17     4     5   ar
    18     5     6   ar
    19     6    21    1
    20    21    23    1
    21    23    24    1
    22    24    25    1
    23    25    26    1
    24    26    27    1
    25    26    28    1
    26    28    29    1
    27     6     1   ar
    28    29    23    1
    29    17    12   ar
    30    10    11    1
    31    21    22    1
@<TRIPOS>MOLECULE
*****
 29 31 0 0 0
SMALL
GASTEIGER

@<TRIPOS>ATOM
      1 C           2.8918    0.9839   18.6183 C.ar    1  UNL1       -0.0090
      2 C           2.7512    2.4418   18.2949 C.ar    1  UNL1       -0.0017
      3 C           1.5484    3.2025   18.7688 C.ar    1  UNL1        0.0199
      4 C           0.4863    2.5054   19.5662 C.ar    1  UNL1        0.1264
      5 C           0.6269    1.0475   19.8896 C.ar    1  UNL1        0.0342
      6 C           1.8297    0.2867   19.4157 C.ar    1  UNL1        0.0419
      7 S          -0.7165    3.2661   20.0401 S.O2    1  UNL1        0.0736
      8 O          -1.2360    2.0281   20.7090 O.2     1  UNL1       -0.1499
      9 O          -0.1971    4.5041   19.3711 O.2     1  UNL1       -0.1499
     10 N          -1.9193    4.0269   20.5140 N.pl3   1  UNL1       -0.2145
     11 H          -1.8431    4.6410   21.2797 H       1  UNL1        0.1737
     12 C          -3.2382    3.8520   19.8213 C.ar    1  UNL1        0.0709
     13 C          -3.3291    4.0048   18.3318 C.ar    1  UNL1        0.0164
     14 C          -4.6481    3.8299   17.6391 C.ar    1  UNL1        0.0013
     15 C          -5.8760    3.5022   18.4358 C.ar    1  UNL1        0.0006
     16 C          -5.7851    3.3494   19.9252 C.ar    1  UNL1        0.0080
     17 C          -4.4662    3.5243   20.6180 C.ar    1  UNL1        0.0491
     18 BR         -4.3752    3.3714   22.1074 Br      1  UNL1       -0.0477
     19 C           3.9921   -0.6696   16.9434 C.3     1  UNL1        0.0051
     20 C           4.0946    0.2231   18.1444 C.3     1  UNL1        0.0276
     21 N           1.9703   -1.1713   19.7392 N.pl3   1  UNL1       -0.3342
     22 H           1.4484   -1.8392   19.2383 H       1  UNL1        0.1468
     23 C           2.9060   -1.6116   20.8256 C.3     1  UNL1        0.0718
     24 C           3.8575   -2.7454   20.5821 C.3     1  UNL1        0.0368
     25 C           4.7932   -3.1858   21.6686 C.3     1  UNL1        0.0738
     26 N           4.7776   -2.4924   22.9986 N.3     1  UNL1       -0.2714
     27 C           5.7133   -2.9327   24.0850 C.3     1  UNL1        0.0896
     28 C           3.8262   -1.3586   23.2421 C.3     1  UNL1        0.0738
     29 C           2.8904   -0.9182   22.1556 C.3     1  UNL1        0.0368
@<TRIPOS>BOND
     1    19    20    1
     2    20     1    1
     3     1     2   ar
     4     2     3   ar
     5     3     4   ar
     6     4     7    1
     7     7     8    2
     8     7     9    2
     9     7    10    1
    10    10    12    1
    11    12    13   ar
    12    13    14   ar
    13    14    15   ar
    14    15    16   ar
    15    16    17   ar
    16    17    18    1
    17     4     5   ar
    18     5     6   ar
    19     6    21    1
    20    21    23    1
    21    23    24    1
    22    24    25    1
    23    25    26    1
    24    26    27    1
    25    26    28    1
    26    28    29    1
    27     6     1   ar
    28    29    23    1
    29    17    12   ar
    30    10    11    1
    31    21    22    1
@<TRIPOS>MOLECULE
*****
 29 31 0 0 0
SMALL
GASTEIGER

@<TRIPOS>ATOM
      1 C           0.0797    2.1868   23.7116 C.ar    1  UNL1       -0.0090
      2 C           1.0642    1.0610   23.8262 C.ar    1  UNL1       -0.0017
      3 C           1.7898    0.5722   22.6077 C.ar    1  UNL1        0.0199
      4 C           1.5309    1.2093   21.2747 C.ar    1  UNL1        0.1264
      5 C           0.5463    2.3351   21.1601 C.ar    1  UNL1        0.0342
      6 C          -0.1793    2.8238   22.3786 C.ar    1  UNL1        0.0419
      7 S           2.2565    0.7206   20.0562 S.O2    1  UNL1        0.0736
      8 O           3.5689    1.0257   20.7154 O.2     1  UNL1       -0.1499
      9 O           0.9441    0.4154   19.3971 O.2     1  UNL1       -0.1499
     10 N           2.9821    0.2318   18.8378 N.pl3   1  UNL1       -0.2145
     11 H           3.0115    0.7883   18.0261 H       1  UNL1        0.1737
     12 C           3.6628   -1.1046   18.8559 C.ar    1  UNL1        0.0709
     13 C           3.0746   -2.2353   19.6468 C.ar    1  UNL1        0.0164
     14 C           3.7554   -3.5718   19.6650 C.ar    1  UNL1        0.0013
     15 C           5.0244   -3.7776   18.8922 C.ar    1  UNL1        0.0006
     16 C           5.6127   -2.6470   18.1014 C.ar    1  UNL1        0.0080
     17 C           4.9320   -1.3105   18.0832 C.ar    1  UNL1        0.0491
     18 BR          5.5202   -0.1798   17.2923 Br      1  UNL1       -0.0477
     19 C          -0.5510    1.9105   26.2167 C.3     1  UNL1        0.0051
     20 C          -0.6460    2.6755   24.9300 C.3     1  UNL1        0.0276
     21 N          -1.1639    3.9497   22.2639 N.pl3   1  UNL1       -0.3342
     22 H          -0.9971    4.7991   22.7329 H       1  UNL1        0.1468
     23 C          -2.4025    3.7814   21.4348 C.3     1  UNL1        0.0718
     24 C          -2.3517    4.0169   19.9542 C.3     1  UNL1        0.0368
     25 C          -3.5903    3.8486   19.1251 C.3     1  UNL1        0.0738
     26 N          -4.8797    3.4447   19.7765 N.3     1  UNL1       -0.2714
     27 C          -6.1183    3.2763   18.9474 C.3     1  UNL1        0.0896
     28 C          -4.9305    3.2092   21.2570 C.3     1  UNL1        0.0738
     29 C          -3.6919    3.3775   22.0862 C.3     1  UNL1        0.0368
@<TRIPOS>BOND
     1    19    20    1
     2    20     1    1
     3     1     2   ar
     4     2     3   ar
     5     3     4   ar
     6     4     7    1
     7     7     8    2
     8     7     9    2
     9     7    10    1
    10    10    12    1
    11    12    13   ar
    12    13    14   ar
    13    14    15   ar
    14    15    16   ar
    15    16    17   ar
    16    17    18    1
    17     4     5   ar
    18     5     6   ar
    19     6    21    1
    20    21    23    1
    21    23    24    1
    22    24    25    1
    23    25    26    1
    24    26    27    1
    25    26    28    1
    26    28    29    1
    27     6     1   ar
    28    29    23    1
    29    17    12   ar
    30    10    11    1
    31    21    22    1
