@<TRIPOS>MOLECULE
*****
 31 33 0 0 0
SMALL
GASTEIGER

@<TRIPOS>ATOM
      1 N          -0.3965    3.1862   18.7477 N.am    1  UNL1       -0.2508
      2 C          -1.2954    2.8617   19.9038 C.2     1  UNL1        0.3089
      3 O          -0.8773    1.8344   20.9136 O.2     1  UNL1       -0.2522
      4 N          -2.6125    3.5645   20.0501 N.am    1  UNL1       -0.2621
      5 C          -2.9338    4.5726   18.9869 C.3     1  UNL1        0.0968
      6 C          -4.1561    5.4315   18.8512 C.3     1  UNL1        0.0430
      7 C          -5.3588    5.4944   19.7452 C.3     1  UNL1        0.0953
      8 N          -5.6365    4.7139   20.9958 N.am    1  UNL1       -0.2766
      9 C          -6.9435    5.0085   21.6701 C.2     1  UNL1        0.2421
     10 O          -7.8753    6.0289   21.0865 O.2     1  UNL1       -0.2734
     11 C          -4.7799    3.6778   21.6611 C.3     1  UNL1        0.1149
     12 C          -3.4341    3.1663   21.2402 C.3     1  UNL1        0.1164
     13 H          -0.6710    3.8604   18.0849 H       1  UNL1        0.1579
     14 C           2.6052    0.7410   18.4705 C.ar    1  UNL1        0.1549
     15 C           1.1411    1.0011   18.6678 C.ar    1  UNL1        0.0734
     16 C           0.9206    2.4833   18.6014 C.ar    1  UNL1        0.1771
     17 N           2.2483    3.1393   18.3630 N.ar    1  UNL1       -0.0621
     18 O           3.2894    2.0625   18.2821 O.2     1  UNL1       -0.3565
     19 C           3.9021   -0.2845   17.1414 C.3     1  UNL1        0.0076
     20 C           3.2685   -0.6044   18.4628 C.3     1  UNL1        0.0539
     21 C           2.6349   -0.9242   19.7843 C.3     1  UNL1        0.0076
     22 C           3.9318   -1.9497   18.4552 C.3     1  UNL1        0.0076
     23 C          -7.3188    4.2827   22.9281 C.3     1  UNL1        0.1587
     24 N          -7.0430    4.9061   24.2644 N.3     1  UNL1       -0.2619
     25 C          -8.0169    5.8847   24.8506 C.3     1  UNL1        0.0981
     26 C          -7.7412    6.5082   26.1868 C.3     1  UNL1        0.1681
     27 S          -6.4916    6.1529   26.9367 S.O2    1  UNL1       -0.0072
     28 O          -5.4552    6.1354   28.0209 O.2     1  UNL1       -0.1729
     29 O          -7.1055    7.1255   27.8996 O.2     1  UNL1       -0.1729
     30 C          -5.5177    5.1743   26.3503 C.3     1  UNL1        0.1681
     31 C          -5.7934    4.5509   25.0142 C.3     1  UNL1        0.0981
@<TRIPOS>BOND
     1    19    20    1
     2    20    21    1
     3    20    22    1
     4    20    14    1
     5    14    15   ar
     6    15    16   ar
     7    16     1    1
     8     1     2   am
     9     2     3    2
    10     2     4   am
    11     4     5    1
    12     5     6    1
    13     6     7    1
    14     7     8    1
    15     8     9   am
    16     9    10    2
    17     9    23    1
    18    23    24    1
    19    24    25    1
    20    25    26    1
    21    26    27    1
    22    27    28    2
    23    27    29    2
    24    27    30    1
    25    30    31    1
    26     8    11    1
    27    11    12    1
    28    16    17   ar
    29    17    18   ar
    30    18    14   ar
    31    12     4    1
    32    31    24    1
    33     1    13    1
@<TRIPOS>MOLECULE
*****
 31 33 0 0 0
SMALL
GASTEIGER

@<TRIPOS>ATOM
      1 N           6.0992   -4.1357   23.9350 N.am    1  UNL1       -0.2508
      2 C           6.5044   -3.3353   25.1371 C.2     1  UNL1        0.3089
      3 O           6.4575   -1.8367   25.0911 O.2     1  UNL1       -0.2522
      4 N           6.9566   -4.0334   26.3854 N.am    1  UNL1       -0.2621
      5 C           6.9665   -5.5322   26.3256 C.3     1  UNL1        0.0968
      6 C           7.3613   -6.5083   27.3940 C.3     1  UNL1        0.0430
      7 C           7.8438   -6.2266   28.7860 C.3     1  UNL1        0.0953
      8 N           8.0506   -4.8993   29.4535 N.am    1  UNL1       -0.2766
      9 C           8.5478   -4.9524   30.8677 C.2     1  UNL1        0.2421
     10 O           8.8049   -6.2770   31.5230 O.2     1  UNL1       -0.2734
     11 C           7.8261   -3.5259   28.8938 C.3     1  UNL1        0.1149
     12 C           7.3392   -3.1406   27.5283 C.3     1  UNL1        0.1164
     13 H           6.1301   -5.1192   23.9653 H       1  UNL1        0.1579
     14 C           4.2825   -2.2342   21.0802 C.ar    1  UNL1        0.1549
     15 C           4.2993   -2.8186   22.4617 C.ar    1  UNL1        0.0734
     16 C           5.6470   -3.4374   22.6867 C.ar    1  UNL1        0.1771
     17 N           6.4631   -3.2356   21.4444 N.ar    1  UNL1       -0.0621
     18 O           5.6198   -2.4920   20.4517 O.2     1  UNL1       -0.3565
     19 C           3.4720   -2.1470   19.1217 C.3     1  UNL1        0.0076
     20 C           3.1306   -1.5179   20.4399 C.3     1  UNL1        0.0539
     21 C           2.7891   -0.8887   21.7581 C.3     1  UNL1        0.0076
     22 C           1.9787   -0.8015   19.7996 C.3     1  UNL1        0.0076
     23 C           8.7878   -3.6810   31.6266 C.3     1  UNL1        0.1587
     24 N           7.6367   -2.9562   32.2589 N.3     1  UNL1       -0.2619
     25 C           6.2781   -3.5910   32.2922 C.3     1  UNL1        0.0981
     26 C           5.1270   -2.8664   32.9245 C.3     1  UNL1        0.1681
     27 S           5.3345   -1.5069   33.5235 S.O2    1  UNL1       -0.0072
     28 O           5.0340   -0.2116   34.2178 O.2     1  UNL1       -0.1729
     29 O           3.8715   -1.6918   33.7980 O.2     1  UNL1       -0.1729
     30 C           6.6932   -0.8721   33.4902 C.3     1  UNL1        0.1681
     31 C           7.8443   -1.5968   32.8579 C.3     1  UNL1        0.0981
@<TRIPOS>BOND
     1    19    20    1
     2    20    21    1
     3    20    22    1
     4    20    14    1
     5    14    15   ar
     6    15    16   ar
     7    16     1    1
     8     1     2   am
     9     2     3    2
    10     2     4   am
    11     4     5    1
    12     5     6    1
    13     6     7    1
    14     7     8    1
    15     8     9   am
    16     9    10    2
    17     9    23    1
    18    23    24    1
    19    24    25    1
    20    25    26    1
    21    26    27    1
    22    27    28    2
    23    27    29    2
    24    27    30    1
    25    30    31    1
    26     8    11    1
    27    11    12    1
    28    16    17   ar
    29    17    18   ar
    30    18    14   ar
    31    12     4    1
    32    31    24    1
    33     1    13    1
@<TRIPOS>MOLECULE
*****
 31 33 0 0 0
SMALL
GASTEIGER

@<TRIPOS>ATOM
      1 N           5.8016   -3.2079   31.2075 N.am    1  UNL1       -0.2508
      2 C           5.9538   -2.4831   29.9031 C.2     1  UNL1        0.3089
      3 O           5.7670   -0.9959   29.8452 O.2     1  UNL1       -0.2522
      4 N           6.2928   -3.2455   28.6565 N.am    1  UNL1       -0.2621
      5 C           6.4579   -4.7269   28.8244 C.3     1  UNL1        0.0968
      6 C           6.7928   -5.7544   27.7841 C.3     1  UNL1        0.0430
      7 C           7.0454   -5.5542   26.3192 C.3     1  UNL1        0.0953
      8 N           7.0255   -4.2772   25.5326 N.am    1  UNL1       -0.2766
      9 C           7.3223   -4.4100   24.0684 C.2     1  UNL1        0.2421
     10 O           7.6136   -5.7593   23.4815 O.2     1  UNL1       -0.2734
     11 C           6.7480   -2.8848   26.0168 C.3     1  UNL1        0.1149
     12 C           6.4220   -2.4258   27.4071 C.3     1  UNL1        0.1164
     13 H           5.9241   -4.1840   31.2454 H       1  UNL1        0.1579
     14 C           5.6467   -1.0216   34.4109 C.ar    1  UNL1        0.1549
     15 C           6.4054   -1.5919   33.2493 C.ar    1  UNL1        0.0734
     16 C           5.4625   -2.4454   32.4540 C.ar    1  UNL1        0.1771
     17 N           4.1212   -2.4027   33.1241 N.ar    1  UNL1       -0.0621
     18 O           4.2350   -1.5228   34.3335 O.2     1  UNL1       -0.3565
     19 C           7.4983   -0.0317   34.7138 C.3     1  UNL1        0.0076
     20 C           6.2022   -0.1102   35.4649 C.3     1  UNL1        0.0539
     21 C           4.9061   -0.1887   36.2159 C.3     1  UNL1        0.0076
     22 C           6.7577    0.8012   36.5188 C.3     1  UNL1        0.0076
     23 C           7.3278   -3.1934   23.1908 C.3     1  UNL1        0.1587
     24 N           6.5927   -3.2085   21.8833 N.3     1  UNL1       -0.2619
     25 C           7.2676   -2.7153   20.6378 C.3     1  UNL1        0.0981
     26 C           6.5326   -2.7304   19.3303 C.3     1  UNL1        0.1681
     27 S           5.1227   -3.2386   19.2683 S.O2    1  UNL1       -0.0072
     28 O           3.7859   -3.6218   18.7060 O.2     1  UNL1       -0.1729
     29 O           5.3333   -2.8785   17.8275 O.2     1  UNL1       -0.1729
     30 C           4.4478   -3.7318   20.5139 C.3     1  UNL1        0.1681
     31 C           5.1828   -3.7168   21.8213 C.3     1  UNL1        0.0981
@<TRIPOS>BOND
     1    19    20    1
     2    20    21    1
     3    20    22    1
     4    20    14    1
     5    14    15   ar
     6    15    16   ar
     7    16     1    1
     8     1     2   am
     9     2     3    2
    10     2     4   am
    11     4     5    1
    12     5     6    1
    13     6     7    1
    14     7     8    1
    15     8     9   am
    16     9    10    2
    17     9    23    1
    18    23    24    1
    19    24    25    1
    20    25    26    1
    21    26    27    1
    22    27    28    2
    23    27    29    2
    24    27    30    1
    25    30    31    1
    26     8    11    1
    27    11    12    1
    28    16    17   ar
    29    17    18   ar
    30    18    14   ar
    31    12     4    1
    32    31    24    1
    33     1    13    1
@<TRIPOS>MOLECULE
*****
 31 33 0 0 0
SMALL
GASTEIGER

@<TRIPOS>ATOM
      1 N           2.0249    0.0076   30.1536 N.am    1  UNL1       -0.2508
      2 C           2.1240    0.8502   31.3905 C.2     1  UNL1        0.3089
      3 O           1.1412    1.9592   31.6233 O.2     1  UNL1       -0.2522
      4 N           3.2060    0.5839   32.3948 N.am    1  UNL1       -0.2621
      5 C           4.1351   -0.5469   32.0659 C.3     1  UNL1        0.0968
      6 C           5.3035   -1.0574   32.8561 C.3     1  UNL1        0.0430
      7 C           5.8312   -0.5631   34.1703 C.3     1  UNL1        0.0953
      8 N           5.3211    0.5636   35.0189 N.am    1  UNL1       -0.2766
      9 C           6.0745    0.8125   36.2918 C.2     1  UNL1        0.2421
     10 O           7.2558   -0.0423   36.6435 O.2     1  UNL1       -0.2734
     11 C           4.1571    1.4744   34.7629 C.3     1  UNL1        0.1149
     12 C           3.2158    1.4834   33.5950 C.3     1  UNL1        0.1164
     13 H           2.6700   -0.7203   30.0008 H       1  UNL1        0.1579
     14 C          -0.2749    1.1725   27.2519 C.ar    1  UNL1        0.1549
     15 C           1.0304    1.2211   27.9895 C.ar    1  UNL1        0.0734
     16 C           0.9429    0.2740   29.1493 C.ar    1  UNL1        0.1771
     17 N          -0.4164   -0.3599   29.1287 N.ar    1  UNL1       -0.0621
     18 O          -1.1690    0.1954   27.9561 O.2     1  UNL1       -0.3565
     19 C          -1.5384    2.8268   26.8430 C.3     1  UNL1        0.0076
     20 C          -0.6247    1.9624   26.0256 C.3     1  UNL1        0.0539
     21 C           0.2890    1.0981   25.2083 C.3     1  UNL1        0.0076
     22 C          -0.9745    2.7523   24.7993 C.3     1  UNL1        0.0076
     23 C           5.6465    1.9162   37.2131 C.3     1  UNL1        0.1587
     24 N           4.2279    1.9824   37.6960 N.3     1  UNL1       -0.2619
     25 C           3.4532    3.2611   37.5742 C.3     1  UNL1        0.0981
     26 C           2.0345    3.3274   38.0570 C.3     1  UNL1        0.1681
     27 S           1.3906    2.1150   38.6616 S.O2    1  UNL1       -0.0072
     28 O           0.3525    1.2413   39.3011 O.2     1  UNL1       -0.1729
     29 O           0.2554    3.0902   38.7619 O.2     1  UNL1       -0.1729
     30 C           2.1654    0.8363   38.7834 C.3     1  UNL1        0.1681
     31 C           3.5840    0.7701   38.3006 C.3     1  UNL1        0.0981
@<TRIPOS>BOND
     1    19    20    1
     2    20    21    1
     3    20    22    1
     4    20    14    1
     5    14    15   ar
     6    15    16   ar
     7    16     1    1
     8     1     2   am
     9     2     3    2
    10     2     4   am
    11     4     5    1
    12     5     6    1
    13     6     7    1
    14     7     8    1
    15     8     9   am
    16     9    10    2
    17     9    23    1
    18    23    24    1
    19    24    25    1
    20    25    26    1
    21    26    27    1
    22    27    28    2
    23    27    29    2
    24    27    30    1
    25    30    31    1
    26     8    11    1
    27    11    12    1
    28    16    17   ar
    29    17    18   ar
    30    18    14   ar
    31    12     4    1
    32    31    24    1
    33     1    13    1
@<TRIPOS>MOLECULE
*****
 31 33 0 0 0
SMALL
GASTEIGER

@<TRIPOS>ATOM
      1 N           4.7204    0.5138   18.5288 N.am    1  UNL1       -0.2508
      2 C           3.3241    0.2709   19.0198 C.2     1  UNL1        0.3089
      3 O           2.9093   -1.1047   19.4509 O.2     1  UNL1       -0.2522
      4 N           2.3424    1.4035   19.0798 N.am    1  UNL1       -0.2621
      5 C           2.8587    2.7368   18.6261 C.3     1  UNL1        0.0968
      6 C           2.1344    4.0490   18.5660 C.3     1  UNL1        0.0430
      7 C           0.7150    4.3519   18.9447 C.3     1  UNL1        0.0953
      8 N          -0.3307    3.4175   19.4771 N.am    1  UNL1       -0.2766
      9 C          -1.6688    4.0326   19.7621 C.2     1  UNL1        0.2421
     10 O          -1.8907    5.4948   19.5117 O.2     1  UNL1       -0.2734
     11 C          -0.2153    1.9494   19.7622 C.3     1  UNL1        0.1149
     12 C           0.9745    1.0531   19.5854 C.3     1  UNL1        0.1164
     13 H           4.9926    1.4166   18.2459 H       1  UNL1        0.1579
     14 C           7.2545   -2.3652   19.1256 C.ar    1  UNL1        0.1549
     15 C           6.3467   -1.2900   19.6454 C.ar    1  UNL1        0.0734
     16 C           5.7021   -0.6189   18.4689 C.ar    1  UNL1        0.1771
     17 N           6.2113   -1.2793   17.2221 N.ar    1  UNL1       -0.0621
     18 O           7.1707   -2.3585   17.6280 O.2     1  UNL1       -0.3565
     19 C           6.8626   -3.8163   20.6226 C.3     1  UNL1        0.0076
     20 C           8.0978   -3.2854   19.9575 C.3     1  UNL1        0.0539
     21 C           9.3331   -2.7546   19.2924 C.3     1  UNL1        0.0076
     22 C           8.9412   -4.2056   20.7893 C.3     1  UNL1        0.0076
     23 C          -2.7849    3.1854   20.2975 C.3     1  UNL1        0.1587
     24 N          -3.1986    3.3103   21.7340 N.3     1  UNL1       -0.2619
     25 C          -2.1677    3.5745   22.7910 C.3     1  UNL1        0.0981
     26 C          -2.5813    3.6994   24.2274 C.3     1  UNL1        0.1681
     27 S          -4.0258    3.5601   24.6068 S.O2    1  UNL1       -0.0072
     28 O          -5.2614    3.5059   25.4556 O.2     1  UNL1       -0.1729
     29 O          -3.4240    3.8055   25.9587 O.2     1  UNL1       -0.1729
     30 C          -5.0567    3.2958   23.5497 C.3     1  UNL1        0.1681
     31 C          -4.6431    3.1710   22.1133 C.3     1  UNL1        0.0981
@<TRIPOS>BOND
     1    19    20    1
     2    20    21    1
     3    20    22    1
     4    20    14    1
     5    14    15   ar
     6    15    16   ar
     7    16     1    1
     8     1     2   am
     9     2     3    2
    10     2     4   am
    11     4     5    1
    12     5     6    1
    13     6     7    1
    14     7     8    1
    15     8     9   am
    16     9    10    2
    17     9    23    1
    18    23    24    1
    19    24    25    1
    20    25    26    1
    21    26    27    1
    22    27    28    2
    23    27    29    2
    24    27    30    1
    25    30    31    1
    26     8    11    1
    27    11    12    1
    28    16    17   ar
    29    17    18   ar
    30    18    14   ar
    31    12     4    1
    32    31    24    1
    33     1    13    1
@<TRIPOS>MOLECULE
*****
 31 33 0 0 0
SMALL
GASTEIGER

@<TRIPOS>ATOM
      1 N           7.0686   -3.9582   22.1262 N.am    1  UNL1       -0.2508
      2 C           7.2382   -3.1628   23.3866 C.2     1  UNL1        0.3089
      3 O           7.2722   -1.6643   23.3289 O.2     1  UNL1       -0.2522
      4 N           7.3737   -3.8659   24.7047 N.am    1  UNL1       -0.2621
      5 C           7.3267   -5.3642   24.6508 C.3     1  UNL1        0.0968
      6 C           7.4327   -6.3444   25.7814 C.3     1  UNL1        0.0430
      7 C           7.6119   -6.0684   27.2447 C.3     1  UNL1        0.0953
      8 N           7.7295   -4.7440   27.9392 N.am    1  UNL1       -0.2766
      9 C           7.9026   -4.8029   29.4280 C.2     1  UNL1        0.2421
     10 O           7.9484   -6.1299   30.1258 O.2     1  UNL1       -0.2734
     11 C           7.6968   -3.3686   27.3417 C.3     1  UNL1        0.1149
     12 C           7.5384   -2.9778   25.9021 C.3     1  UNL1        0.1164
     13 H           7.0463   -4.9417   22.1641 H       1  UNL1        0.1579
     14 C           5.9876   -2.0960   18.8968 C.ar    1  UNL1        0.1549
     15 C           5.6611   -2.7171   20.2226 C.ar    1  UNL1        0.0734
     16 C           6.9330   -3.2551   20.8081 C.ar    1  UNL1        0.1771
     17 N           8.0455   -2.9666   19.8442 N.ar    1  UNL1       -0.0621
     18 O           7.4612   -2.2502   18.6630 O.2     1  UNL1       -0.3565
     19 C           3.9133   -2.3057   18.5047 C.3     1  UNL1        0.0076
     20 C           5.0117   -1.4365   17.9679 C.3     1  UNL1        0.0539
     21 C           6.1100   -0.5673   17.4311 C.3     1  UNL1        0.0076
     22 C           4.0358   -0.7771   17.0390 C.3     1  UNL1        0.0076
     23 C           8.0299   -3.5347   30.2190 C.3     1  UNL1        0.1587
     24 N           6.8357   -2.9720   30.9313 N.3     1  UNL1       -0.2619
     25 C           6.0405   -1.8659   30.3035 C.3     1  UNL1        0.0981
     26 C           4.8463   -1.3032   31.0157 C.3     1  UNL1        0.1681
     27 S           4.4474   -1.8465   32.3558 S.O2    1  UNL1       -0.0072
     28 O           3.6798   -2.0275   33.6317 O.2     1  UNL1       -0.1729
     29 O           3.3855   -0.8033   32.1711 O.2     1  UNL1       -0.1729
     30 C           5.2428   -2.9525   32.9836 C.3     1  UNL1        0.1681
     31 C           6.4369   -3.5153   32.2713 C.3     1  UNL1        0.0981
@<TRIPOS>BOND
     1    19    20    1
     2    20    21    1
     3    20    22    1
     4    20    14    1
     5    14    15   ar
     6    15    16   ar
     7    16     1    1
     8     1     2   am
     9     2     3    2
    10     2     4   am
    11     4     5    1
    12     5     6    1
    13     6     7    1
    14     7     8    1
    15     8     9   am
    16     9    10    2
    17     9    23    1
    18    23    24    1
    19    24    25    1
    20    25    26    1
    21    26    27    1
    22    27    28    2
    23    27    29    2
    24    27    30    1
    25    30    31    1
    26     8    11    1
    27    11    12    1
    28    16    17   ar
    29    17    18   ar
    30    18    14   ar
    31    12     4    1
    32    31    24    1
    33     1    13    1
@<TRIPOS>MOLECULE
*****
 31 33 0 0 0
SMALL
GASTEIGER

@<TRIPOS>ATOM
      1 N           7.1311   -4.5103   23.1289 N.am    1  UNL1       -0.2508
      2 C           6.7097   -3.1086   22.8010 C.2     1  UNL1        0.3089
      3 O           6.8643   -2.0207   23.8220 O.2     1  UNL1       -0.2522
      4 N           6.1338   -2.7948   21.4519 N.am    1  UNL1       -0.2621
      5 C           6.0228   -3.9538   20.5061 C.3     1  UNL1        0.0968
      6 C           5.4956   -3.9677   19.1018 C.3     1  UNL1        0.0430
      7 C           4.9493   -2.8263   18.2967 C.3     1  UNL1        0.0953
      8 N           4.7952   -1.3888   18.6967 N.am    1  UNL1       -0.2766
      9 C           4.2095   -0.4825   17.6549 C.2     1  UNL1        0.2421
     10 O           3.8204   -1.0330   16.3149 O.2     1  UNL1       -0.2734
     11 C           5.1494   -0.7379   20.0009 C.3     1  UNL1        0.1149
     12 C           5.7452   -1.3637   21.2270 C.3     1  UNL1        0.1164
     13 H           7.0297   -5.2244   22.4588 H       1  UNL1        0.1579
     14 C           7.9045   -5.2955   26.8507 C.ar    1  UNL1        0.1549
     15 C           6.9311   -4.9900   25.7510 C.ar    1  UNL1        0.0734
     16 C           7.7070   -4.8241   24.4781 C.ar    1  UNL1        0.1771
     17 N           9.1599   -5.0271   24.7910 N.ar    1  UNL1       -0.0621
     18 O           9.2819   -5.3184   26.2573 O.2     1  UNL1       -0.3565
     19 C           6.1029   -5.3983   27.9659 C.3     1  UNL1        0.0076
     20 C           7.5608   -5.5358   28.2909 C.3     1  UNL1        0.0539
     21 C           9.0187   -5.6734   28.6159 C.3     1  UNL1        0.0076
     22 C           7.2170   -5.7762   29.7310 C.3     1  UNL1        0.0076
     23 C           4.0128    0.9744   17.9530 C.3     1  UNL1        0.1587
     24 N           2.7413    1.4434   18.5961 N.3     1  UNL1       -0.2619
     25 C           2.3934    2.9024   18.5936 C.3     1  UNL1        0.0981
     26 C           1.1220    3.3715   19.2366 C.3     1  UNL1        0.1681
     27 S           0.1984    2.3814   19.8821 S.O2    1  UNL1       -0.0072
     28 O          -0.9893    1.8316   20.6151 O.2     1  UNL1       -0.1729
     29 O          -0.5620    3.6495   20.1342 O.2     1  UNL1       -0.1729
     30 C           0.5463    0.9222   19.8845 C.3     1  UNL1        0.1681
     31 C           1.8177    0.4532   19.2416 C.3     1  UNL1        0.0981
@<TRIPOS>BOND
     1    19    20    1
     2    20    21    1
     3    20    22    1
     4    20    14    1
     5    14    15   ar
     6    15    16   ar
     7    16     1    1
     8     1     2   am
     9     2     3    2
    10     2     4   am
    11     4     5    1
    12     5     6    1
    13     6     7    1
    14     7     8    1
    15     8     9   am
    16     9    10    2
    17     9    23    1
    18    23    24    1
    19    24    25    1
    20    25    26    1
    21    26    27    1
    22    27    28    2
    23    27    29    2
    24    27    30    1
    25    30    31    1
    26     8    11    1
    27    11    12    1
    28    16    17   ar
    29    17    18   ar
    30    18    14   ar
    31    12     4    1
    32    31    24    1
    33     1    13    1
@<TRIPOS>MOLECULE
*****
 31 33 0 0 0
SMALL
GASTEIGER

@<TRIPOS>ATOM
      1 N           6.2786   -4.1657   24.7161 N.am    1  UNL1       -0.2508
      2 C           6.2268   -2.8992   25.5182 C.2     1  UNL1        0.3089
      3 O           6.0417   -1.5808   24.8271 O.2     1  UNL1       -0.2522
      4 N           6.3600   -2.9511   27.0113 N.am    1  UNL1       -0.2621
      5 C           6.5410   -4.3183   27.6014 C.3     1  UNL1        0.0968
      6 C           6.7013   -4.7010   29.0430 C.3     1  UNL1        0.0430
      7 C           6.7202   -3.8112   30.2502 C.3     1  UNL1        0.0953
      8 N           6.5834   -2.3188   30.3144 N.am    1  UNL1       -0.2766
      9 C           6.6441   -1.7181   31.6875 C.2     1  UNL1        0.2421
     10 O           6.8312   -2.6017   32.8851 O.2     1  UNL1       -0.2734
     11 C           6.3940   -1.3477   29.1870 C.3     1  UNL1        0.1149
     12 C           6.2946   -1.6292   27.7170 C.3     1  UNL1        0.1164
     13 H           6.4000   -5.0310   25.1697 H       1  UNL1        0.1579
     14 C           5.2702   -3.7047   20.9963 C.ar    1  UNL1        0.1549
     15 C           4.9827   -3.5507   22.4605 C.ar    1  UNL1        0.0734
     16 C           6.1453   -4.1138   23.2229 C.ar    1  UNL1        0.1771
     17 N           7.1514   -4.6157   22.2299 N.ar    1  UNL1       -0.0621
     18 O           6.6105   -4.3629   20.8539 O.2     1  UNL1       -0.3565
     19 C           3.9677   -4.7027   19.6518 C.3     1  UNL1        0.0076
     20 C           4.3745   -3.2758   19.8721 C.3     1  UNL1        0.0539
     21 C           4.7814   -1.8489   20.0924 C.3     1  UNL1        0.0076
     22 C           3.4789   -2.8469   18.7478 C.3     1  UNL1        0.0076
     23 C           6.5177   -0.2337   31.8630 C.3     1  UNL1        0.1587
     24 N           5.2036    0.3641   32.2703 N.3     1  UNL1       -0.2619
     25 C           5.0545    0.9971   33.6220 C.3     1  UNL1        0.0981
     26 C           3.7405    1.5950   34.0294 C.3     1  UNL1        0.1681
     27 S           2.5756    1.5598   33.0850 S.O2    1  UNL1       -0.0072
     28 O           1.1920    1.7697   32.5449 O.2     1  UNL1       -0.1729
     29 O           1.9459    2.2657   34.2491 O.2     1  UNL1       -0.1729
     30 C           2.7247    0.9267   31.7333 C.3     1  UNL1        0.1681
     31 C           4.0387    0.3289   31.3260 C.3     1  UNL1        0.0981
@<TRIPOS>BOND
     1    19    20    1
     2    20    21    1
     3    20    22    1
     4    20    14    1
     5    14    15   ar
     6    15    16   ar
     7    16     1    1
     8     1     2   am
     9     2     3    2
    10     2     4   am
    11     4     5    1
    12     5     6    1
    13     6     7    1
    14     7     8    1
    15     8     9   am
    16     9    10    2
    17     9    23    1
    18    23    24    1
    19    24    25    1
    20    25    26    1
    21    26    27    1
    22    27    28    2
    23    27    29    2
    24    27    30    1
    25    30    31    1
    26     8    11    1
    27    11    12    1
    28    16    17   ar
    29    17    18   ar
    30    18    14   ar
    31    12     4    1
    32    31    24    1
    33     1    13    1
@<TRIPOS>MOLECULE
*****
 31 33 0 0 0
SMALL
GASTEIGER

@<TRIPOS>ATOM
      1 N           1.2321    0.9453   26.8061 N.am    1  UNL1       -0.2508
      2 C           2.3549    0.6044   25.8718 C.2     1  UNL1        0.3089
      3 O           3.6447    0.0644   26.4148 O.2     1  UNL1       -0.2522
      4 N           2.1881    0.8035   24.3945 N.am    1  UNL1       -0.2621
      5 C           0.8606    1.3482   23.9571 C.3     1  UNL1        0.0968
      6 C           0.3879    1.6555   22.5670 C.3     1  UNL1        0.0430
      7 C           1.1258    1.4941   21.2712 C.3     1  UNL1        0.0953
      8 N           2.5188    0.9855   21.0452 N.am    1  UNL1       -0.2766
      9 C           2.9727    0.9443   19.6162 C.2     1  UNL1        0.2421
     10 O           2.0501    1.3953   18.5229 O.2     1  UNL1       -0.2734
     11 C           3.5178    0.5127   22.0593 C.3     1  UNL1        0.1149
     12 C           3.3705    0.4317   23.5499 C.3     1  UNL1        0.1164
     13 H           0.3856    1.2997   26.4497 H       1  UNL1        0.1579
     14 C           1.5923    1.1793   30.6637 C.ar    1  UNL1        0.1549
     15 C           1.3943    1.8258   29.3247 C.ar    1  UNL1        0.0734
     16 C           1.3990    0.7461   28.2835 C.ar    1  UNL1        0.1771
     17 N           1.6000   -0.5677   28.9789 N.ar    1  UNL1       -0.0621
     18 O           1.7195   -0.2999   30.4499 O.2     1  UNL1       -0.3565
     19 C           0.4978    2.7522   31.5736 C.3     1  UNL1        0.0076
     20 C           1.6526    1.8877   31.9846 C.3     1  UNL1        0.0539
     21 C           2.8075    1.0231   32.3955 C.3     1  UNL1        0.0076
     22 C           1.7130    2.5961   33.3054 C.3     1  UNL1        0.0076
     23 C           4.3493    0.4520   19.2804 C.3     1  UNL1        0.1587
     24 N           4.6834   -1.0026   19.4319 N.3     1  UNL1       -0.2619
     25 C           5.9598   -1.4128   20.1045 C.3     1  UNL1        0.0981
     26 C           6.2939   -2.8673   20.2560 C.3     1  UNL1        0.1681
     27 S           5.3515   -3.9114   19.7348 S.O2    1  UNL1       -0.0072
     28 O           4.7840   -5.2609   19.4078 O.2     1  UNL1       -0.1729
     29 O           6.4308   -4.7904   20.2939 O.2     1  UNL1       -0.1729
     30 C           4.0751   -3.5012   19.0622 C.3     1  UNL1        0.1681
     31 C           3.7410   -2.0468   18.9107 C.3     1  UNL1        0.0981
@<TRIPOS>BOND
     1    19    20    1
     2    20    21    1
     3    20    22    1
     4    20    14    1
     5    14    15   ar
     6    15    16   ar
     7    16     1    1
     8     1     2   am
     9     2     3    2
    10     2     4   am
    11     4     5    1
    12     5     6    1
    13     6     7    1
    14     7     8    1
    15     8     9   am
    16     9    10    2
    17     9    23    1
    18    23    24    1
    19    24    25    1
    20    25    26    1
    21    26    27    1
    22    27    28    2
    23    27    29    2
    24    27    30    1
    25    30    31    1
    26     8    11    1
    27    11    12    1
    28    16    17   ar
    29    17    18   ar
    30    18    14   ar
    31    12     4    1
    32    31    24    1
    33     1    13    1
