@<TRIPOS>MOLECULE
*****
 34 38 0 0 0
SMALL
GASTEIGER

@<TRIPOS>ATOM
      1 C          -8.8061  -15.9552   22.2606 C.3     1  UNL1        0.0545
      2 C          -9.8303  -15.6844   21.1987 C.3     1  UNL1        0.0162
      3 C         -10.3346  -17.0038   20.6938 C.3     1  UNL1        0.0095
      4 C         -11.2793  -17.6518   19.7255 C.3     1  UNL1        0.0005
      5 C         -11.1506  -19.1386   19.8770 C.3     1  UNL1        0.0005
      6 C         -10.1264  -19.4094   20.9389 C.3     1  UNL1        0.0087
      7 C          -9.6221  -18.0901   21.4438 C.3     1  UNL1        0.0704
      8 C          -8.6775  -17.4420   22.4120 C.3     1  UNL1        0.0243
      9 C          -8.9096  -19.1763   22.1937 C.2     1  UNL1        0.2250
     10 O          -9.6407  -19.9749   23.2318 O.2     1  UNL1       -0.2749
     11 N          -7.4659  -19.4639   21.9055 N.am    1  UNL1       -0.2750
     12 C          -6.7534  -20.5502   22.6554 C.3     1  UNL1        0.1000
     13 C          -5.3097  -20.8378   22.3672 C.3     1  UNL1        0.0670
     14 C          -4.5786  -20.0392   21.3291 C.ar    1  UNL1        0.0583
     15 N          -3.1348  -20.3268   21.0409 N.ar    1  UNL1       -0.2484
     16 C          -2.4037  -19.5282   20.0028 C.ar    1  UNL1        0.1023
     17 C          -3.1163  -18.4420   19.2529 C.ar    1  UNL1        0.0902
     18 C          -4.5599  -18.1543   19.5411 C.ar    1  UNL1        0.0040
     19 C          -5.2911  -18.9530   20.5792 C.ar    1  UNL1        0.0113
     20 C          -6.7347  -18.6653   20.8674 C.3     1  UNL1        0.1213
     21 C          -2.3852  -17.6434   18.2148 C.3     1  UNL1        0.4200
     22 F          -1.6540  -16.8447   17.1767 F       1  UNL1       -0.1658
     23 F          -1.1403  -18.4366   18.4813 F       1  UNL1       -0.1658
     24 F          -3.6300  -16.8501   17.9482 F       1  UNL1       -0.1658
     25 N          -8.0443  -14.9208   23.0351 N.3     1  UNL1       -0.2975
     26 H          -7.2184  -14.6889   22.4833 H       1  UNL1        0.1232
     27 C          -6.1024  -15.4251   24.6857 C.3     1  UNL1        0.1591
     28 C          -5.6239  -15.7297   26.0744 C.3     1  UNL1        0.1729
     29 O          -6.6087  -15.8346   27.2009 O.3     1  UNL1       -0.3511
     30 C          -8.0721  -15.6349   26.9389 C.3     1  UNL1        0.1437
     31 C          -8.5506  -15.3303   25.5503 C.3     1  UNL1        0.0503
     32 C          -7.5658  -15.2254   24.4237 C.3     1  UNL1        0.0865
     33 C          -4.1682  -16.4489   23.2854 C.3     1  UNL1        0.1742
     34 O          -5.1176  -15.3203   23.5592 O.3     1  UNL1       -0.3496
@<TRIPOS>BOND
     1    33    34    1
     2    27    34    1
     3    27    28    1
     4    28    29    1
     5    29    30    1
     6    30    31    1
     7    31    32    1
     8    32    25    1
     9     1    25    1
    10     1     2    1
    11     3     2    1
    12     3     4    1
    13     4     5    1
    14     5     6    1
    15     6     7    1
    16     7     9    1
    17     9    10    2
    18     9    11   am
    19    11    12    1
    20    12    13    1
    21    13    14    1
    22    14    15   ar
    23    15    16   ar
    24    16    17   ar
    25    17    21    1
    26    21    22    1
    27    21    23    1
    28    21    24    1
    29    17    18   ar
    30    18    19   ar
    31    19    20    1
    32     7     8    1
    33    32    27    1
    34     8     1    1
    35     7     3    1
    36    20    11    1
    37    19    14   ar
    38    25    26    1
@<TRIPOS>MOLECULE
*****
 34 38 0 0 0
SMALL
GASTEIGER

@<TRIPOS>ATOM
      1 C          -8.3765  -15.7263   23.4472 C.3     1  UNL1        0.0545
      2 C          -9.2800  -15.9022   24.6315 C.3     1  UNL1        0.0162
      3 C          -8.4318  -15.8835   25.8685 C.3     1  UNL1        0.0095
      4 C          -8.4660  -15.9807   27.3649 C.3     1  UNL1        0.0005
      5 C          -7.0593  -15.8532   27.8700 C.3     1  UNL1        0.0005
      6 C          -6.1558  -15.6773   26.6857 C.3     1  UNL1        0.0087
      7 C          -7.0040  -15.6960   25.4487 C.3     1  UNL1        0.0704
      8 C          -6.9698  -15.5989   23.9522 C.3     1  UNL1        0.0243
      9 C          -5.5762  -15.5085   25.0289 C.2     1  UNL1        0.2250
     10 O          -4.7317  -14.4596   25.6896 O.2     1  UNL1       -0.2749
     11 N          -4.9928  -16.3701   23.9483 N.am    1  UNL1       -0.2750
     12 C          -3.5651  -16.1826   23.5285 C.3     1  UNL1        0.1000
     13 C          -2.9818  -17.0441   22.4480 C.3     1  UNL1        0.0670
     14 C          -3.8263  -18.0931   21.7873 C.ar    1  UNL1        0.0583
     15 N          -3.2429  -18.9546   20.7067 N.ar    1  UNL1       -0.2484
     16 C          -4.0874  -20.0036   20.0460 C.ar    1  UNL1        0.1023
     17 C          -5.5152  -20.1910   20.4659 C.ar    1  UNL1        0.0902
     18 C          -6.0985  -19.3295   21.5464 C.ar    1  UNL1        0.0040
     19 C          -5.2540  -18.2805   22.2071 C.ar    1  UNL1        0.0113
     20 C          -5.8373  -17.4190   23.2876 C.3     1  UNL1        0.1213
     21 C          -6.3597  -21.2400   19.8052 C.3     1  UNL1        0.4200
     22 F          -7.2041  -22.2890   19.1445 F       1  UNL1       -0.1658
     23 F          -7.3607  -20.1914   19.4199 F       1  UNL1       -0.1658
     24 F          -5.3586  -22.2885   20.1905 F       1  UNL1       -0.1658
     25 N          -8.8044  -15.6851   22.0101 N.3     1  UNL1       -0.2975
     26 H          -8.9141  -14.7014   21.7636 H       1  UNL1        0.1232
     27 C         -10.1821  -17.8696   21.7281 C.3     1  UNL1        0.1591
     28 C         -11.4396  -18.5662   21.2997 C.3     1  UNL1        0.1729
     29 O         -12.5769  -17.7748   20.7250 O.3     1  UNL1       -0.3511
     30 C         -12.4567  -16.2868   20.5786 C.3     1  UNL1        0.1437
     31 C         -11.1992  -15.5902   21.0070 C.3     1  UNL1        0.0503
     32 C         -10.0619  -16.3817   21.5817 C.3     1  UNL1        0.0865
     33 C          -9.2434  -19.4550   23.5599 C.3     1  UNL1        0.1742
     34 O          -9.0449  -18.6610   22.3028 O.3     1  UNL1       -0.3496
@<TRIPOS>BOND
     1    33    34    1
     2    27    34    1
     3    27    28    1
     4    28    29    1
     5    29    30    1
     6    30    31    1
     7    31    32    1
     8    32    25    1
     9     1    25    1
    10     1     2    1
    11     3     2    1
    12     3     4    1
    13     4     5    1
    14     5     6    1
    15     6     7    1
    16     7     9    1
    17     9    10    2
    18     9    11   am
    19    11    12    1
    20    12    13    1
    21    13    14    1
    22    14    15   ar
    23    15    16   ar
    24    16    17   ar
    25    17    21    1
    26    21    22    1
    27    21    23    1
    28    21    24    1
    29    17    18   ar
    30    18    19   ar
    31    19    20    1
    32     7     8    1
    33    32    27    1
    34     8     1    1
    35     7     3    1
    36    20    11    1
    37    19    14   ar
    38    25    26    1
@<TRIPOS>MOLECULE
*****
 34 38 0 0 0
SMALL
GASTEIGER

@<TRIPOS>ATOM
      1 C          -5.3834  -19.8594   21.5400 C.3     1  UNL1        0.0545
      2 C          -4.6852  -19.9953   20.2194 C.3     1  UNL1        0.0162
      3 C          -3.4978  -19.0788   20.2264 C.3     1  UNL1        0.0095
      4 C          -2.3324  -18.5963   19.4145 C.3     1  UNL1        0.0005
      5 C          -1.5765  -17.5958   20.2376 C.3     1  UNL1        0.0005
      6 C          -2.2747  -17.4599   21.5583 C.3     1  UNL1        0.0087
      7 C          -3.4621  -18.3764   21.5513 C.3     1  UNL1        0.0704
      8 C          -4.6274  -18.8588   22.3632 C.3     1  UNL1        0.0243
      9 C          -3.4264  -17.6740   22.8762 C.2     1  UNL1        0.2250
     10 O          -2.1377  -17.5729   23.6370 O.2     1  UNL1       -0.2749
     11 N          -4.6796  -17.0728   23.4404 N.am    1  UNL1       -0.2750
     12 C          -4.6439  -16.3705   24.7653 C.3     1  UNL1        0.1000
     13 C          -5.8971  -15.7693   25.3293 C.3     1  UNL1        0.0670
     14 C          -7.1858  -15.8705   24.5685 C.ar    1  UNL1        0.0583
     15 N          -8.4390  -15.2693   25.1327 N.ar    1  UNL1       -0.2484
     16 C          -9.7278  -15.3704   24.3719 C.ar    1  UNL1        0.1023
     17 C          -9.7634  -16.0728   23.0469 C.ar    1  UNL1        0.0902
     18 C          -8.5102  -16.6740   22.4828 C.ar    1  UNL1        0.0040
     19 C          -7.2215  -16.5728   23.2436 C.ar    1  UNL1        0.0113
     20 C          -5.9684  -17.1740   22.6795 C.3     1  UNL1        0.1213
     21 C         -11.0521  -16.1740   22.2861 C.3     1  UNL1        0.4200
     22 F         -12.3409  -16.2752   21.5252 F       1  UNL1       -0.1658
     23 F         -10.4315  -15.4366   21.1367 F       1  UNL1       -0.1658
     24 F         -11.6728  -16.9114   23.4354 F       1  UNL1       -0.1658
     25 N          -6.6203  -20.5948   21.9632 N.3     1  UNL1       -0.2975
     26 H          -6.5114  -21.5592   21.6495 H       1  UNL1        0.1232
     27 C          -9.1393  -20.1545   22.4225 C.3     1  UNL1        0.1591
     28 C         -10.4853  -19.6939   21.9470 C.3     1  UNL1        0.1729
     29 O         -10.6584  -19.2131   20.5368 O.3     1  UNL1       -0.3511
     30 C          -9.4854  -19.1928   19.6019 C.3     1  UNL1        0.1437
     31 C          -8.1394  -19.6534   20.0774 C.3     1  UNL1        0.0503
     32 C          -7.9663  -20.1342   21.4877 C.3     1  UNL1        0.0865
     33 C          -9.9375  -20.2113   24.8943 C.3     1  UNL1        0.1742
     34 O          -8.9662  -20.6354   23.8327 O.3     1  UNL1       -0.3496
@<TRIPOS>BOND
     1    33    34    1
     2    27    34    1
     3    27    28    1
     4    28    29    1
     5    29    30    1
     6    30    31    1
     7    31    32    1
     8    32    25    1
     9     1    25    1
    10     1     2    1
    11     3     2    1
    12     3     4    1
    13     4     5    1
    14     5     6    1
    15     6     7    1
    16     7     9    1
    17     9    10    2
    18     9    11   am
    19    11    12    1
    20    12    13    1
    21    13    14    1
    22    14    15   ar
    23    15    16   ar
    24    16    17   ar
    25    17    21    1
    26    21    22    1
    27    21    23    1
    28    21    24    1
    29    17    18   ar
    30    18    19   ar
    31    19    20    1
    32     7     8    1
    33    32    27    1
    34     8     1    1
    35     7     3    1
    36    20    11    1
    37    19    14   ar
    38    25    26    1
@<TRIPOS>MOLECULE
*****
 34 38 0 0 0
SMALL
GASTEIGER

@<TRIPOS>ATOM
      1 C          -3.6939  -17.4234   24.2835 C.3     1  UNL1        0.0545
      2 C          -3.9490  -17.4334   25.7616 C.3     1  UNL1        0.0162
      3 C          -5.0660  -16.4733   26.0457 C.3     1  UNL1        0.0095
      4 C          -5.9140  -15.8861   27.1348 C.3     1  UNL1        0.0005
      5 C          -6.8733  -14.9200   26.5053 C.3     1  UNL1        0.0005
      6 C          -6.6183  -14.9101   25.0272 C.3     1  UNL1        0.0087
      7 C          -5.5013  -15.8701   24.7431 C.3     1  UNL1        0.0704
      8 C          -4.6533  -16.4573   23.6541 C.3     1  UNL1        0.0243
      9 C          -5.9365  -15.2669   23.4406 C.2     1  UNL1        0.2250
     10 O          -4.9731  -14.4470   22.6347 O.2     1  UNL1       -0.2749
     11 N          -7.3353  -15.4835   22.9439 N.am    1  UNL1       -0.2750
     12 C          -7.7705  -14.8803   21.6414 C.3     1  UNL1        0.1000
     13 C          -9.1692  -15.0970   21.1448 C.3     1  UNL1        0.0670
     14 C         -10.1327  -15.9169   21.9507 C.ar    1  UNL1        0.0583
     15 N         -11.5314  -16.1336   21.4540 N.ar    1  UNL1       -0.2484
     16 C         -12.4949  -16.9535   22.2600 C.ar    1  UNL1        0.1023
     17 C         -12.0595  -17.5568   23.5626 C.ar    1  UNL1        0.0902
     18 C         -10.6609  -17.3401   24.0592 C.ar    1  UNL1        0.0040
     19 C          -9.6974  -16.5202   23.2532 C.ar    1  UNL1        0.0113
     20 C          -8.2987  -16.3035   23.7498 C.3     1  UNL1        0.1213
     21 C         -13.0230  -18.3767   24.3685 C.3     1  UNL1        0.4200
     22 F         -13.9864  -19.1966   25.1744 F       1  UNL1       -0.1658
     23 F         -14.1481  -17.4879   23.9278 F       1  UNL1       -0.1658
     24 F         -11.8979  -19.2655   24.8092 F       1  UNL1       -0.1658
     25 N          -2.6609  -18.2369   23.5616 N.3     1  UNL1       -0.2975
     26 H          -1.7517  -17.8493   23.8140 H       1  UNL1        0.1232
     27 C          -3.7575  -19.1372   21.3852 C.3     1  UNL1        0.1591
     28 C          -3.7880  -19.2305   19.8884 C.3     1  UNL1        0.1729
     29 O          -2.7524  -18.5167   19.0712 O.3     1  UNL1       -0.3511
     30 C          -1.6861  -17.7096   19.7508 C.3     1  UNL1        0.1437
     31 C          -1.6556  -17.6163   21.2476 C.3     1  UNL1        0.0503
     32 C          -2.6914  -18.3302   22.0648 C.3     1  UNL1        0.0865
     33 C          -6.2432  -19.4989   22.0489 C.3     1  UNL1        0.1742
     34 O          -4.7932  -19.8510   22.2024 O.3     1  UNL1       -0.3496
@<TRIPOS>BOND
     1    33    34    1
     2    27    34    1
     3    27    28    1
     4    28    29    1
     5    29    30    1
     6    30    31    1
     7    31    32    1
     8    32    25    1
     9     1    25    1
    10     1     2    1
    11     3     2    1
    12     3     4    1
    13     4     5    1
    14     5     6    1
    15     6     7    1
    16     7     9    1
    17     9    10    2
    18     9    11   am
    19    11    12    1
    20    12    13    1
    21    13    14    1
    22    14    15   ar
    23    15    16   ar
    24    16    17   ar
    25    17    21    1
    26    21    22    1
    27    21    23    1
    28    21    24    1
    29    17    18   ar
    30    18    19   ar
    31    19    20    1
    32     7     8    1
    33    32    27    1
    34     8     1    1
    35     7     3    1
    36    20    11    1
    37    19    14   ar
    38    25    26    1
@<TRIPOS>MOLECULE
*****
 34 38 0 0 0
SMALL
GASTEIGER

@<TRIPOS>ATOM
      1 C           3.9793   -0.8061   20.3456 C.3     1  UNL1        0.0545
      2 C           2.8689   -1.7657   20.0353 C.3     1  UNL1        0.0162
      3 C           3.4846   -3.0558   19.5809 C.3     1  UNL1        0.0095
      4 C           3.1789   -4.4462   19.1083 C.3     1  UNL1        0.0005
      5 C           4.4809   -5.1432   18.8457 C.3     1  UNL1        0.0005
      6 C           5.5913   -4.1837   19.1559 C.3     1  UNL1        0.0087
      7 C           4.9756   -2.8935   19.6103 C.3     1  UNL1        0.0704
      8 C           5.2812   -1.5032   20.0829 C.3     1  UNL1        0.0243
      9 C           6.4664   -2.7313   19.6397 C.2     1  UNL1        0.2250
     10 O           7.1939   -2.2600   18.4155 O.2     1  UNL1       -0.2749
     11 N           7.2299   -3.0403   20.8934 N.am    1  UNL1       -0.2750
     12 C           8.7208   -2.8780   20.9228 C.3     1  UNL1        0.1000
     13 C           9.4842   -3.1870   22.1764 C.3     1  UNL1        0.0670
     14 C           8.7568   -3.6583   23.4007 C.ar    1  UNL1        0.0583
     15 N           9.5203   -3.9673   24.6543 N.ar    1  UNL1       -0.2484
     16 C           8.7929   -4.4386   25.8786 C.ar    1  UNL1        0.1023
     17 C           7.3019   -4.6009   25.8491 C.ar    1  UNL1        0.0902
     18 C           6.5385   -4.2919   24.5955 C.ar    1  UNL1        0.0040
     19 C           7.2659   -3.8206   23.3713 C.ar    1  UNL1        0.0113
     20 C           6.5025   -3.5116   22.1176 C.3     1  UNL1        0.1213
     21 C           6.5745   -5.0721   27.0733 C.3     1  UNL1        0.4200
     22 F           5.8470   -5.5434   28.2976 F       1  UNL1       -0.1658
     23 F           6.4247   -6.4330   26.4605 F       1  UNL1       -0.1658
     24 F           6.7242   -3.7113   27.6862 F       1  UNL1       -0.1658
     25 N           3.8163    0.6032   20.8330 N.3     1  UNL1       -0.2975
     26 H           4.6458    0.8217   21.3849 H       1  UNL1        0.1232
     27 C           1.4819    1.7214   21.0568 C.3     1  UNL1        0.1591
     28 C           0.2943    2.0927   21.8945 C.3     1  UNL1        0.1729
     29 O           0.2535    1.7170   23.3461 O.3     1  UNL1       -0.3511
     30 C           1.4003    0.9699   23.9600 C.3     1  UNL1        0.1437
     31 C           2.5879    0.5987   23.1223 C.3     1  UNL1        0.0503
     32 C           2.6287    0.9745   21.6707 C.3     1  UNL1        0.0865
     33 C           0.9703    1.1603   18.5722 C.3     1  UNL1        0.1742
     34 O           1.5228    2.0972   19.6052 O.3     1  UNL1       -0.3496
@<TRIPOS>BOND
     1    33    34    1
     2    27    34    1
     3    27    28    1
     4    28    29    1
     5    29    30    1
     6    30    31    1
     7    31    32    1
     8    32    25    1
     9     1    25    1
    10     1     2    1
    11     3     2    1
    12     3     4    1
    13     4     5    1
    14     5     6    1
    15     6     7    1
    16     7     9    1
    17     9    10    2
    18     9    11   am
    19    11    12    1
    20    12    13    1
    21    13    14    1
    22    14    15   ar
    23    15    16   ar
    24    16    17   ar
    25    17    21    1
    26    21    22    1
    27    21    23    1
    28    21    24    1
    29    17    18   ar
    30    18    19   ar
    31    19    20    1
    32     7     8    1
    33    32    27    1
    34     8     1    1
    35     7     3    1
    36    20    11    1
    37    19    14   ar
    38    25    26    1
@<TRIPOS>MOLECULE
*****
 34 38 0 0 0
SMALL
GASTEIGER

@<TRIPOS>ATOM
      1 C           6.3766   -4.9167   28.4101 C.3     1  UNL1        0.0545
      2 C           6.4657   -4.9909   29.9056 C.3     1  UNL1        0.0162
      3 C           6.7445   -3.6106   30.4224 C.3     1  UNL1        0.0095
      4 C           6.9720   -2.8034   31.6660 C.3     1  UNL1        0.0005
      5 C           7.1958   -1.3773   31.2585 C.3     1  UNL1        0.0005
      6 C           7.1067   -1.3031   29.7630 C.3     1  UNL1        0.0087
      7 C           6.8278   -2.6834   29.2462 C.3     1  UNL1        0.0704
      8 C           6.6004   -3.4906   28.0026 C.3     1  UNL1        0.0243
      9 C           6.9111   -1.7562   28.0701 C.2     1  UNL1        0.2250
     10 O           8.1990   -1.6178   27.3138 O.2     1  UNL1       -0.2749
     11 N           5.7063   -0.9672   27.6502 N.am    1  UNL1       -0.2750
     12 C           5.7896   -0.0400   26.4741 C.3     1  UNL1        0.1000
     13 C           4.5849    0.7489   26.0543 C.3     1  UNL1        0.0670
     14 C           3.2969    0.6106   26.8106 C.ar    1  UNL1        0.0583
     15 N           2.0921    1.3995   26.3907 N.ar    1  UNL1       -0.2484
     16 C           0.8042    1.2612   27.1471 C.ar    1  UNL1        0.1023
     17 C           0.7210    0.3339   28.3232 C.ar    1  UNL1        0.0902
     18 C           1.9257   -0.4549   28.7431 C.ar    1  UNL1        0.0040
     19 C           3.2136   -0.3166   27.9867 C.ar    1  UNL1        0.0113
     20 C           4.4183   -1.1055   28.4065 C.3     1  UNL1        0.1213
     21 C          -0.5670    0.1956   29.0796 C.3     1  UNL1        0.4200
     22 F          -1.8550    0.0573   29.8359 F       1  UNL1       -0.1658
     23 F          -0.0797    1.1900   30.0913 F       1  UNL1       -0.1658
     24 F          -1.0543   -0.7988   28.0678 F       1  UNL1       -0.1658
     25 N           6.1104   -6.0668   27.4846 N.3     1  UNL1       -0.2975
     26 H           6.3534   -6.9167   27.9935 H       1  UNL1        0.1232
     27 C           7.5081   -7.4030   25.7494 C.3     1  UNL1        0.1591
     28 C           8.2074   -7.4768   24.4245 C.3     1  UNL1        0.1729
     29 O           8.2083   -6.2881   23.5097 O.3     1  UNL1       -0.3511
     30 C           7.5099   -5.0255   23.9198 C.3     1  UNL1        0.1437
     31 C           6.8105   -4.9518   25.2448 C.3     1  UNL1        0.0503
     32 C           6.8097   -6.1406   26.1596 C.3     1  UNL1        0.0865
     33 C           8.5907   -8.7499   27.6896 C.3     1  UNL1        0.1742
     34 O           7.5072   -8.5918   26.6642 O.3     1  UNL1       -0.3496
@<TRIPOS>BOND
     1    33    34    1
     2    27    34    1
     3    27    28    1
     4    28    29    1
     5    29    30    1
     6    30    31    1
     7    31    32    1
     8    32    25    1
     9     1    25    1
    10     1     2    1
    11     3     2    1
    12     3     4    1
    13     4     5    1
    14     5     6    1
    15     6     7    1
    16     7     9    1
    17     9    10    2
    18     9    11   am
    19    11    12    1
    20    12    13    1
    21    13    14    1
    22    14    15   ar
    23    15    16   ar
    24    16    17   ar
    25    17    21    1
    26    21    22    1
    27    21    23    1
    28    21    24    1
    29    17    18   ar
    30    18    19   ar
    31    19    20    1
    32     7     8    1
    33    32    27    1
    34     8     1    1
    35     7     3    1
    36    20    11    1
    37    19    14   ar
    38    25    26    1
@<TRIPOS>MOLECULE
*****
 34 38 0 0 0
SMALL
GASTEIGER

@<TRIPOS>ATOM
      1 C           0.8551    2.0887   18.2384 C.3     1  UNL1        0.0545
      2 C           1.9507    3.0576   18.5709 C.3     1  UNL1        0.0162
      3 C           1.4100    4.4460   18.3978 C.3     1  UNL1        0.0095
      4 C           1.7530    5.9030   18.4963 C.3     1  UNL1        0.0005
      5 C           0.5351    6.6925   18.1176 C.3     1  UNL1        0.0005
      6 C          -0.5606    5.7236   17.7851 C.3     1  UNL1        0.0087
      7 C          -0.0199    4.3352   17.9582 C.3     1  UNL1        0.0704
      8 C          -0.3628    2.8782   17.8597 C.3     1  UNL1        0.0243
      9 C          -1.4497    4.2243   17.5187 C.2     1  UNL1        0.2250
     10 O          -1.7926    4.2837   16.0596 O.2     1  UNL1       -0.2749
     11 N          -2.5367    4.0539   18.5383 N.am    1  UNL1       -0.2750
     12 C          -3.9666    3.9430   18.0987 C.3     1  UNL1        0.1000
     13 C          -5.0535    3.7726   19.1183 C.3     1  UNL1        0.0670
     14 C          -4.7106    3.7132   20.5773 C.ar    1  UNL1        0.0583
     15 N          -5.7976    3.5428   21.5969 N.ar    1  UNL1       -0.2484
     16 C          -5.4547    3.4834   23.0560 C.ar    1  UNL1        0.1023
     17 C          -4.0248    3.5943   23.4955 C.ar    1  UNL1        0.0902
     18 C          -2.9379    3.7647   22.4759 C.ar    1  UNL1        0.0040
     19 C          -3.2808    3.8241   21.0169 C.ar    1  UNL1        0.0113
     20 C          -2.1938    3.9945   19.9973 C.3     1  UNL1        0.1213
     21 C          -3.6819    3.5349   24.9546 C.3     1  UNL1        0.4200
     22 F          -3.3390    3.4755   26.4136 F       1  UNL1       -0.1658
     23 F          -5.1160    3.8037   25.3025 F       1  UNL1       -0.1658
     24 F          -2.2478    3.2661   24.6066 F       1  UNL1       -0.1658
     25 N           0.9590    0.5928   18.2776 N.3     1  UNL1       -0.2975
     26 H           0.0312    0.2392   18.5111 H       1  UNL1        0.1232
     27 C           1.5790   -0.2045   20.6714 C.3     1  UNL1        0.1591
     28 C           2.5432   -0.8649   21.6116 C.3     1  UNL1        0.1729
     29 O           3.8518   -1.3884   21.0984 O.3     1  UNL1       -0.3511
     30 C           4.1962   -1.2515   19.6448 C.3     1  UNL1        0.1437
     31 C           3.2319   -0.5912   18.7046 C.3     1  UNL1        0.0503
     32 C           1.9233   -0.0676   19.2179 C.3     1  UNL1        0.0865
     33 C           0.2008    1.6804   21.8106 C.3     1  UNL1        0.1742
     34 O           0.2704    0.3190   21.1846 O.3     1  UNL1       -0.3496
@<TRIPOS>BOND
     1    33    34    1
     2    27    34    1
     3    27    28    1
     4    28    29    1
     5    29    30    1
     6    30    31    1
     7    31    32    1
     8    32    25    1
     9     1    25    1
    10     1     2    1
    11     3     2    1
    12     3     4    1
    13     4     5    1
    14     5     6    1
    15     6     7    1
    16     7     9    1
    17     9    10    2
    18     9    11   am
    19    11    12    1
    20    12    13    1
    21    13    14    1
    22    14    15   ar
    23    15    16   ar
    24    16    17   ar
    25    17    21    1
    26    21    22    1
    27    21    23    1
    28    21    24    1
    29    17    18   ar
    30    18    19   ar
    31    19    20    1
    32     7     8    1
    33    32    27    1
    34     8     1    1
    35     7     3    1
    36    20    11    1
    37    19    14   ar
    38    25    26    1
@<TRIPOS>MOLECULE
*****
 34 38 0 0 0
SMALL
GASTEIGER

@<TRIPOS>ATOM
      1 C           1.8084    1.2590   18.9780 C.3     1  UNL1        0.0545
      2 C           2.4835    2.5962   18.9008 C.3     1  UNL1        0.0162
      3 C           3.8365    2.3976   18.2846 C.3     1  UNL1        0.0095
      4 C           5.0900    3.1012   17.8560 C.3     1  UNL1        0.0005
      5 C           6.0258    2.0760   17.2874 C.3     1  UNL1        0.0005
      6 C           5.3507    0.7388   17.3645 C.3     1  UNL1        0.0087
      7 C           3.9977    0.9374   17.9808 C.3     1  UNL1        0.0704
      8 C           2.7442    0.2338   18.4094 C.3     1  UNL1        0.0243
      9 C           4.1588   -0.5226   17.6771 C.2     1  UNL1        0.2250
     10 O           3.9231   -1.0296   16.2851 O.2     1  UNL1       -0.2749
     11 N           4.5556   -1.4757   18.7653 N.am    1  UNL1       -0.2750
     12 C           4.7167   -2.9358   18.4615 C.3     1  UNL1        0.1000
     13 C           5.1134   -3.8888   19.5497 C.3     1  UNL1        0.0670
     14 C           5.3491   -3.3819   20.9416 C.ar    1  UNL1        0.0583
     15 N           5.7459   -4.3350   22.0299 N.ar    1  UNL1       -0.2484
     16 C           5.9816   -3.8281   23.4218 C.ar    1  UNL1        0.1023
     17 C           5.8204   -2.3680   23.7255 C.ar    1  UNL1        0.0902
     18 C           5.4237   -1.4149   22.6373 C.ar    1  UNL1        0.0040
     19 C           5.1880   -1.9219   21.2454 C.ar    1  UNL1        0.0113
     20 C           4.7912   -0.9688   20.1572 C.3     1  UNL1        0.1213
     21 C           6.0561   -1.8610   25.1174 C.3     1  UNL1        0.4200
     22 F           6.2918   -1.3540   26.5093 F       1  UNL1       -0.1658
     23 F           6.5941   -3.2035   25.5153 F       1  UNL1       -0.1658
     24 F           5.5182   -0.5185   24.7195 F       1  UNL1       -0.1658
     25 N           0.4380    0.9935   19.5273 N.3     1  UNL1       -0.2975
     26 H          -0.2216    1.1641   18.7682 H       1  UNL1        0.1232
     27 C           0.5494    1.5359   22.0656 C.3     1  UNL1        0.1591
     28 C           0.0541    2.3091   23.2518 C.3     1  UNL1        0.1729
     29 O          -1.0479    3.3130   23.0856 O.3     1  UNL1       -0.3511
     30 C          -1.6547    3.5438   21.7333 C.3     1  UNL1        0.1437
     31 C          -1.1594    2.7706   20.5472 C.3     1  UNL1        0.0503
     32 C          -0.0573    1.7666   20.7134 C.3     1  UNL1        0.0865
     33 C           2.2950    0.3397   23.5730 C.3     1  UNL1        0.1742
     34 O           1.6515    0.5320   22.2318 O.3     1  UNL1       -0.3496
@<TRIPOS>BOND
     1    33    34    1
     2    27    34    1
     3    27    28    1
     4    28    29    1
     5    29    30    1
     6    30    31    1
     7    31    32    1
     8    32    25    1
     9     1    25    1
    10     1     2    1
    11     3     2    1
    12     3     4    1
    13     4     5    1
    14     5     6    1
    15     6     7    1
    16     7     9    1
    17     9    10    2
    18     9    11   am
    19    11    12    1
    20    12    13    1
    21    13    14    1
    22    14    15   ar
    23    15    16   ar
    24    16    17   ar
    25    17    21    1
    26    21    22    1
    27    21    23    1
    28    21    24    1
    29    17    18   ar
    30    18    19   ar
    31    19    20    1
    32     7     8    1
    33    32    27    1
    34     8     1    1
    35     7     3    1
    36    20    11    1
    37    19    14   ar
    38    25    26    1
@<TRIPOS>MOLECULE
*****
 34 38 0 0 0
SMALL
GASTEIGER

@<TRIPOS>ATOM
      1 C          -4.4794    3.6701   22.1265 C.3     1  UNL1        0.0545
      2 C          -5.8585    3.6532   22.7162 C.3     1  UNL1        0.0162
      3 C          -5.9143    4.6942   23.7947 C.3     1  UNL1        0.0095
      4 C          -6.8011    5.3271   24.8257 C.3     1  UNL1        0.0005
      5 C          -6.0045    6.3786   25.5397 C.3     1  UNL1        0.0005
      6 C          -4.6254    6.3956   24.9501 C.3     1  UNL1        0.0087
      7 C          -4.5696    5.3546   23.8716 C.3     1  UNL1        0.0704
      8 C          -3.6828    4.7216   22.8406 C.3     1  UNL1        0.0243
      9 C          -3.2250    6.0149   23.9484 C.2     1  UNL1        0.2250
     10 O          -2.9793    7.3031   23.2203 O.2     1  UNL1       -0.2749
     11 N          -2.1259    5.3869   24.7534 N.am    1  UNL1       -0.2750
     12 C          -0.7813    6.0472   24.8303 C.3     1  UNL1        0.1000
     13 C           0.3176    5.4193   25.6352 C.3     1  UNL1        0.0670
     14 C           0.0719    4.1311   26.3633 C.ar    1  UNL1        0.0583
     15 N           1.1710    3.5032   27.1683 N.ar    1  UNL1       -0.2484
     16 C           0.9253    2.2150   27.8964 C.ar    1  UNL1        0.1023
     17 C          -0.4194    1.5547   27.8195 C.ar    1  UNL1        0.0902
     18 C          -1.5184    2.1826   27.0146 C.ar    1  UNL1        0.0040
     19 C          -1.2727    3.4708   26.2865 C.ar    1  UNL1        0.0113
     20 C          -2.3716    4.0987   25.4815 C.3     1  UNL1        0.1213
     21 C          -0.6651    0.2665   28.5476 C.3     1  UNL1        0.4200
     22 F          -0.9108   -1.0218   29.2757 F       1  UNL1       -0.1658
     23 F           0.7639   -0.1316   28.3255 F       1  UNL1       -0.1658
     24 F          -2.0941    0.6646   28.7698 F       1  UNL1       -0.1658
     25 N          -3.9838    2.7901   21.0174 N.3     1  UNL1       -0.2975
     26 H          -3.4981    2.0080   21.4568 H       1  UNL1        0.1232
     27 C          -1.5814    3.0982   20.0773 C.3     1  UNL1        0.1591
     28 C          -0.6552    3.6534   19.0363 C.3     1  UNL1        0.1729
     29 O          -1.2049    4.4558   17.8944 O.3     1  UNL1       -0.3511
     30 C          -2.6810    4.7029   17.7935 C.3     1  UNL1        0.1437
     31 C          -3.6073    4.1477   18.8345 C.3     1  UNL1        0.0503
     32 C          -3.0575    3.3453   19.9764 C.3     1  UNL1        0.0865
     33 C          -0.4945    2.9916   22.4347 C.3     1  UNL1        0.1742
     34 O          -1.0317    2.2958   21.2192 O.3     1  UNL1       -0.3496
@<TRIPOS>BOND
     1    33    34    1
     2    27    34    1
     3    27    28    1
     4    28    29    1
     5    29    30    1
     6    30    31    1
     7    31    32    1
     8    32    25    1
     9     1    25    1
    10     1     2    1
    11     3     2    1
    12     3     4    1
    13     4     5    1
    14     5     6    1
    15     6     7    1
    16     7     9    1
    17     9    10    2
    18     9    11   am
    19    11    12    1
    20    12    13    1
    21    13    14    1
    22    14    15   ar
    23    15    16   ar
    24    16    17   ar
    25    17    21    1
    26    21    22    1
    27    21    23    1
    28    21    24    1
    29    17    18   ar
    30    18    19   ar
    31    19    20    1
    32     7     8    1
    33    32    27    1
    34     8     1    1
    35     7     3    1
    36    20    11    1
    37    19    14   ar
    38    25    26    1
