@<TRIPOS>MOLECULE
*****
 39 44 0 0 0
SMALL
GASTEIGER

@<TRIPOS>ATOM
      1 C           6.3486   -2.6376   20.9907 C.3     1  UNL1        0.0745
      2 C           7.5289   -2.6140   20.0653 C.3     1  UNL1        0.0356
      3 C           8.6691   -3.5647   20.2797 C.3     1  UNL1        0.0594
      4 C           9.5358   -4.6470   20.8519 C.3     1  UNL1        0.0174
      5 C           8.8311   -5.2233   22.0442 C.3     1  UNL1        0.0174
      6 C           7.5290   -4.4971   22.2087 C.3     1  UNL1        0.0594
      7 C           6.3084   -3.6120   22.1303 C.3     1  UNL1        0.0356
      8 N           7.4288   -3.4721   21.1182 N.3     1  UNL1       -0.2715
      9 O           4.2541   -3.2473   18.9312 O.2     1  UNL1       -0.2701
     10 C           4.1611   -1.9916   19.7465 C.2     1  UNL1        0.2459
     11 N           5.2084   -1.6868   20.7763 N.am    1  UNL1       -0.3024
     12 H           5.1473   -0.8627   21.3114 H       1  UNL1        0.1497
     13 C           3.0209   -1.0409   19.5321 C.ar    1  UNL1        0.0577
     14 C           1.8571   -1.0400   20.4784 C.ar    1  UNL1        0.0047
     15 C           0.7169   -0.0893   20.2639 C.ar    1  UNL1        0.0001
     16 C           0.7405    0.8606   19.1032 C.ar    1  UNL1        0.0001
     17 C           1.9044    0.8598   18.1570 C.ar    1  UNL1        0.0047
     18 C           3.0446   -0.0910   18.3715 C.ar    1  UNL1        0.0579
     19 C           4.2085   -0.0919   17.4252 C.2     1  UNL1        0.2492
     20 O           3.8503   -1.0523   16.3301 O.2     1  UNL1       -0.2699
     21 N           5.4022    0.7727   17.7038 N.am    1  UNL1       -0.2761
     22 C           6.5101    0.6972   16.6953 C.3     1  UNL1        0.0937
     23 C           7.8195    1.4288   16.6880 C.3     1  UNL1        0.0215
     24 C           8.3446    2.4166   17.6872 C.3     1  UNL1        0.0018
     25 C           7.6898    2.9168   18.9407 C.3     1  UNL1        0.0018
     26 C           6.3483    2.5527   19.5044 C.3     1  UNL1        0.0215
     27 C           5.3302    1.5985   18.9539 C.3     1  UNL1        0.0937
     28 C           6.2887   -2.5213   20.9039 C.3     1  UNL1        0.0991
     29 C           5.9877   -1.4679   21.9286 C.ar    1  UNL1       -0.0061
     30 C           6.7768   -0.1925   21.9471 C.ar    1  UNL1       -0.0029
     31 C           6.4758    0.8608   22.9717 C.ar    1  UNL1       -0.0002
     32 C           5.3857    0.6387   23.9778 C.ar    1  UNL1        0.0022
     33 C           5.0848    1.6920   25.0025 C.ar    1  UNL1        0.0296
     34 C           3.9946    1.4699   26.0086 C.ar    1  UNL1        0.1401
     35 F           3.6937    2.5232   27.0333 F       1  UNL1       -0.2042
     36 C           3.2055    0.1943   25.9901 C.ar    1  UNL1        0.0296
     37 C           3.5065   -0.8590   24.9654 C.ar    1  UNL1        0.0023
     38 C           4.5966   -0.6368   23.9593 C.ar    1  UNL1       -0.0001
     39 C           4.8976   -1.6901   22.9347 C.ar    1  UNL1       -0.0029
@<TRIPOS>BOND
     1     9    10    2
     2    10    11   am
     3     1    11    1
     4     1     2    1
     5     3     2    1
     6     3     4    1
     7     4     5    1
     8     6     5    1
     9     6     7    1
    10     6     8    1
    11     8    28    1
    12    28    29    1
    13    29    30   ar
    14    30    31   ar
    15    31    32   ar
    16    32    33   ar
    17    33    34   ar
    18    34    35    1
    19    34    36   ar
    20    36    37   ar
    21    37    38   ar
    22    38    39   ar
    23    10    13    1
    24    13    14   ar
    25    14    15   ar
    26    15    16   ar
    27    16    17   ar
    28    17    18   ar
    29    18    19    1
    30    19    20    2
    31    19    21   am
    32    21    22    1
    33    22    23    1
    34    23    24    1
    35    24    25    1
    36    25    26    1
    37    26    27    1
    38     7     1    1
    39    39    29   ar
    40    18    13   ar
    41    27    21    1
    42     8     3    1
    43    38    32   ar
    44    11    12    1
@<TRIPOS>MOLECULE
*****
 39 44 0 0 0
SMALL
GASTEIGER

@<TRIPOS>ATOM
      1 C           6.8589    0.5841   17.9356 C.3     1  UNL1        0.0745
      2 C           7.8250    1.2894   18.8407 C.3     1  UNL1        0.0356
      3 C           8.7303    2.3510   18.2900 C.3     1  UNL1        0.0594
      4 C           9.4081    3.2985   17.3451 C.3     1  UNL1        0.0174
      5 C           8.8152    3.0970   15.9821 C.3     1  UNL1        0.0174
      6 C           7.7710    2.0251   16.0846 C.3     1  UNL1        0.0594
      7 C           6.7981    0.9405   16.4799 C.3     1  UNL1        0.0356
      8 N           7.7185    1.5640   17.5110 N.3     1  UNL1       -0.2715
      9 O           7.9117   -2.1837   18.4161 O.2     1  UNL1       -0.2701
     10 C           6.4800   -1.8615   18.7266 C.2     1  UNL1        0.2459
     11 N           5.9536   -0.4776   18.4864 N.am    1  UNL1       -0.3024
     12 H           5.0139   -0.2661   18.6902 H       1  UNL1        0.1497
     13 C           5.5747   -2.9232   19.2773 C.ar    1  UNL1        0.0577
     14 C           5.0509   -4.0030   18.3775 C.ar    1  UNL1        0.0047
     15 C           4.1457   -5.0646   18.9282 C.ar    1  UNL1        0.0001
     16 C           3.7642   -5.0466   20.3788 C.ar    1  UNL1        0.0001
     17 C           4.2880   -3.9668   21.2786 C.ar    1  UNL1        0.0047
     18 C           5.1933   -2.9051   20.7278 C.ar    1  UNL1        0.0579
     19 C           5.7171   -1.8253   21.6277 C.2     1  UNL1        0.2492
     20 O           7.1582   -2.1581   21.8773 O.2     1  UNL1       -0.2699
     21 N           4.8106   -0.7174   22.0761 N.am    1  UNL1       -0.2761
     22 C           5.4337    0.3104   22.9735 C.3     1  UNL1        0.0937
     23 C           4.8010    1.5256   23.5842 C.3     1  UNL1        0.0215
     24 C           3.3891    2.0132   23.4485 C.3     1  UNL1        0.0018
     25 C           2.2609    1.4059   22.6683 C.3     1  UNL1        0.0018
     26 C           2.2662    0.1612   21.8313 C.3     1  UNL1        0.0215
     27 C           3.4010   -0.7838   21.5677 C.3     1  UNL1        0.0937
     28 C           6.8132    0.5024   18.0617 C.3     1  UNL1        0.0991
     29 C           5.3386    0.7558   18.1692 C.ar    1  UNL1       -0.0061
     30 C           4.3654   -0.2083   17.5584 C.ar    1  UNL1       -0.0029
     31 C           2.8909    0.0452   17.6659 C.ar    1  UNL1       -0.0002
     32 C           2.3897    1.2628   18.3842 C.ar    1  UNL1        0.0022
     33 C           0.9151    1.5163   18.4917 C.ar    1  UNL1        0.0296
     34 C           0.4139    2.7340   19.2100 C.ar    1  UNL1        0.1401
     35 F          -1.0606    2.9875   19.3175 F       1  UNL1       -0.2042
     36 C           1.3872    3.6982   19.8208 C.ar    1  UNL1        0.0296
     37 C           2.8617    3.4447   19.7133 C.ar    1  UNL1        0.0023
     38 C           3.3629    2.2270   18.9950 C.ar    1  UNL1       -0.0001
     39 C           4.8374    1.9735   18.8875 C.ar    1  UNL1       -0.0029
@<TRIPOS>BOND
     1     9    10    2
     2    10    11   am
     3     1    11    1
     4     1     2    1
     5     3     2    1
     6     3     4    1
     7     4     5    1
     8     6     5    1
     9     6     7    1
    10     6     8    1
    11     8    28    1
    12    28    29    1
    13    29    30   ar
    14    30    31   ar
    15    31    32   ar
    16    32    33   ar
    17    33    34   ar
    18    34    35    1
    19    34    36   ar
    20    36    37   ar
    21    37    38   ar
    22    38    39   ar
    23    10    13    1
    24    13    14   ar
    25    14    15   ar
    26    15    16   ar
    27    16    17   ar
    28    17    18   ar
    29    18    19    1
    30    19    20    2
    31    19    21   am
    32    21    22    1
    33    22    23    1
    34    23    24    1
    35    24    25    1
    36    25    26    1
    37    26    27    1
    38     7     1    1
    39    39    29   ar
    40    18    13   ar
    41    27    21    1
    42     8     3    1
    43    38    32   ar
    44    11    12    1
@<TRIPOS>MOLECULE
*****
 39 44 0 0 0
SMALL
GASTEIGER

@<TRIPOS>ATOM
      1 C          -7.0932  -16.5131   23.4892 C.3     1  UNL1        0.0745
      2 C          -5.6261  -16.2076   23.5544 C.3     1  UNL1        0.0356
      3 C          -5.0546  -15.5276   24.7631 C.3     1  UNL1        0.0594
      4 C          -4.9326  -14.8685   26.1050 C.3     1  UNL1        0.0174
      5 C          -6.2968  -14.8288   26.7276 C.3     1  UNL1        0.0174
      6 C          -7.2618  -15.4632   25.7704 C.3     1  UNL1        0.0594
      7 C          -7.9888  -16.1387   24.6327 C.3     1  UNL1        0.0356
      8 N          -6.4942  -15.8951   24.5563 N.3     1  UNL1       -0.2715
      9 O          -6.2149  -19.2914   22.7756 O.2     1  UNL1       -0.2701
     10 C          -7.2256  -18.5823   21.9237 C.2     1  UNL1        0.2459
     11 N          -7.6647  -17.1931   22.2805 N.am    1  UNL1       -0.3024
     12 H          -8.3281  -16.7277   21.7214 H       1  UNL1        0.1497
     13 C          -7.7970  -19.2624   20.7150 C.ar    1  UNL1        0.0577
     14 C          -9.1601  -18.8843   20.2159 C.ar    1  UNL1        0.0047
     15 C          -9.7315  -19.5643   19.0072 C.ar    1  UNL1        0.0001
     16 C          -8.9398  -20.6225   18.2975 C.ar    1  UNL1        0.0001
     17 C          -7.5768  -21.0006   18.7966 C.ar    1  UNL1        0.0047
     18 C          -7.0053  -20.3205   20.0054 C.ar    1  UNL1        0.0579
     19 C          -5.6423  -20.6986   20.5044 C.2     1  UNL1        0.2492
     20 O          -5.8254  -21.9644   21.2882 O.2     1  UNL1       -0.2699
     21 N          -4.4573  -19.8411   20.1718 N.am    1  UNL1       -0.2761
     22 C          -3.1415  -20.3084   20.7197 C.3     1  UNL1        0.0937
     23 C          -1.7882  -19.6798   20.5663 C.3     1  UNL1        0.0215
     24 C          -1.4165  -18.4286   19.8273 C.3     1  UNL1        0.0018
     25 C          -2.3064  -17.4969   19.0589 C.3     1  UNL1        0.0018
     26 C          -3.7876  -17.5864   18.8400 C.3     1  UNL1        0.0215
     27 C          -4.7449  -18.6297   19.3352 C.3     1  UNL1        0.0937
     28 C          -7.0657  -16.5751   23.3476 C.3     1  UNL1        0.0991
     29 C          -8.5506  -16.7365   23.2098 C.ar    1  UNL1       -0.0061
     30 C          -9.2996  -15.9399   22.1830 C.ar    1  UNL1       -0.0029
     31 C         -10.7844  -16.1014   22.0452 C.ar    1  UNL1       -0.0002
     32 C         -11.5204  -17.0595   22.9343 C.ar    1  UNL1        0.0022
     33 C         -13.0053  -17.2210   22.7965 C.ar    1  UNL1        0.0296
     34 C         -13.7412  -18.1791   23.6855 C.ar    1  UNL1        0.1401
     35 F         -15.2261  -18.3406   23.5478 F       1  UNL1       -0.2042
     36 C         -12.9922  -18.9758   24.7124 C.ar    1  UNL1        0.0296
     37 C         -11.5073  -18.8143   24.8502 C.ar    1  UNL1        0.0023
     38 C         -10.7714  -17.8562   23.9611 C.ar    1  UNL1       -0.0001
     39 C          -9.2865  -17.6947   24.0989 C.ar    1  UNL1       -0.0029
@<TRIPOS>BOND
     1     9    10    2
     2    10    11   am
     3     1    11    1
     4     1     2    1
     5     3     2    1
     6     3     4    1
     7     4     5    1
     8     6     5    1
     9     6     7    1
    10     6     8    1
    11     8    28    1
    12    28    29    1
    13    29    30   ar
    14    30    31   ar
    15    31    32   ar
    16    32    33   ar
    17    33    34   ar
    18    34    35    1
    19    34    36   ar
    20    36    37   ar
    21    37    38   ar
    22    38    39   ar
    23    10    13    1
    24    13    14   ar
    25    14    15   ar
    26    15    16   ar
    27    16    17   ar
    28    17    18   ar
    29    18    19    1
    30    19    20    2
    31    19    21   am
    32    21    22    1
    33    22    23    1
    34    23    24    1
    35    24    25    1
    36    25    26    1
    37    26    27    1
    38     7     1    1
    39    39    29   ar
    40    18    13   ar
    41    27    21    1
    42     8     3    1
    43    38    32   ar
    44    11    12    1
@<TRIPOS>MOLECULE
*****
 39 44 0 0 0
SMALL
GASTEIGER

@<TRIPOS>ATOM
      1 C          -2.4779    3.5103   20.7221 C.3     1  UNL1        0.0745
      2 C          -2.0769    4.0029   19.3632 C.3     1  UNL1        0.0356
      3 C          -3.1043    4.1283   18.2776 C.3     1  UNL1        0.0594
      4 C          -4.4079    4.0943   17.5364 C.3     1  UNL1        0.0174
      5 C          -5.4641    3.5979   18.4787 C.3     1  UNL1        0.0174
      6 C          -4.8133    3.3252   19.8024 C.3     1  UNL1        0.0594
      7 C          -3.9063    3.1432   20.9954 C.3     1  UNL1        0.0356
      8 N          -3.3549    3.6530   19.6781 N.3     1  UNL1       -0.2715
      9 O          -0.5247    1.2335   20.6830 O.2     1  UNL1       -0.2701
     10 C          -0.4738    2.2465   21.7882 C.2     1  UNL1        0.2459
     11 N          -1.4503    3.3849   21.8078 N.am    1  UNL1       -0.3024
     12 H          -1.4169    4.0497   22.5331 H       1  UNL1        0.1497
     13 C           0.5537    2.1210   22.8737 C.ar    1  UNL1        0.0577
     14 C           0.1211    1.9528   24.3001 C.ar    1  UNL1        0.0047
     15 C           1.1486    1.8273   25.3856 C.ar    1  UNL1        0.0001
     16 C           2.6088    1.8700   25.0448 C.ar    1  UNL1        0.0001
     17 C           3.0414    2.0382   23.6184 C.ar    1  UNL1        0.0047
     18 C           2.0138    2.1637   22.5329 C.ar    1  UNL1        0.0579
     19 C           2.4464    2.3319   21.1065 C.2     1  UNL1        0.2492
     20 O           2.3780    3.8035   20.8245 O.2     1  UNL1       -0.2699
     21 N           2.8318    1.1318   20.2932 N.am    1  UNL1       -0.2761
     22 C           3.2486    1.4103   18.8794 C.3     1  UNL1        0.0937
     23 C           3.6860    0.4378   17.8245 C.3     1  UNL1        0.0215
     24 C           3.8146   -1.0534   17.9228 C.3     1  UNL1        0.0018
     25 C           3.5376   -1.9405   19.1003 C.3     1  UNL1        0.0018
     26 C           3.0635   -1.5553   20.4703 C.3     1  UNL1        0.0215
     27 C           2.7495   -0.1880   21.0012 C.3     1  UNL1        0.0937
     28 C          -2.3274    3.5276   20.7637 C.3     1  UNL1        0.0991
     29 C          -2.4991    4.2809   22.0495 C.ar    1  UNL1       -0.0061
     30 C          -1.9391    5.6654   22.1881 C.ar    1  UNL1       -0.0029
     31 C          -2.1107    6.4186   23.4738 C.ar    1  UNL1       -0.0002
     32 C          -2.8423    5.7872   24.6210 C.ar    1  UNL1        0.0022
     33 C          -3.0140    6.5405   25.9068 C.ar    1  UNL1        0.0296
     34 C          -3.7456    5.9091   27.0540 C.ar    1  UNL1        0.1401
     35 F          -3.9172    6.6623   28.3398 F       1  UNL1       -0.2042
     36 C          -4.3056    4.5244   26.9154 C.ar    1  UNL1        0.0296
     37 C          -4.1340    3.7712   25.6296 C.ar    1  UNL1        0.0023
     38 C          -3.4023    4.4026   24.4825 C.ar    1  UNL1       -0.0001
     39 C          -3.2307    3.6494   23.1967 C.ar    1  UNL1       -0.0029
@<TRIPOS>BOND
     1     9    10    2
     2    10    11   am
     3     1    11    1
     4     1     2    1
     5     3     2    1
     6     3     4    1
     7     4     5    1
     8     6     5    1
     9     6     7    1
    10     6     8    1
    11     8    28    1
    12    28    29    1
    13    29    30   ar
    14    30    31   ar
    15    31    32   ar
    16    32    33   ar
    17    33    34   ar
    18    34    35    1
    19    34    36   ar
    20    36    37   ar
    21    37    38   ar
    22    38    39   ar
    23    10    13    1
    24    13    14   ar
    25    14    15   ar
    26    15    16   ar
    27    16    17   ar
    28    17    18   ar
    29    18    19    1
    30    19    20    2
    31    19    21   am
    32    21    22    1
    33    22    23    1
    34    23    24    1
    35    24    25    1
    36    25    26    1
    37    26    27    1
    38     7     1    1
    39    39    29   ar
    40    18    13   ar
    41    27    21    1
    42     8     3    1
    43    38    32   ar
    44    11    12    1
@<TRIPOS>MOLECULE
*****
 39 44 0 0 0
SMALL
GASTEIGER

@<TRIPOS>ATOM
      1 C           3.3762    1.5022   18.7563 C.3     1  UNL1        0.0745
      2 C           4.5106    2.3718   18.3013 C.3     1  UNL1        0.0356
      3 C           4.2428    3.7742   17.8415 C.3     1  UNL1        0.0594
      4 C           3.5357    5.0480   17.4846 C.3     1  UNL1        0.0174
      5 C           2.0712    4.8536   17.7447 C.3     1  UNL1        0.0174
      6 C           1.8733    3.4597   18.2623 C.3     1  UNL1        0.0594
      7 C           1.9741    2.0351   18.7517 C.3     1  UNL1        0.0356
      8 N           3.2154    2.7926   18.3221 N.3     1  UNL1       -0.2715
      9 O           3.7490   -0.6907   16.7434 O.2     1  UNL1       -0.2701
     10 C           3.8304   -0.9968   18.2096 C.2     1  UNL1        0.2459
     11 N           3.6440    0.0997   19.2161 N.am    1  UNL1       -0.3024
     12 H           3.6974   -0.1011   20.1784 H       1  UNL1        0.1497
     13 C           4.0981   -2.3992   18.6693 C.ar    1  UNL1        0.0577
     14 C           2.9562   -3.3450   18.8965 C.ar    1  UNL1        0.0047
     15 C           3.2240   -4.7474   19.3562 C.ar    1  UNL1        0.0001
     16 C           4.6338   -5.2042   19.5887 C.ar    1  UNL1        0.0001
     17 C           5.7757   -4.2585   19.3615 C.ar    1  UNL1        0.0047
     18 C           5.5078   -2.8560   18.9018 C.ar    1  UNL1        0.0579
     19 C           6.6498   -1.9102   18.6746 C.2     1  UNL1        0.2492
     20 O           6.9390   -1.9572   17.2035 O.2     1  UNL1       -0.2699
     21 N           7.2437   -1.1603   19.8300 N.am    1  UNL1       -0.2761
     22 C           8.3805   -0.2411   19.4939 C.3     1  UNL1        0.0937
     23 C           9.1766    0.6367   20.4135 C.3     1  UNL1        0.0215
     24 C           9.0327    0.8121   21.8962 C.3     1  UNL1        0.0018
     25 C           8.0570    0.1531   22.8256 C.3     1  UNL1        0.0018
     26 C           6.9843   -0.8442   22.5018 C.3     1  UNL1        0.0215
     27 C           6.6224   -1.4287   21.1686 C.3     1  UNL1        0.0937
     28 C           3.4832    1.3902   18.7819 C.3     1  UNL1        0.0991
     29 C           3.3357    1.0351   20.2318 C.ar    1  UNL1       -0.0061
     30 C           2.2964    0.0414   20.6587 C.ar    1  UNL1       -0.0029
     31 C           2.1489   -0.3135   22.1086 C.ar    1  UNL1       -0.0002
     32 C           3.0409    0.3252   23.1316 C.ar    1  UNL1        0.0022
     33 C           2.8934   -0.0298   24.5816 C.ar    1  UNL1        0.0296
     34 C           3.7853    0.6089   25.6046 C.ar    1  UNL1        0.1401
     35 F           3.6379    0.2540   27.0544 F       1  UNL1       -0.2042
     36 C           4.8247    1.6027   25.1776 C.ar    1  UNL1        0.0296
     37 C           4.9721    1.9576   23.7277 C.ar    1  UNL1        0.0023
     38 C           4.0802    1.3189   22.7047 C.ar    1  UNL1       -0.0001
     39 C           4.2276    1.6739   21.2548 C.ar    1  UNL1       -0.0029
@<TRIPOS>BOND
     1     9    10    2
     2    10    11   am
     3     1    11    1
     4     1     2    1
     5     3     2    1
     6     3     4    1
     7     4     5    1
     8     6     5    1
     9     6     7    1
    10     6     8    1
    11     8    28    1
    12    28    29    1
    13    29    30   ar
    14    30    31   ar
    15    31    32   ar
    16    32    33   ar
    17    33    34   ar
    18    34    35    1
    19    34    36   ar
    20    36    37   ar
    21    37    38   ar
    22    38    39   ar
    23    10    13    1
    24    13    14   ar
    25    14    15   ar
    26    15    16   ar
    27    16    17   ar
    28    17    18   ar
    29    18    19    1
    30    19    20    2
    31    19    21   am
    32    21    22    1
    33    22    23    1
    34    23    24    1
    35    24    25    1
    36    25    26    1
    37    26    27    1
    38     7     1    1
    39    39    29   ar
    40    18    13   ar
    41    27    21    1
    42     8     3    1
    43    38    32   ar
    44    11    12    1
@<TRIPOS>MOLECULE
*****
 39 44 0 0 0
SMALL
GASTEIGER

@<TRIPOS>ATOM
      1 C           6.4607   -2.5583   20.8149 C.3     1  UNL1        0.0745
      2 C           6.4356   -3.5056   21.9777 C.3     1  UNL1        0.0356
      3 C           7.5668   -4.4685   22.1852 C.3     1  UNL1        0.0594
      4 C           8.8535   -5.2180   22.0048 C.3     1  UNL1        0.0174
      5 C           9.5357   -4.6800   20.7819 C.3     1  UNL1        0.0174
      6 C           8.6706   -3.5980   20.2067 C.3     1  UNL1        0.0594
      7 C           7.6172   -2.5738   19.8598 C.3     1  UNL1        0.0356
      8 N           7.4538   -3.4673   21.0740 N.3     1  UNL1       -0.2715
      9 O           4.1738   -3.2957   19.0188 O.2     1  UNL1       -0.2701
     10 C           4.1859   -1.9641   19.7094 C.2     1  UNL1        0.2459
     11 N           5.3294   -1.5954   20.6074 N.am    1  UNL1       -0.3024
     12 H           5.3374   -0.7214   21.0606 H       1  UNL1        0.1497
     13 C           3.0546   -1.0013   19.5018 C.ar    1  UNL1        0.0577
     14 C           1.9009   -0.9819   20.4602 C.ar    1  UNL1        0.0047
     15 C           0.7696   -0.0190   20.2527 C.ar    1  UNL1        0.0001
     16 C           0.7920    0.9244   19.0867 C.ar    1  UNL1        0.0001
     17 C           1.9457    0.9050   18.1283 C.ar    1  UNL1        0.0047
     18 C           3.0771   -0.0579   18.3359 C.ar    1  UNL1        0.0579
     19 C           4.2308   -0.0773   17.3775 C.2     1  UNL1        0.2492
     20 O           3.9455   -1.1870   16.4095 O.2     1  UNL1       -0.2699
     21 N           5.3512    0.9081   17.5325 N.am    1  UNL1       -0.2761
     22 C           6.4548    0.8028   16.5220 C.3     1  UNL1        0.0937
     23 C           7.6996    1.6319   16.4070 C.3     1  UNL1        0.0215
     24 C           8.1482    2.7708   17.2738 C.3     1  UNL1        0.0018
     25 C           7.4628    3.3621   18.4700 C.3     1  UNL1        0.0018
     26 C           6.1595    2.9604   19.0946 C.3     1  UNL1        0.0215
     27 C           5.2198    1.8682   18.6773 C.3     1  UNL1        0.0937
     28 C           6.3225   -2.5044   20.8664 C.3     1  UNL1        0.0991
     29 C           6.4210   -1.1055   21.3990 C.ar    1  UNL1       -0.0061
     30 C           5.3010   -0.5339   22.2169 C.ar    1  UNL1       -0.0029
     31 C           5.3995    0.8649   22.7494 C.ar    1  UNL1       -0.0002
     32 C           6.6179    1.6920   22.4641 C.ar    1  UNL1        0.0022
     33 C           6.7163    3.0909   22.9967 C.ar    1  UNL1        0.0296
     34 C           7.9347    3.9180   22.7114 C.ar    1  UNL1        0.1401
     35 F           8.0331    5.3168   23.2439 F       1  UNL1       -0.2042
     36 C           9.0546    3.3463   21.8935 C.ar    1  UNL1        0.0296
     37 C           8.9562    1.9475   21.3609 C.ar    1  UNL1        0.0023
     38 C           7.7378    1.1204   21.6462 C.ar    1  UNL1       -0.0001
     39 C           7.6393   -0.2784   21.1137 C.ar    1  UNL1       -0.0029
@<TRIPOS>BOND
     1     9    10    2
     2    10    11   am
     3     1    11    1
     4     1     2    1
     5     3     2    1
     6     3     4    1
     7     4     5    1
     8     6     5    1
     9     6     7    1
    10     6     8    1
    11     8    28    1
    12    28    29    1
    13    29    30   ar
    14    30    31   ar
    15    31    32   ar
    16    32    33   ar
    17    33    34   ar
    18    34    35    1
    19    34    36   ar
    20    36    37   ar
    21    37    38   ar
    22    38    39   ar
    23    10    13    1
    24    13    14   ar
    25    14    15   ar
    26    15    16   ar
    27    16    17   ar
    28    17    18   ar
    29    18    19    1
    30    19    20    2
    31    19    21   am
    32    21    22    1
    33    22    23    1
    34    23    24    1
    35    24    25    1
    36    25    26    1
    37    26    27    1
    38     7     1    1
    39    39    29   ar
    40    18    13   ar
    41    27    21    1
    42     8     3    1
    43    38    32   ar
    44    11    12    1
@<TRIPOS>MOLECULE
*****
 39 44 0 0 0
SMALL
GASTEIGER

@<TRIPOS>ATOM
      1 C           2.8930    2.6623   37.0366 C.3     1  UNL1        0.0745
      2 C           3.1364    1.2254   37.3917 C.3     1  UNL1        0.0356
      3 C           2.3284    0.5731   38.4742 C.3     1  UNL1        0.0594
      4 C           1.3290    0.3491   39.5701 C.3     1  UNL1        0.0174
      5 C           0.5815    1.6318   39.7850 C.3     1  UNL1        0.0174
      6 C           1.1190    2.6484   38.8219 C.3     1  UNL1        0.0594
      7 C           1.8417    3.4469   37.7639 C.3     1  UNL1        0.0356
      8 N           2.1986    1.9942   38.0118 N.3     1  UNL1       -0.2715
      9 O           5.6574    3.6672   37.6270 O.2     1  UNL1       -0.2701
     10 C           5.0832    3.8169   36.2493 C.2     1  UNL1        0.2459
     11 N           3.7011    3.3145   35.9541 N.am    1  UNL1       -0.3024
     12 H           3.3242    3.4128   35.0499 H       1  UNL1        0.1497
     13 C           5.8912    4.4691   35.1668 C.ar    1  UNL1        0.0577
     14 C           5.7650    5.9436   34.9217 C.ar    1  UNL1        0.0047
     15 C           6.5730    6.5958   33.8393 C.ar    1  UNL1        0.0001
     16 C           7.5073    5.7735   33.0019 C.ar    1  UNL1        0.0001
     17 C           7.6336    4.2991   33.2471 C.ar    1  UNL1        0.0047
     18 C           6.8255    3.6469   34.3296 C.ar    1  UNL1        0.0579
     19 C           6.9517    2.1725   34.5747 C.2     1  UNL1        0.2492
     20 O           7.8844    2.0256   35.7402 O.2     1  UNL1       -0.2699
     21 N           6.2058    1.2015   33.7081 N.am    1  UNL1       -0.2761
     22 C           6.4015   -0.2486   34.0379 C.3     1  UNL1        0.0937
     23 C           5.8026   -1.4493   33.3673 C.3     1  UNL1        0.0215
     24 C           4.8602   -1.4965   32.2014 C.3     1  UNL1        0.0018
     25 C           4.2838   -0.3544   31.4180 C.3     1  UNL1        0.0018
     26 C           4.5076    1.1167   31.6070 C.3     1  UNL1        0.0215
     27 C           5.3630    1.8091   32.6263 C.3     1  UNL1        0.0937
     28 C           3.0066    2.6464   36.9293 C.3     1  UNL1        0.0991
     29 C           2.3410    3.0894   35.6601 C.ar    1  UNL1       -0.0061
     30 C           2.3273    2.1835   34.4647 C.ar    1  UNL1       -0.0029
     31 C           1.6617    2.6266   33.1956 C.ar    1  UNL1       -0.0002
     32 C           1.0098    3.9755   33.1219 C.ar    1  UNL1        0.0022
     33 C           0.3442    4.4185   31.8527 C.ar    1  UNL1        0.0296
     34 C          -0.3077    5.7674   31.7790 C.ar    1  UNL1        0.1401
     35 F          -0.9733    6.2104   30.5099 F       1  UNL1       -0.2042
     36 C          -0.2940    6.6733   32.9746 C.ar    1  UNL1        0.0296
     37 C           0.3716    6.2303   34.2437 C.ar    1  UNL1        0.0023
     38 C           1.0235    4.8814   34.3174 C.ar    1  UNL1       -0.0001
     39 C           1.6891    4.4383   35.5865 C.ar    1  UNL1       -0.0029
@<TRIPOS>BOND
     1     9    10    2
     2    10    11   am
     3     1    11    1
     4     1     2    1
     5     3     2    1
     6     3     4    1
     7     4     5    1
     8     6     5    1
     9     6     7    1
    10     6     8    1
    11     8    28    1
    12    28    29    1
    13    29    30   ar
    14    30    31   ar
    15    31    32   ar
    16    32    33   ar
    17    33    34   ar
    18    34    35    1
    19    34    36   ar
    20    36    37   ar
    21    37    38   ar
    22    38    39   ar
    23    10    13    1
    24    13    14   ar
    25    14    15   ar
    26    15    16   ar
    27    16    17   ar
    28    17    18   ar
    29    18    19    1
    30    19    20    2
    31    19    21   am
    32    21    22    1
    33    22    23    1
    34    23    24    1
    35    24    25    1
    36    25    26    1
    37    26    27    1
    38     7     1    1
    39    39    29   ar
    40    18    13   ar
    41    27    21    1
    42     8     3    1
    43    38    32   ar
    44    11    12    1
@<TRIPOS>MOLECULE
*****
 39 44 0 0 0
SMALL
GASTEIGER

@<TRIPOS>ATOM
      1 C          -0.5119    3.8013   19.0773 C.3     1  UNL1        0.0745
      2 C          -1.7695    3.9372   19.8836 C.3     1  UNL1        0.0356
      3 C          -3.1015    3.9739   19.1950 C.3     1  UNL1        0.0594
      4 C          -4.1574    3.9669   18.1296 C.3     1  UNL1        0.0174
      5 C          -3.4743    3.8313   16.8010 C.3     1  UNL1        0.0174
      6 C          -1.9963    3.7544   17.0454 C.3     1  UNL1        0.0594
      7 C          -0.5864    3.7022   17.5825 C.3     1  UNL1        0.0356
      8 N          -1.7660    3.8426   18.5249 N.3     1  UNL1       -0.2715
      9 O           0.9636    6.3550   19.6267 O.2     1  UNL1       -0.2701
     10 C           1.5580    5.0414   20.0407 C.2     1  UNL1        0.2459
     11 N           0.8202    3.7646   19.7660 N.am    1  UNL1       -0.3024
     12 H           1.2103    2.9025   20.0377 H       1  UNL1        0.1497
     13 C           2.8900    5.0048   20.7293 C.ar    1  UNL1        0.0577
     14 C           4.1420    4.7962   19.9299 C.ar    1  UNL1        0.0047
     15 C           5.4741    4.7595   20.6186 C.ar    1  UNL1        0.0001
     16 C           5.5542    4.9314   22.1066 C.ar    1  UNL1        0.0001
     17 C           4.3021    5.1400   22.9059 C.ar    1  UNL1        0.0047
     18 C           2.9700    5.1766   22.2172 C.ar    1  UNL1        0.0579
     19 C           1.7180    5.3852   23.0165 C.2     1  UNL1        0.2492
     20 O           1.3959    6.8460   22.9066 O.2     1  UNL1       -0.2699
     21 N           1.0713    4.2251   23.7137 N.am    1  UNL1       -0.2761
     22 C          -0.1754    4.5421   24.4851 C.3     1  UNL1        0.0937
     23 C          -1.0445    3.6137   25.2806 C.3     1  UNL1        0.0215
     24 C          -0.8815    2.1391   25.5012 C.3     1  UNL1        0.0018
     25 C           0.1909    1.2285   24.9807 C.3     1  UNL1        0.0018
     26 C           1.3651    1.5677   24.1111 C.3     1  UNL1        0.0215
     27 C           1.7569    2.9014   23.5472 C.3     1  UNL1        0.0937
     28 C          -0.4339    3.8058   19.2135 C.3     1  UNL1        0.0991
     29 C           0.2584    2.4942   19.4382 C.ar    1  UNL1       -0.0061
     30 C          -0.1602    1.6104   20.5755 C.ar    1  UNL1       -0.0029
     31 C           0.5321    0.2988   20.8001 C.ar    1  UNL1       -0.0002
     32 C           1.6429   -0.1290   19.8874 C.ar    1  UNL1        0.0022
     33 C           2.3352   -1.4406   20.1121 C.ar    1  UNL1        0.0296
     34 C           3.4460   -1.8684   19.1994 C.ar    1  UNL1        0.1401
     35 F           4.1383   -3.1800   19.4240 F       1  UNL1       -0.2042
     36 C           3.8646   -0.9845   18.0620 C.ar    1  UNL1        0.0296
     37 C           3.1723    0.3271   17.8374 C.ar    1  UNL1        0.0023
     38 C           2.0615    0.7548   18.7501 C.ar    1  UNL1       -0.0001
     39 C           1.3692    2.0664   18.5255 C.ar    1  UNL1       -0.0029
@<TRIPOS>BOND
     1     9    10    2
     2    10    11   am
     3     1    11    1
     4     1     2    1
     5     3     2    1
     6     3     4    1
     7     4     5    1
     8     6     5    1
     9     6     7    1
    10     6     8    1
    11     8    28    1
    12    28    29    1
    13    29    30   ar
    14    30    31   ar
    15    31    32   ar
    16    32    33   ar
    17    33    34   ar
    18    34    35    1
    19    34    36   ar
    20    36    37   ar
    21    37    38   ar
    22    38    39   ar
    23    10    13    1
    24    13    14   ar
    25    14    15   ar
    26    15    16   ar
    27    16    17   ar
    28    17    18   ar
    29    18    19    1
    30    19    20    2
    31    19    21   am
    32    21    22    1
    33    22    23    1
    34    23    24    1
    35    24    25    1
    36    25    26    1
    37    26    27    1
    38     7     1    1
    39    39    29   ar
    40    18    13   ar
    41    27    21    1
    42     8     3    1
    43    38    32   ar
    44    11    12    1
@<TRIPOS>MOLECULE
*****
 39 44 0 0 0
SMALL
GASTEIGER

@<TRIPOS>ATOM
      1 C           2.2520    1.7878   22.7512 C.3     1  UNL1        0.0745
      2 C           3.0837    1.8028   23.9994 C.3     1  UNL1        0.0356
      3 C           2.4361    1.5860   25.3348 C.3     1  UNL1        0.0594
      4 C           1.4078    1.3357   26.3978 C.3     1  UNL1        0.0174
      5 C           0.0735    1.1932   25.7275 C.3     1  UNL1        0.0174
      6 C           0.2771    1.3554   24.2503 C.3     1  UNL1        0.0594
      7 C           0.7727    1.5559   22.8384 C.3     1  UNL1        0.0356
      8 N           1.7373    1.5981   24.0076 N.3     1  UNL1       -0.2715
      9 O           2.9691    4.5627   21.8648 O.2     1  UNL1       -0.2701
     10 C           3.2583    3.3921   20.9725 C.2     1  UNL1        0.2459
     11 N           2.8998    2.0046   21.4157 N.am    1  UNL1       -0.3024
     12 H           3.0896    1.2363   20.8301 H       1  UNL1        0.1497
     13 C           3.9060    3.6089   19.6370 C.ar    1  UNL1        0.0577
     14 C           3.2249    4.4537   18.6014 C.ar    1  UNL1        0.0047
     15 C           3.8726    4.6706   17.2660 C.ar    1  UNL1        0.0001
     16 C           5.2015    4.0426   16.9661 C.ar    1  UNL1        0.0001
     17 C           5.8826    3.1979   18.0017 C.ar    1  UNL1        0.0047
     18 C           5.2348    2.9810   19.3372 C.ar    1  UNL1        0.0579
     19 C           5.9159    2.1362   20.3728 C.2     1  UNL1        0.2492
     20 O           5.9993    2.9834   21.6078 O.2     1  UNL1       -0.2699
     21 N           6.3505    0.7408   20.0350 N.am    1  UNL1       -0.2761
     22 C           7.0216   -0.0177   21.1415 C.3     1  UNL1        0.0937
     23 C           7.5644   -1.4158   21.1216 C.3     1  UNL1        0.0215
     24 C           7.5703   -2.4009   19.9905 C.3     1  UNL1        0.0018
     25 C           7.0347   -2.2310   18.5997 C.3     1  UNL1        0.0018
     26 C           6.3610   -1.0342   17.9966 C.3     1  UNL1        0.0215
     27 C           6.0565    0.2885   18.6354 C.3     1  UNL1        0.0937
     28 C           2.3850    1.8149   22.6721 C.3     1  UNL1        0.0991
     29 C           2.6360    0.6491   21.7622 C.ar    1  UNL1       -0.0061
     30 C           2.1658    0.6940   20.3386 C.ar    1  UNL1       -0.0029
     31 C           2.4168   -0.4718   19.4287 C.ar    1  UNL1       -0.0002
     32 C           3.1382   -1.6824   19.9425 C.ar    1  UNL1        0.0022
     33 C           3.3893   -2.8482   19.0325 C.ar    1  UNL1        0.0296
     34 C           4.1106   -4.0589   19.5463 C.ar    1  UNL1        0.1401
     35 F           4.3617   -5.2247   18.6365 F       1  UNL1       -0.2042
     36 C           4.5809   -4.1037   20.9700 C.ar    1  UNL1        0.0296
     37 C           4.3298   -2.9380   21.8799 C.ar    1  UNL1        0.0023
     38 C           3.6085   -1.7273   21.3661 C.ar    1  UNL1       -0.0001
     39 C           3.3574   -0.5615   22.2760 C.ar    1  UNL1       -0.0029
@<TRIPOS>BOND
     1     9    10    2
     2    10    11   am
     3     1    11    1
     4     1     2    1
     5     3     2    1
     6     3     4    1
     7     4     5    1
     8     6     5    1
     9     6     7    1
    10     6     8    1
    11     8    28    1
    12    28    29    1
    13    29    30   ar
    14    30    31   ar
    15    31    32   ar
    16    32    33   ar
    17    33    34   ar
    18    34    35    1
    19    34    36   ar
    20    36    37   ar
    21    37    38   ar
    22    38    39   ar
    23    10    13    1
    24    13    14   ar
    25    14    15   ar
    26    15    16   ar
    27    16    17   ar
    28    17    18   ar
    29    18    19    1
    30    19    20    2
    31    19    21   am
    32    21    22    1
    33    22    23    1
    34    23    24    1
    35    24    25    1
    36    25    26    1
    37    26    27    1
    38     7     1    1
    39    39    29   ar
    40    18    13   ar
    41    27    21    1
    42     8     3    1
    43    38    32   ar
    44    11    12    1
