@<TRIPOS>MOLECULE
*****
 35 39 0 0 0
SMALL
GASTEIGER

@<TRIPOS>ATOM
      1 N         -13.7953   -4.0804   19.1114 N.ar    1  UNL1       -0.2299
      2 C         -15.0038   -3.3008   19.5375 C.ar    1  UNL1        0.2753
      3 O         -15.9463   -3.8745   20.5538 O.2     1  UNL1       -0.2656
      4 C         -15.2699   -1.9477   18.9476 C.ar    1  UNL1        0.0604
      5 C         -14.3274   -1.3741   17.9313 C.ar    1  UNL1        0.0454
      6 C         -13.1188   -2.1537   17.5051 C.ar    1  UNL1        0.1850
      7 N         -12.0199   -1.8486   16.5308 N.ar    1  UNL1       -0.1270
      8 N         -11.0748   -3.0133   16.5186 N.ar    1  UNL1       -0.1269
      9 C         -11.5895   -4.0381   17.4855 C.ar    1  UNL1        0.1878
     10 N         -12.8528   -3.5069   18.0952 N.ar    1  UNL1       -0.2084
     11 C         -16.4785   -1.1681   19.3738 C.ar    1  UNL1        0.0031
     12 C         -16.3429   -0.0663   20.3826 C.ar    1  UNL1        0.0045
     13 C         -17.5514    0.7133   20.8088 C.ar    1  UNL1        0.0556
     14 C         -18.8955    0.3911   20.2262 C.ar    1  UNL1        0.0338
     15 C         -19.0312   -0.7107   19.2174 C.ar    1  UNL1        0.1363
     16 F         -20.3754   -1.0329   18.6347 F       1  UNL1       -0.2045
     17 C         -17.8226   -1.4903   18.7912 C.ar    1  UNL1        0.0058
     18 C         -17.9582   -2.5921   17.7823 C.3     1  UNL1        0.0334
     19 C         -17.4158    1.8150   21.8176 C.2     1  UNL1        0.2459
     20 O         -18.2208    1.7767   23.0828 O.2     1  UNL1       -0.2701
     21 N         -16.4753    2.9551   21.5613 N.am    1  UNL1       -0.3025
     22 H         -15.9470    2.9802   20.7309 H       1  UNL1        0.1497
     23 C         -16.3397    4.0568   22.5702 C.3     1  UNL1        0.0720
     24 C         -15.8741    4.5396   23.9119 C.3     1  UNL1        0.0213
     25 C         -16.5706    5.4824   22.9758 C.3     1  UNL1        0.0213
     26 C         -10.9526   -5.3618   17.7892 C.ar    1  UNL1        0.0755
     27 C          -9.8800   -5.4560   18.8335 C.ar    1  UNL1        0.1439
     28 F          -9.4442   -4.2264   19.5740 F       1  UNL1       -0.2040
     29 C          -9.2431   -6.7797   19.1373 C.ar    1  UNL1        0.0298
     30 C          -9.6789   -8.0091   18.3969 C.ar    1  UNL1        0.0032
     31 C         -10.7516   -7.9149   17.3525 C.ar    1  UNL1        0.0116
     32 C         -11.3884   -6.5913   17.0487 C.ar    1  UNL1        0.0628
     33 CL        -12.4611   -6.4972   16.0044 Cl      1  UNL1       -0.0821
     34 C         -14.3212   -6.6214   19.2410 C.3     1  UNL1        0.0285
     35 C         -13.5293   -5.4336   19.7014 C.3     1  UNL1        0.1293
@<TRIPOS>BOND
     1    34    35    1
     2    35     1    1
     3     1     2   ar
     4     2     3    2
     5     2     4   ar
     6     4    11    1
     7    11    12   ar
     8    12    13   ar
     9    13    19    1
    10    19    20    2
    11    19    21   am
    12    21    23    1
    13    23    24    1
    14    24    25    1
    15    13    14   ar
    16    14    15   ar
    17    15    16    1
    18    15    17   ar
    19    17    18    1
    20     4     5   ar
    21     5     6   ar
    22     6     7   ar
    23     7     8   ar
    24     8     9   ar
    25     9    26    1
    26    26    27   ar
    27    27    28    1
    28    27    29   ar
    29    29    30   ar
    30    30    31   ar
    31    31    32   ar
    32    32    33    1
    33     9    10   ar
    34    10     1   ar
    35    17    11   ar
    36    10     6   ar
    37    25    23    1
    38    32    26   ar
    39    21    22    1
@<TRIPOS>MOLECULE
*****
 35 39 0 0 0
SMALL
GASTEIGER

@<TRIPOS>ATOM
      1 N          -2.2313    4.0950   18.4789 N.ar    1  UNL1       -0.2299
      2 C          -0.8415    3.6756   18.1014 C.ar    1  UNL1        0.2753
      3 O          -0.3590    3.8596   16.6931 O.2     1  UNL1       -0.2656
      4 C           0.0658    3.0722   19.1322 C.ar    1  UNL1        0.0604
      5 C          -0.4167    2.8881   20.5406 C.ar    1  UNL1        0.0454
      6 C          -1.8065    3.3076   20.9180 C.ar    1  UNL1        0.1850
      7 N          -2.5542    3.2503   22.2171 N.ar    1  UNL1       -0.1270
      8 N          -3.9236    3.8184   21.9892 N.ar    1  UNL1       -0.1269
      9 C          -4.0222    4.2267   20.5492 C.ar    1  UNL1        0.1878
     10 N          -2.7138    3.9110   19.8872 N.ar    1  UNL1       -0.2084
     11 C           1.4557    2.6527   18.7547 C.ar    1  UNL1        0.0031
     12 C           1.7807    1.1979   18.5874 C.ar    1  UNL1        0.0045
     13 C           3.1705    0.7785   18.2099 C.ar    1  UNL1        0.0556
     14 C           4.2353    1.8138   17.9999 C.ar    1  UNL1        0.0338
     15 C           3.9104    3.2686   18.1672 C.ar    1  UNL1        0.1363
     16 F           4.9752    4.3040   17.9572 F       1  UNL1       -0.2045
     17 C           2.5206    3.6881   18.5447 C.ar    1  UNL1        0.0058
     18 C           2.1955    5.1429   18.7121 C.3     1  UNL1        0.0334
     19 C           3.4954   -0.6763   18.0425 C.2     1  UNL1        0.2459
     20 O           3.8828   -1.2079   16.6944 O.2     1  UNL1       -0.2701
     21 N           3.4329   -1.5994   19.2232 N.am    1  UNL1       -0.3025
     22 H           3.1787   -1.2505   20.1080 H       1  UNL1        0.1497
     23 C           3.7579   -3.0542   19.0557 C.3     1  UNL1        0.0720
     24 C           4.7453   -4.1358   18.7311 C.3     1  UNL1        0.0213
     25 C           3.3333   -4.4924   19.0903 C.3     1  UNL1        0.0213
     26 C          -5.2192    4.8427   19.8874 C.ar    1  UNL1        0.0755
     27 C          -6.2663    3.9666   19.2660 C.ar    1  UNL1        0.1439
     28 F          -6.1163    2.4746   19.3063 F       1  UNL1       -0.2040
     29 C          -7.4633    4.5825   18.6042 C.ar    1  UNL1        0.0298
     30 C          -7.6132    6.0743   18.5639 C.ar    1  UNL1        0.0032
     31 C          -6.5661    6.9504   19.1853 C.ar    1  UNL1        0.0116
     32 C          -5.3691    6.3346   19.8471 C.ar    1  UNL1        0.0628
     33 CL         -4.3221    7.2107   20.4685 Cl      1  UNL1       -0.0821
     34 C          -3.8998    3.8118   16.5076 C.3     1  UNL1        0.0285
     35 C          -3.1386    4.6985   17.4480 C.3     1  UNL1        0.1293
@<TRIPOS>BOND
     1    34    35    1
     2    35     1    1
     3     1     2   ar
     4     2     3    2
     5     2     4   ar
     6     4    11    1
     7    11    12   ar
     8    12    13   ar
     9    13    19    1
    10    19    20    2
    11    19    21   am
    12    21    23    1
    13    23    24    1
    14    24    25    1
    15    13    14   ar
    16    14    15   ar
    17    15    16    1
    18    15    17   ar
    19    17    18    1
    20     4     5   ar
    21     5     6   ar
    22     6     7   ar
    23     7     8   ar
    24     8     9   ar
    25     9    26    1
    26    26    27   ar
    27    27    28    1
    28    27    29   ar
    29    29    30   ar
    30    30    31   ar
    31    31    32   ar
    32    32    33    1
    33     9    10   ar
    34    10     1   ar
    35    17    11   ar
    36    10     6   ar
    37    25    23    1
    38    32    26   ar
    39    21    22    1
@<TRIPOS>MOLECULE
*****
 35 39 0 0 0
SMALL
GASTEIGER

@<TRIPOS>ATOM
      1 N          -0.8898    3.5011   20.9083 N.ar    1  UNL1       -0.2299
      2 C           0.4677    2.9928   20.5224 C.ar    1  UNL1        0.2753
      3 O           1.4483    2.5921   21.5845 O.2     1  UNL1       -0.2656
      4 C           0.8445    2.8852   19.0746 C.ar    1  UNL1        0.0604
      5 C          -0.1361    3.2859   18.0125 C.ar    1  UNL1        0.0454
      6 C          -1.4936    3.7942   18.3984 C.ar    1  UNL1        0.1850
      7 N          -2.6609    4.2600   17.5797 N.ar    1  UNL1       -0.1270
      8 N          -3.7592    4.6555   18.5217 N.ar    1  UNL1       -0.1269
      9 C          -3.2707    4.4341   19.9225 C.ar    1  UNL1        0.1878
     10 N          -1.8704    3.9018   19.8463 N.ar    1  UNL1       -0.2084
     11 C           2.2021    2.3769   18.6887 C.ar    1  UNL1        0.0031
     12 C           2.4599    0.9006   18.6248 C.ar    1  UNL1        0.0045
     13 C           3.8173    0.3923   18.2389 C.ar    1  UNL1        0.0556
     14 C           4.9170    1.3604   17.9169 C.ar    1  UNL1        0.0338
     15 C           4.6592    2.8367   17.9808 C.ar    1  UNL1        0.1363
     16 F           5.7588    3.8048   17.6588 F       1  UNL1       -0.2045
     17 C           3.3017    3.3449   18.3667 C.ar    1  UNL1        0.0058
     18 C           3.0438    4.8213   18.4306 C.3     1  UNL1        0.0334
     19 C           4.0752   -1.0840   18.1751 C.2     1  UNL1        0.2459
     20 O           4.9453   -1.6471   17.0906 O.2     1  UNL1       -0.2701
     21 N           3.4629   -1.9971   19.1955 N.am    1  UNL1       -0.3025
     22 H           2.8919   -1.6275   19.9072 H       1  UNL1        0.1497
     23 C           3.7208   -3.4734   19.1316 C.3     1  UNL1        0.0720
     24 C           3.2492   -4.8841   19.3253 C.3     1  UNL1        0.0213
     25 C           4.6391   -4.6196   18.8270 C.3     1  UNL1        0.0213
     26 C          -4.0463    4.6986   21.1789 C.ar    1  UNL1        0.0755
     27 C          -4.8315    3.5942   21.8220 C.ar    1  UNL1        0.1439
     28 F          -4.8411    2.2253   21.2088 F       1  UNL1       -0.2040
     29 C          -5.6071    3.8586   23.0785 C.ar    1  UNL1        0.0298
     30 C          -5.5975    5.2275   23.6916 C.ar    1  UNL1        0.0032
     31 C          -4.8123    6.3319   23.0484 C.ar    1  UNL1        0.0116
     32 C          -4.0367    6.0675   21.7921 C.ar    1  UNL1        0.0628
     33 CL         -3.2515    7.1719   21.1489 Cl      1  UNL1       -0.0821
     34 C          -0.8551    4.8124   23.1509 C.3     1  UNL1        0.0285
     35 C          -1.2666    3.6087   22.3562 C.3     1  UNL1        0.1293
@<TRIPOS>BOND
     1    34    35    1
     2    35     1    1
     3     1     2   ar
     4     2     3    2
     5     2     4   ar
     6     4    11    1
     7    11    12   ar
     8    12    13   ar
     9    13    19    1
    10    19    20    2
    11    19    21   am
    12    21    23    1
    13    23    24    1
    14    24    25    1
    15    13    14   ar
    16    14    15   ar
    17    15    16    1
    18    15    17   ar
    19    17    18    1
    20     4     5   ar
    21     5     6   ar
    22     6     7   ar
    23     7     8   ar
    24     8     9   ar
    25     9    26    1
    26    26    27   ar
    27    27    28    1
    28    27    29   ar
    29    29    30   ar
    30    30    31   ar
    31    31    32   ar
    32    32    33    1
    33     9    10   ar
    34    10     1   ar
    35    17    11   ar
    36    10     6   ar
    37    25    23    1
    38    32    26   ar
    39    21    22    1
@<TRIPOS>MOLECULE
*****
 35 39 0 0 0
SMALL
GASTEIGER

@<TRIPOS>ATOM
      1 N           5.2520   -0.5300   22.4115 N.ar    1  UNL1       -0.2299
      2 C           5.1124   -0.3222   23.8904 C.ar    1  UNL1        0.2753
      3 O           4.8706    1.0545   24.4348 O.2     1  UNL1       -0.2656
      4 C           5.2147   -1.4909   24.8250 C.ar    1  UNL1        0.0604
      5 C           5.4565   -2.8677   24.2806 C.ar    1  UNL1        0.0454
      6 C           5.5960   -3.0755   22.8017 C.ar    1  UNL1        0.1850
      7 N           5.8370   -4.3067   21.9795 N.ar    1  UNL1       -0.1270
      8 N           5.8837   -3.8988   20.5368 N.ar    1  UNL1       -0.1269
      9 C           5.6716   -2.4155   20.4673 C.ar    1  UNL1        0.1878
     10 N           5.4938   -1.9067   21.8671 N.ar    1  UNL1       -0.2084
     11 C           5.0751   -1.2831   26.3040 C.ar    1  UNL1        0.0031
     12 C           3.7183   -1.0686   26.9065 C.ar    1  UNL1        0.0045
     13 C           3.5787   -0.8607   28.3854 C.ar    1  UNL1        0.0556
     14 C           4.7959   -0.8674   29.2619 C.ar    1  UNL1        0.0338
     15 C           6.1528   -1.0819   28.6594 C.ar    1  UNL1        0.1363
     16 F           7.3702   -1.0886   29.5359 F       1  UNL1       -0.2045
     17 C           6.2924   -1.2898   27.1805 C.ar    1  UNL1        0.0058
     18 C           7.6492   -1.5043   26.5779 C.3     1  UNL1        0.0334
     19 C           2.2218   -0.6462   28.9879 C.2     1  UNL1        0.2459
     20 O           2.0530   -0.6564   30.4784 O.2     1  UNL1       -0.2701
     21 N           1.0340   -0.4215   28.1000 N.am    1  UNL1       -0.3025
     22 H           1.1448   -0.4148   27.1218 H       1  UNL1        0.1497
     23 C          -0.3229   -0.2070   28.7026 C.3     1  UNL1        0.0720
     24 C          -1.7042   -0.7078   29.0043 C.3     1  UNL1        0.0213
     25 C          -1.2915    0.6654   29.4446 C.3     1  UNL1        0.0213
     26 C           5.6424   -1.5866   19.2175 C.ar    1  UNL1        0.0755
     27 C           4.3599   -1.4209   18.4573 C.ar    1  UNL1        0.1439
     28 F           3.1067   -2.0840   18.9469 F       1  UNL1       -0.2040
     29 C           4.3307   -0.5920   17.2074 C.ar    1  UNL1        0.0298
     30 C           5.5838    0.0711   16.7177 C.ar    1  UNL1        0.0032
     31 C           6.8663   -0.0947   17.4780 C.ar    1  UNL1        0.0116
     32 C           6.8956   -0.9235   18.7278 C.ar    1  UNL1        0.0628
     33 CL          8.1780   -1.0893   19.4880 Cl      1  UNL1       -0.0821
     34 C           3.8030    1.1329   21.0384 C.3     1  UNL1        0.0285
     35 C           5.1497    0.6388   21.4769 C.3     1  UNL1        0.1293
@<TRIPOS>BOND
     1    34    35    1
     2    35     1    1
     3     1     2   ar
     4     2     3    2
     5     2     4   ar
     6     4    11    1
     7    11    12   ar
     8    12    13   ar
     9    13    19    1
    10    19    20    2
    11    19    21   am
    12    21    23    1
    13    23    24    1
    14    24    25    1
    15    13    14   ar
    16    14    15   ar
    17    15    16    1
    18    15    17   ar
    19    17    18    1
    20     4     5   ar
    21     5     6   ar
    22     6     7   ar
    23     7     8   ar
    24     8     9   ar
    25     9    26    1
    26    26    27   ar
    27    27    28    1
    28    27    29   ar
    29    29    30   ar
    30    30    31   ar
    31    31    32   ar
    32    32    33    1
    33     9    10   ar
    34    10     1   ar
    35    17    11   ar
    36    10     6   ar
    37    25    23    1
    38    32    26   ar
    39    21    22    1
@<TRIPOS>MOLECULE
*****
 35 39 0 0 0
SMALL
GASTEIGER

@<TRIPOS>ATOM
      1 N          -1.5886    3.5918   20.1434 N.ar    1  UNL1       -0.2299
      2 C          -0.3684    3.1314   19.4024 C.ar    1  UNL1        0.2753
      3 O          -0.3829    3.0612   17.9040 O.2     1  UNL1       -0.2656
      4 C           0.8662    2.7412   20.1596 C.ar    1  UNL1        0.0604
      5 C           0.8806    2.8114   21.6579 C.ar    1  UNL1        0.0454
      6 C          -0.3396    3.2718   22.3989 C.ar    1  UNL1        0.1850
      7 N          -0.6201    3.4426   23.8625 N.ar    1  UNL1       -0.1270
      8 N          -2.0281    3.9383   24.0098 N.ar    1  UNL1       -0.1269
      9 C          -2.6178    4.0739   22.6372 C.ar    1  UNL1        0.1878
     10 N          -1.5742    3.6620   21.6416 N.ar    1  UNL1       -0.2084
     11 C           2.0864    2.2808   19.4185 C.ar    1  UNL1        0.0031
     12 C           2.3536    0.8143   19.2514 C.ar    1  UNL1        0.0045
     13 C           3.5738    0.3539   18.5104 C.ar    1  UNL1        0.0556
     14 C           4.5268    1.3600   17.9365 C.ar    1  UNL1        0.0338
     15 C           4.2597    2.8265   18.1036 C.ar    1  UNL1        0.1363
     16 F           5.2128    3.8327   17.5297 F       1  UNL1       -0.2045
     17 C           3.0395    3.2869   18.8446 C.ar    1  UNL1        0.0058
     18 C           2.7723    4.7535   19.0118 C.3     1  UNL1        0.0334
     19 C           3.8409   -1.1127   18.3433 C.2     1  UNL1        0.2459
     20 O           4.4698   -1.6212   17.0799 O.2     1  UNL1       -0.2701
     21 N           3.4792   -2.0706   19.4394 N.am    1  UNL1       -0.3025
     22 H           3.0665   -1.7368   20.2685 H       1  UNL1        0.1497
     23 C           3.7464   -3.5371   19.2722 C.3     1  UNL1        0.0720
     24 C           4.6517   -4.6514   18.8378 C.3     1  UNL1        0.0213
     25 C           3.3036   -4.9630   19.4170 C.3     1  UNL1        0.0213
     26 C          -4.0071    4.5397   22.3166 C.ar    1  UNL1        0.0755
     27 C          -5.1631    3.5918   22.4401 C.ar    1  UNL1        0.1439
     28 F          -4.9297    2.1782   22.8842 F       1  UNL1       -0.2040
     29 C          -6.5525    4.0575   22.1194 C.ar    1  UNL1        0.0298
     30 C          -6.7859    5.4711   21.6753 C.ar    1  UNL1        0.0032
     31 C          -5.6298    6.4190   21.5518 C.ar    1  UNL1        0.0116
     32 C          -4.2405    5.9533   21.8724 C.ar    1  UNL1        0.0628
     33 CL         -3.0846    6.9012   21.7489 Cl      1  UNL1       -0.0821
     34 C          -2.8384    5.2440   18.5755 C.3     1  UNL1        0.0285
     35 C          -2.8232    3.9820   19.3861 C.3     1  UNL1        0.1293
@<TRIPOS>BOND
     1    34    35    1
     2    35     1    1
     3     1     2   ar
     4     2     3    2
     5     2     4   ar
     6     4    11    1
     7    11    12   ar
     8    12    13   ar
     9    13    19    1
    10    19    20    2
    11    19    21   am
    12    21    23    1
    13    23    24    1
    14    24    25    1
    15    13    14   ar
    16    14    15   ar
    17    15    16    1
    18    15    17   ar
    19    17    18    1
    20     4     5   ar
    21     5     6   ar
    22     6     7   ar
    23     7     8   ar
    24     8     9   ar
    25     9    26    1
    26    26    27   ar
    27    27    28    1
    28    27    29   ar
    29    29    30   ar
    30    30    31   ar
    31    31    32   ar
    32    32    33    1
    33     9    10   ar
    34    10     1   ar
    35    17    11   ar
    36    10     6   ar
    37    25    23    1
    38    32    26   ar
    39    21    22    1
@<TRIPOS>MOLECULE
*****
 35 39 0 0 0
SMALL
GASTEIGER

@<TRIPOS>ATOM
      1 N           4.1875    0.1371   20.5522 N.ar    1  UNL1       -0.2299
      2 C           3.2163    1.2692   20.3941 C.ar    1  UNL1        0.2753
      3 O           2.9129    2.1651   21.5584 O.2     1  UNL1       -0.2656
      4 C           2.5485    1.5055   19.0720 C.ar    1  UNL1        0.0604
      5 C           2.8519    0.6095   17.9077 C.ar    1  UNL1        0.0454
      6 C           3.8231   -0.5226   18.0658 C.ar    1  UNL1        0.1850
      7 N           4.3166   -1.5632   17.1047 N.ar    1  UNL1       -0.1270
      8 N           5.2894   -2.4425   17.8330 N.ar    1  UNL1       -0.1269
      9 C           5.3972   -1.9454   19.2441 C.ar    1  UNL1        0.1878
     10 N           4.4909   -0.7588   19.3880 N.ar    1  UNL1       -0.2084
     11 C           1.5773    2.6377   18.9139 C.ar    1  UNL1        0.0031
     12 C           0.1478    2.4637   19.3337 C.ar    1  UNL1        0.0045
     13 C          -0.8234    3.5958   19.1757 C.ar    1  UNL1        0.0556
     14 C          -0.3651    4.9019   18.5979 C.ar    1  UNL1        0.0338
     15 C           1.0644    5.0760   18.1781 C.ar    1  UNL1        0.1363
     16 F           1.5227    6.3822   17.6002 F       1  UNL1       -0.2045
     17 C           2.0356    3.9438   18.3361 C.ar    1  UNL1        0.0058
     18 C           3.4651    4.1178   17.9163 C.3     1  UNL1        0.0334
     19 C          -2.2530    3.4218   19.5955 C.2     1  UNL1        0.2459
     20 O          -2.5751    2.7762   20.9107 O.2     1  UNL1       -0.2701
     21 N          -3.3603    3.8933   18.7002 N.am    1  UNL1       -0.3025
     22 H          -3.1488    4.3170   17.8371 H       1  UNL1        0.1497
     23 C          -4.7898    3.7192   19.1201 C.3     1  UNL1        0.0720
     24 C          -5.8693    3.8743   20.1499 C.3     1  UNL1        0.0213
     25 C          -6.1861    3.2626   18.8175 C.3     1  UNL1        0.0213
     26 C           6.2597   -2.5320   20.3221 C.ar    1  UNL1        0.0755
     27 C           5.6887   -3.5416   21.2732 C.ar    1  UNL1        0.1439
     28 F           4.2552   -3.9647   21.1463 F       1  UNL1       -0.2040
     29 C           6.5513   -4.1282   22.3512 C.ar    1  UNL1        0.0298
     30 C           7.9847   -3.7051   22.4780 C.ar    1  UNL1        0.0032
     31 C           8.5557   -2.6954   21.5269 C.ar    1  UNL1        0.0116
     32 C           7.6932   -2.1089   20.4489 C.ar    1  UNL1        0.0628
     33 CL          8.2642   -1.0992   19.4978 Cl      1  UNL1       -0.0821
     34 C           4.1167   -0.8061   22.9720 C.3     1  UNL1        0.0285
     35 C           4.8553   -0.0992   21.8744 C.3     1  UNL1        0.1293
@<TRIPOS>BOND
     1    34    35    1
     2    35     1    1
     3     1     2   ar
     4     2     3    2
     5     2     4   ar
     6     4    11    1
     7    11    12   ar
     8    12    13   ar
     9    13    19    1
    10    19    20    2
    11    19    21   am
    12    21    23    1
    13    23    24    1
    14    24    25    1
    15    13    14   ar
    16    14    15   ar
    17    15    16    1
    18    15    17   ar
    19    17    18    1
    20     4     5   ar
    21     5     6   ar
    22     6     7   ar
    23     7     8   ar
    24     8     9   ar
    25     9    26    1
    26    26    27   ar
    27    27    28    1
    28    27    29   ar
    29    29    30   ar
    30    30    31   ar
    31    31    32   ar
    32    32    33    1
    33     9    10   ar
    34    10     1   ar
    35    17    11   ar
    36    10     6   ar
    37    25    23    1
    38    32    26   ar
    39    21    22    1
@<TRIPOS>MOLECULE
*****
 35 39 0 0 0
SMALL
GASTEIGER

@<TRIPOS>ATOM
      1 N           2.4638    1.8136   27.9988 N.ar    1  UNL1       -0.2299
      2 C           2.6764    1.7279   26.5164 C.ar    1  UNL1        0.2753
      3 O           3.9863    2.1516   25.9209 O.2     1  UNL1       -0.2656
      4 C           1.5792    1.2185   25.6296 C.ar    1  UNL1        0.0604
      5 C           0.2692    0.7947   26.2251 C.ar    1  UNL1        0.0454
      6 C           0.0566    0.8805   27.7075 C.ar    1  UNL1        0.1850
      7 N          -1.1185    0.5374   28.5744 N.ar    1  UNL1       -0.1270
      8 N          -0.7474    0.8349   29.9970 N.ar    1  UNL1       -0.1269
      9 C           0.6570    1.3618   30.0093 C.ar    1  UNL1        0.1878
     10 N           1.1539    1.3899   28.5943 N.ar    1  UNL1       -0.2084
     11 C           1.7918    1.1327   24.1471 C.ar    1  UNL1        0.0031
     12 C           2.3987   -0.1006   23.5466 C.ar    1  UNL1        0.0045
     13 C           2.6113   -0.1863   22.0642 C.ar    1  UNL1        0.0556
     14 C           2.2170    0.9612   21.1824 C.ar    1  UNL1        0.0338
     15 C           1.6101    2.1945   21.7829 C.ar    1  UNL1        0.1363
     16 F           1.2158    3.3422   20.9011 F       1  UNL1       -0.2045
     17 C           1.3975    2.2803   23.2653 C.ar    1  UNL1        0.0058
     18 C           0.7906    3.5136   23.8659 C.3     1  UNL1        0.0334
     19 C           3.2182   -1.4196   21.4637 C.2     1  UNL1        0.2459
     20 O           4.1088   -2.2971   22.2926 O.2     1  UNL1       -0.2701
     21 N           2.9346   -1.7754   20.0344 N.am    1  UNL1       -0.3025
     22 H           2.3501   -1.1995   19.4904 H       1  UNL1        0.1497
     23 C           3.5415   -3.0088   19.4339 C.3     1  UNL1        0.0720
     24 C           3.4655   -4.4738   19.1210 C.3     1  UNL1        0.0213
     25 C           4.6689   -3.6798   18.7068 C.3     1  UNL1        0.0213
     26 C           1.4289    1.7860   31.2235 C.ar    1  UNL1        0.0755
     27 C           1.1563    3.1174   31.8581 C.ar    1  UNL1        0.1439
     28 F           0.1117    4.0247   31.2786 F       1  UNL1       -0.2040
     29 C           1.9282    3.5417   33.0724 C.ar    1  UNL1        0.0298
     30 C           2.9726    2.6345   33.6518 C.ar    1  UNL1        0.0032
     31 C           3.2452    1.3029   33.0171 C.ar    1  UNL1        0.0116
     32 C           2.4734    0.8787   31.8030 C.ar    1  UNL1        0.0628
     33 CL          2.7460   -0.4528   31.1684 Cl      1  UNL1       -0.0821
     34 C           3.6850    3.7932   29.1563 C.3     1  UNL1        0.0285
     35 C           3.5611    2.3231   28.8856 C.3     1  UNL1        0.1293
@<TRIPOS>BOND
     1    34    35    1
     2    35     1    1
     3     1     2   ar
     4     2     3    2
     5     2     4   ar
     6     4    11    1
     7    11    12   ar
     8    12    13   ar
     9    13    19    1
    10    19    20    2
    11    19    21   am
    12    21    23    1
    13    23    24    1
    14    24    25    1
    15    13    14   ar
    16    14    15   ar
    17    15    16    1
    18    15    17   ar
    19    17    18    1
    20     4     5   ar
    21     5     6   ar
    22     6     7   ar
    23     7     8   ar
    24     8     9   ar
    25     9    26    1
    26    26    27   ar
    27    27    28    1
    28    27    29   ar
    29    29    30   ar
    30    30    31   ar
    31    31    32   ar
    32    32    33    1
    33     9    10   ar
    34    10     1   ar
    35    17    11   ar
    36    10     6   ar
    37    25    23    1
    38    32    26   ar
    39    21    22    1
@<TRIPOS>MOLECULE
*****
 35 39 0 0 0
SMALL
GASTEIGER

@<TRIPOS>ATOM
      1 N           1.3095    3.2041   28.7784 N.ar    1  UNL1       -0.2299
      2 C           0.3145    3.6687   27.7566 C.ar    1  UNL1        0.2753
      3 O           0.3407    5.0895   27.2763 O.2     1  UNL1       -0.2656
      4 C          -0.7066    2.7127   27.2153 C.ar    1  UNL1        0.0604
      5 C          -0.7328    1.2918   27.6957 C.ar    1  UNL1        0.0454
      6 C           0.2622    0.8272   28.7174 C.ar    1  UNL1        0.1850
      7 N           0.4786   -0.5035   29.3750 N.ar    1  UNL1       -0.1270
      8 N           1.6335   -0.3698   30.3227 N.ar    1  UNL1       -0.1269
      9 C           2.1309    1.0435   30.2510 C.ar    1  UNL1        0.1878
     10 N           1.2834    1.7833   29.2588 N.ar    1  UNL1       -0.2084
     11 C          -1.7017    3.1773   26.1934 C.ar    1  UNL1        0.0031
     12 C          -2.9856    3.8162   26.6332 C.ar    1  UNL1        0.0045
     13 C          -3.9806    4.2809   25.6114 C.ar    1  UNL1        0.0556
     14 C          -3.6917    4.1066   24.1499 C.ar    1  UNL1        0.0338
     15 C          -2.4078    3.4677   23.7101 C.ar    1  UNL1        0.1363
     16 F          -2.1189    3.2933   22.2485 F       1  UNL1       -0.2045
     17 C          -1.4128    3.0030   24.7319 C.ar    1  UNL1        0.0058
     18 C          -0.1289    2.3641   24.2922 C.3     1  UNL1        0.0334
     19 C          -5.2645    4.9198   26.0512 C.2     1  UNL1        0.2459
     20 O          -6.4490    4.9335   25.1310 O.2     1  UNL1       -0.2701
     21 N          -5.3638    5.5450   27.4111 N.am    1  UNL1       -0.3025
     22 H          -4.5863    5.5360   28.0150 H       1  UNL1        0.1497
     23 C          -6.6477    6.1839   27.8508 C.3     1  UNL1        0.0720
     24 C          -7.7218    6.3658   28.8820 C.3     1  UNL1        0.0213
     25 C          -7.7975    7.1087   27.5811 C.3     1  UNL1        0.0213
     26 C           3.2749    1.6164   31.0339 C.ar    1  UNL1        0.0755
     27 C           4.6575    1.6143   30.4521 C.ar    1  UNL1        0.1439
     28 F           4.8960    1.0393   29.0873 F       1  UNL1       -0.2040
     29 C           5.8016    2.1872   31.2350 C.ar    1  UNL1        0.0298
     30 C           5.5631    2.7622   32.5996 C.ar    1  UNL1        0.0032
     31 C           4.1804    2.7643   33.1815 C.ar    1  UNL1        0.0116
     32 C           3.0364    2.1915   32.3986 C.ar    1  UNL1        0.0628
     33 CL          1.6539    2.1936   32.9805 Cl      1  UNL1       -0.0821
     34 C           1.9621    5.1043   30.4257 C.3     1  UNL1        0.0285
     35 C           2.3306    4.1602   29.3198 C.3     1  UNL1        0.1293
@<TRIPOS>BOND
     1    34    35    1
     2    35     1    1
     3     1     2   ar
     4     2     3    2
     5     2     4   ar
     6     4    11    1
     7    11    12   ar
     8    12    13   ar
     9    13    19    1
    10    19    20    2
    11    19    21   am
    12    21    23    1
    13    23    24    1
    14    24    25    1
    15    13    14   ar
    16    14    15   ar
    17    15    16    1
    18    15    17   ar
    19    17    18    1
    20     4     5   ar
    21     5     6   ar
    22     6     7   ar
    23     7     8   ar
    24     8     9   ar
    25     9    26    1
    26    26    27   ar
    27    27    28    1
    28    27    29   ar
    29    29    30   ar
    30    30    31   ar
    31    31    32   ar
    32    32    33    1
    33     9    10   ar
    34    10     1   ar
    35    17    11   ar
    36    10     6   ar
    37    25    23    1
    38    32    26   ar
    39    21    22    1
@<TRIPOS>MOLECULE
*****
 35 39 0 0 0
SMALL
GASTEIGER

@<TRIPOS>ATOM
      1 N           1.9183    2.0771   27.4446 N.ar    1  UNL1       -0.2299
      2 C           1.7643    2.2551   25.9632 C.ar    1  UNL1        0.2753
      3 O           2.8783    2.8591   25.1606 O.2     1  UNL1       -0.2656
      4 C           0.4963    1.8292   25.2845 C.ar    1  UNL1        0.0604
      5 C          -0.6177    1.2252   26.0871 C.ar    1  UNL1        0.0454
      6 C          -0.4637    1.0471   27.5685 C.ar    1  UNL1        0.1850
      7 N          -1.3827    0.4861   28.6129 N.ar    1  UNL1       -0.1270
      8 N          -0.6826    0.5653   29.9371 N.ar    1  UNL1       -0.1269
      9 C           0.6691    1.1753   29.7112 C.ar    1  UNL1        0.1878
     10 N           0.8043    1.4731   28.2473 N.ar    1  UNL1       -0.2084
     11 C           0.3423    2.0073   23.8030 C.ar    1  UNL1        0.0031
     12 C           0.9673    1.0221   22.8602 C.ar    1  UNL1        0.0045
     13 C           0.8133    1.2002   21.3788 C.ar    1  UNL1        0.0556
     14 C           0.0342    2.3633   20.8402 C.ar    1  UNL1        0.0338
     15 C          -0.5908    3.3485   21.7830 C.ar    1  UNL1        0.1363
     16 F          -1.3699    4.5117   21.2444 F       1  UNL1       -0.2045
     17 C          -0.4368    3.1704   23.2644 C.ar    1  UNL1        0.0058
     18 C          -1.0618    4.1555   24.2073 C.3     1  UNL1        0.0334
     19 C           1.4384    0.2151   20.4360 C.2     1  UNL1        0.2459
     20 O           1.0379    0.2025   18.9904 O.2     1  UNL1       -0.2701
     21 N           2.4638   -0.7574   20.9387 N.am    1  UNL1       -0.3025
     22 H           2.7267   -0.7491   21.8874 H       1  UNL1        0.1497
     23 C           3.0888   -1.7425   19.9958 C.3     1  UNL1        0.0720
     24 C           3.4035   -3.1597   19.6184 C.3     1  UNL1        0.0213
     25 C           3.8568   -2.0314   18.7401 C.3     1  UNL1        0.0213
     26 C           1.7037    1.4408   30.7642 C.ar    1  UNL1        0.0755
     27 C           2.6029    0.3335   31.2283 C.ar    1  UNL1        0.1439
     28 F           2.4674   -1.0393   30.6392 F       1  UNL1       -0.2040
     29 C           3.6376    0.5990   32.2814 C.ar    1  UNL1        0.0298
     30 C           3.7731    1.9718   32.8704 C.ar    1  UNL1        0.0032
     31 C           2.8739    3.0791   32.4063 C.ar    1  UNL1        0.0116
     32 C           1.8392    2.8137   31.3533 C.ar    1  UNL1        0.0628
     33 CL          0.9401    3.9210   30.8893 Cl      1  UNL1       -0.0821
     34 C           4.3580    1.5681   28.1786 C.3     1  UNL1        0.0285
     35 C           3.1863    2.5030   28.1234 C.3     1  UNL1        0.1293
@<TRIPOS>BOND
     1    34    35    1
     2    35     1    1
     3     1     2   ar
     4     2     3    2
     5     2     4   ar
     6     4    11    1
     7    11    12   ar
     8    12    13   ar
     9    13    19    1
    10    19    20    2
    11    19    21   am
    12    21    23    1
    13    23    24    1
    14    24    25    1
    15    13    14   ar
    16    14    15   ar
    17    15    16    1
    18    15    17   ar
    19    17    18    1
    20     4     5   ar
    21     5     6   ar
    22     6     7   ar
    23     7     8   ar
    24     8     9   ar
    25     9    26    1
    26    26    27   ar
    27    27    28    1
    28    27    29   ar
    29    29    30   ar
    30    30    31   ar
    31    31    32   ar
    32    32    33    1
    33     9    10   ar
    34    10     1   ar
    35    17    11   ar
    36    10     6   ar
    37    25    23    1
    38    32    26   ar
    39    21    22    1
