@<TRIPOS>MOLECULE
*****
 30 32 0 0 0
SMALL
GASTEIGER

@<TRIPOS>ATOM
      1 C          -6.1295  -16.6448   23.4714 C.3     1  UNL1        0.0051
      2 C          -6.6625  -17.8088   22.6897 C.3     1  UNL1        0.0216
      3 C          -7.9774  -17.6945   21.9768 C.3     1  UNL1        0.0922
      4 N          -8.7592  -16.4162   22.0456 N.pl3   1  UNL1       -0.2928
      5 C          -8.2262  -15.2522   22.8274 C.3     1  UNL1        0.0922
      6 C          -6.9114  -15.3665   23.5402 C.3     1  UNL1        0.0216
      7 C         -10.0740  -16.3019   21.3328 C.ar    1  UNL1        0.1409
      8 N         -10.1366  -15.6780   19.9701 N.ar    1  UNL1       -0.2085
      9 C         -11.4515  -15.5637   19.2573 C.ar    1  UNL1        0.2001
     10 N         -12.7037  -16.0733   19.9071 N.ar    1  UNL1       -0.2233
     11 C         -12.6411  -16.6972   21.2697 C.ar    1  UNL1        0.0924
     12 C         -13.7005  -17.2843   22.1545 C.ar    1  UNL1        0.0308
     13 C         -13.0405  -17.7615   23.4141 C.ar    1  UNL1        0.0842
     14 S         -11.5731  -17.4693   23.3079 S.2     1  UNL1       -0.0780
     15 C         -11.3263  -16.8115   21.9826 C.ar    1  UNL1        0.0788
     16 C         -13.7274  -18.4160   24.5761 C.2     1  UNL1        0.2488
     17 N         -15.2248  -18.4930   24.6157 N.am    1  UNL1       -0.3249
     18 O         -12.9167  -18.9934   25.6983 O.2     1  UNL1       -0.2698
     19 H         -15.7569  -18.1140   23.8791 H       1  UNL1        0.1453
     20 H         -15.6756  -18.9226   25.3783 H       1  UNL1        0.1453
     21 C          -4.8147  -16.7591   24.1843 C.3     1  UNL1        0.0214
     22 C          -3.7110  -17.5857   23.5940 C.3     1  UNL1        0.0894
     23 C          -2.8313  -18.4104   21.2927 C.2     1  UNL1        0.2215
     24 O          -2.9605  -19.8322   21.7529 O.2     1  UNL1       -0.2751
     25 N          -3.2065  -17.2872   22.2132 N.am    1  UNL1       -0.3044
     26 H          -3.1217  -16.3540   21.9112 H       1  UNL1        0.1494
     27 C          -1.4107  -17.0652   20.4730 C.3     1  UNL1        0.0091
     28 C          -2.3269  -18.1119   19.9120 C.3     1  UNL1        0.0689
     29 C          -3.2432  -19.1586   19.3509 C.3     1  UNL1        0.0091
     30 C          -1.8225  -17.8133   18.5312 C.3     1  UNL1        0.0091
@<TRIPOS>BOND
     1    27    28    1
     2    28    29    1
     3    28    30    1
     4    28    23    1
     5    23    24    2
     6    23    25   am
     7    25    22    1
     8    22    21    1
     9    21     1    1
    10     1     2    1
    11     2     3    1
    12     3     4    1
    13     4     7    1
    14     7     8   ar
    15     8     9   ar
    16     9    10   ar
    17    10    11   ar
    18    11    12   ar
    19    12    13   ar
    20    13    16    1
    21    16    17   am
    22    16    18    2
    23    13    14   ar
    24    14    15   ar
    25     4     5    1
    26     5     6    1
    27     6     1    1
    28    15     7   ar
    29    15    11   ar
    30    25    26    1
    31    17    19    1
    32    17    20    1
@<TRIPOS>MOLECULE
*****
 30 32 0 0 0
SMALL
GASTEIGER

@<TRIPOS>ATOM
      1 C          -5.6611  -20.6909   20.4997 C.3     1  UNL1        0.0051
      2 C          -6.9357  -20.4487   19.7469 C.3     1  UNL1        0.0216
      3 C          -8.1531  -19.9566   20.4720 C.3     1  UNL1        0.0922
      4 N          -8.0959  -19.7066   21.9499 N.pl3   1  UNL1       -0.2928
      5 C          -6.8213  -19.9488   22.7027 C.3     1  UNL1        0.0922
      6 C          -5.6039  -20.4409   21.9776 C.3     1  UNL1        0.0216
      7 C          -9.3133  -19.2145   22.6751 C.ar    1  UNL1        0.1409
      8 N          -9.6548  -19.7661   24.0275 N.ar    1  UNL1       -0.2085
      9 C         -10.8722  -19.2739   24.7526 C.ar    1  UNL1        0.2001
     10 N         -11.7480  -18.2302   24.1252 N.ar    1  UNL1       -0.2233
     11 C         -11.4065  -17.6786   22.7728 C.ar    1  UNL1        0.0924
     12 C         -12.0760  -16.6506   21.9098 C.ar    1  UNL1        0.0308
     13 C         -11.2725  -16.5073   20.6513 C.ar    1  UNL1        0.0842
     14 S         -10.1063  -17.4469   20.7365 S.2     1  UNL1       -0.0780
     15 C         -10.1891  -18.1708   22.0477 C.ar    1  UNL1        0.0788
     16 C         -11.5810  -15.5862   19.5082 C.2     1  UNL1        0.2488
     17 N         -12.9829  -15.4842   18.9846 N.am    1  UNL1       -0.3249
     18 O         -10.4875  -14.7673   18.8888 O.2     1  UNL1       -0.2698
     19 H         -13.7005  -16.0217   19.3912 H       1  UNL1        0.1453
     20 H         -13.1853  -14.8796   18.2344 H       1  UNL1        0.1453
     21 C          -4.4437  -21.1830   19.7746 C.3     1  UNL1        0.0214
     22 C          -3.5269  -20.2064   19.0996 C.3     1  UNL1        0.0894
     23 C          -2.4608  -18.6569   20.8919 C.2     1  UNL1        0.2215
     24 O          -1.7916  -19.8436   21.5197 O.2     1  UNL1       -0.2751
     25 N          -3.3284  -18.8383   19.6819 N.am    1  UNL1       -0.3044
     26 H          -3.7676  -18.0595   19.2699 H       1  UNL1        0.1494
     27 C          -3.2397  -17.6115   22.5653 C.3     1  UNL1        0.0091
     28 C          -2.2623  -17.2889   21.4742 C.3     1  UNL1        0.0689
     29 C          -1.2849  -16.9663   20.3830 C.3     1  UNL1        0.0091
     30 C          -2.0638  -15.9208   22.0565 C.3     1  UNL1        0.0091
@<TRIPOS>BOND
     1    27    28    1
     2    28    29    1
     3    28    30    1
     4    28    23    1
     5    23    24    2
     6    23    25   am
     7    25    22    1
     8    22    21    1
     9    21     1    1
    10     1     2    1
    11     2     3    1
    12     3     4    1
    13     4     7    1
    14     7     8   ar
    15     8     9   ar
    16     9    10   ar
    17    10    11   ar
    18    11    12   ar
    19    12    13   ar
    20    13    16    1
    21    16    17   am
    22    16    18    2
    23    13    14   ar
    24    14    15   ar
    25     4     5    1
    26     5     6    1
    27     6     1    1
    28    15     7   ar
    29    15    11   ar
    30    25    26    1
    31    17    19    1
    32    17    20    1
@<TRIPOS>MOLECULE
*****
 30 32 0 0 0
SMALL
GASTEIGER

@<TRIPOS>ATOM
      1 C         -13.0639   -2.5643   19.0878 C.3     1  UNL1        0.0051
      2 C         -14.0316   -2.5383   17.9420 C.3     1  UNL1        0.0216
      3 C         -15.3811   -3.1774   18.0855 C.3     1  UNL1        0.0922
      4 N         -15.7629   -3.8423   19.3747 N.pl3   1  UNL1       -0.2928
      5 C         -14.7952   -3.8682   20.5205 C.3     1  UNL1        0.0922
      6 C         -13.4457   -3.2292   20.3771 C.3     1  UNL1        0.0216
      7 C         -17.1124   -4.4813   19.5181 C.ar    1  UNL1        0.1409
      8 N         -18.3275   -3.6279   19.7306 N.ar    1  UNL1       -0.2085
      9 C         -19.6770   -4.2669   19.8741 C.ar    1  UNL1        0.2001
     10 N         -19.8113   -5.7593   19.8050 N.ar    1  UNL1       -0.2233
     11 C         -18.5962   -6.6127   19.5924 C.ar    1  UNL1        0.0924
     12 C         -18.4197   -8.0981   19.4821 C.ar    1  UNL1        0.0308
     13 C         -16.9611   -8.3772   19.2705 C.ar    1  UNL1        0.0842
     14 S         -16.2362   -7.0642   19.2500 S.2     1  UNL1       -0.0780
     15 C         -17.2468   -5.9736   19.4490 C.ar    1  UNL1        0.0788
     16 C         -16.3371   -9.7316   19.1078 C.2     1  UNL1        0.2488
     17 N         -17.1226  -10.9645   19.4437 N.am    1  UNL1       -0.3249
     18 O         -14.9276   -9.8529   18.6094 O.2     1  UNL1       -0.2698
     19 H         -18.0478  -10.8848   19.7709 H       1  UNL1        0.1453
     20 H         -16.7131  -11.8534   19.3370 H       1  UNL1        0.1453
     21 C         -11.7144   -1.9253   18.9444 C.3     1  UNL1        0.0214
     22 C         -10.5792   -2.6978   18.3406 C.3     1  UNL1        0.0894
     23 C         -10.1801   -5.2629   18.4447 C.2     1  UNL1        0.2215
     24 O          -9.3061   -5.0780   19.6497 O.2     1  UNL1       -0.2751
     25 N         -10.8166   -4.0729   17.7902 N.am    1  UNL1       -0.3044
     26 H         -11.3903   -4.1942   16.9993 H       1  UNL1        0.1494
     27 C         -11.3111   -6.0604   16.8370 C.3     1  UNL1        0.0091
     28 C         -10.4175   -6.6379   17.8943 C.3     1  UNL1        0.0689
     29 C          -9.5240   -7.2155   18.9516 C.3     1  UNL1        0.0091
     30 C         -10.6550   -8.0129   17.3438 C.3     1  UNL1        0.0091
@<TRIPOS>BOND
     1    27    28    1
     2    28    29    1
     3    28    30    1
     4    28    23    1
     5    23    24    2
     6    23    25   am
     7    25    22    1
     8    22    21    1
     9    21     1    1
    10     1     2    1
    11     2     3    1
    12     3     4    1
    13     4     7    1
    14     7     8   ar
    15     8     9   ar
    16     9    10   ar
    17    10    11   ar
    18    11    12   ar
    19    12    13   ar
    20    13    16    1
    21    16    17   am
    22    16    18    2
    23    13    14   ar
    24    14    15   ar
    25     4     5    1
    26     5     6    1
    27     6     1    1
    28    15     7   ar
    29    15    11   ar
    30    25    26    1
    31    17    19    1
    32    17    20    1
@<TRIPOS>MOLECULE
*****
 30 32 0 0 0
SMALL
GASTEIGER

@<TRIPOS>ATOM
      1 C          -6.0986  -20.6650   20.3148 C.3     1  UNL1        0.0051
      2 C          -7.1253  -20.0876   19.3860 C.3     1  UNL1        0.0216
      3 C          -8.2452  -19.2522   19.9320 C.3     1  UNL1        0.0922
      4 N          -8.3384  -18.9942   21.4067 N.pl3   1  UNL1       -0.2928
      5 C          -7.3117  -19.5716   22.3355 C.3     1  UNL1        0.0922
      6 C          -6.1919  -20.4070   21.7896 C.3     1  UNL1        0.0216
      7 C          -9.4583  -18.1588   21.9526 C.ar    1  UNL1        0.1409
      8 N         -10.8421  -18.3006   21.3917 N.ar    1  UNL1       -0.2085
      9 C         -11.9619  -17.4652   21.9376 C.ar    1  UNL1        0.2001
     10 N         -11.6979  -16.4880   23.0445 N.ar    1  UNL1       -0.2233
     11 C         -10.3140  -16.3462   23.6055 C.ar    1  UNL1        0.0924
     12 C          -9.7551  -15.4736   24.6900 C.ar    1  UNL1        0.0308
     13 C          -8.2899  -15.7696   24.8143 C.ar    1  UNL1        0.0842
     14 S          -7.9432  -16.8253   23.8067 S.2     1  UNL1       -0.0780
     15 C          -9.1942  -17.1816   23.0595 C.ar    1  UNL1        0.0788
     16 C          -7.3384  -15.1235   25.7773 C.2     1  UNL1        0.2488
     17 N          -7.7612  -14.8715   27.1942 N.am    1  UNL1       -0.3249
     18 O          -5.9641  -14.7295   25.3234 O.2     1  UNL1       -0.2698
     19 H          -8.6632  -15.1301   27.4922 H       1  UNL1        0.1453
     20 H          -7.1368  -14.4474   27.8263 H       1  UNL1        0.1453
     21 C          -4.9788  -21.5004   19.7690 C.3     1  UNL1        0.0214
     22 C          -3.6629  -20.8636   19.4332 C.3     1  UNL1        0.0894
     23 C          -2.4827  -19.0930   20.9240 C.2     1  UNL1        0.2215
     24 O          -1.8087  -20.1902   21.6934 O.2     1  UNL1       -0.2751
     25 N          -3.4098  -19.4297   19.7939 N.am    1  UNL1       -0.3044
     26 H          -3.8522  -18.7096   19.2890 H       1  UNL1        0.1494
     27 C          -2.9984  -17.8443   22.5594 C.3     1  UNL1        0.0091
     28 C          -2.2297  -17.6592   21.2847 C.3     1  UNL1        0.0689
     29 C          -1.4610  -17.4742   20.0100 C.3     1  UNL1        0.0091
     30 C          -1.9766  -16.2254   21.6455 C.3     1  UNL1        0.0091
@<TRIPOS>BOND
     1    27    28    1
     2    28    29    1
     3    28    30    1
     4    28    23    1
     5    23    24    2
     6    23    25   am
     7    25    22    1
     8    22    21    1
     9    21     1    1
    10     1     2    1
    11     2     3    1
    12     3     4    1
    13     4     7    1
    14     7     8   ar
    15     8     9   ar
    16     9    10   ar
    17    10    11   ar
    18    11    12   ar
    19    12    13   ar
    20    13    16    1
    21    16    17   am
    22    16    18    2
    23    13    14   ar
    24    14    15   ar
    25     4     5    1
    26     5     6    1
    27     6     1    1
    28    15     7   ar
    29    15    11   ar
    30    25    26    1
    31    17    19    1
    32    17    20    1
@<TRIPOS>MOLECULE
*****
 30 32 0 0 0
SMALL
GASTEIGER

@<TRIPOS>ATOM
      1 C          -4.5905  -18.1610   23.2207 C.3     1  UNL1        0.0051
      2 C          -4.6706  -19.4582   22.4718 C.3     1  UNL1        0.0216
      3 C          -5.8760  -19.7673   21.6341 C.3     1  UNL1        0.0922
      4 N          -7.0011  -18.7793   21.5453 N.pl3   1  UNL1       -0.2928
      5 C          -6.9209  -17.4821   22.2942 C.3     1  UNL1        0.0922
      6 C          -5.7157  -17.1729   23.1319 C.3     1  UNL1        0.0216
      7 C          -8.2065  -19.0885   20.7077 C.ar    1  UNL1        0.1409
      8 N          -8.0380  -19.5129   19.2789 N.ar    1  UNL1       -0.2085
      9 C          -9.2433  -19.8220   18.4413 C.ar    1  UNL1        0.2001
     10 N         -10.6171  -19.7067   19.0325 N.ar    1  UNL1       -0.2233
     11 C         -10.7855  -19.2823   20.4613 C.ar    1  UNL1        0.0924
     12 C         -12.0048  -19.0815   21.3116 C.ar    1  UNL1        0.0308
     13 C         -11.5530  -18.6482   22.6748 C.ar    1  UNL1        0.0842
     14 S         -10.0545  -18.5813   22.6669 S.2     1  UNL1       -0.0780
     15 C          -9.5802  -18.9732   21.2989 C.ar    1  UNL1        0.0788
     16 C         -12.4434  -18.3366   23.8411 C.2     1  UNL1        0.2488
     17 N         -12.1066  -18.8647   25.2040 N.am    1  UNL1       -0.3249
     18 O         -13.6707  -17.4969   23.6443 O.2     1  UNL1       -0.2698
     19 H         -11.3010  -19.4158   25.3331 H       1  UNL1        0.1453
     20 H         -12.6910  -18.6602   25.9694 H       1  UNL1        0.1453
     21 C          -3.3852  -17.8518   24.0583 C.3     1  UNL1        0.0214
     22 C          -2.0313  -17.7603   23.4193 C.3     1  UNL1        0.0894
     23 C          -1.7020  -18.4750   20.9432 C.2     1  UNL1        0.2215
     24 O          -1.6162  -19.9107   21.3691 O.2     1  UNL1       -0.2751
     25 N          -1.9095  -17.3998   21.9683 N.am    1  UNL1       -0.3044
     26 H          -1.9659  -16.4575   21.6888 H       1  UNL1        0.1494
     27 C          -0.1223  -17.8210   19.6875 C.3     1  UNL1        0.0091
     28 C          -1.5803  -18.1145   19.4923 C.3     1  UNL1        0.0689
     29 C          -3.0383  -18.4080   19.2971 C.3     1  UNL1        0.0091
     30 C          -1.4585  -17.7540   18.0413 C.3     1  UNL1        0.0091
@<TRIPOS>BOND
     1    27    28    1
     2    28    29    1
     3    28    30    1
     4    28    23    1
     5    23    24    2
     6    23    25   am
     7    25    22    1
     8    22    21    1
     9    21     1    1
    10     1     2    1
    11     2     3    1
    12     3     4    1
    13     4     7    1
    14     7     8   ar
    15     8     9   ar
    16     9    10   ar
    17    10    11   ar
    18    11    12   ar
    19    12    13   ar
    20    13    16    1
    21    16    17   am
    22    16    18    2
    23    13    14   ar
    24    14    15   ar
    25     4     5    1
    26     5     6    1
    27     6     1    1
    28    15     7   ar
    29    15    11   ar
    30    25    26    1
    31    17    19    1
    32    17    20    1
@<TRIPOS>MOLECULE
*****
 30 32 0 0 0
SMALL
GASTEIGER

@<TRIPOS>ATOM
      1 C          -6.7065  -20.1821   20.4454 C.3     1  UNL1        0.0051
      2 C          -7.7408  -20.3839   19.3780 C.3     1  UNL1        0.0216
      3 C          -8.9659  -19.5187   19.3476 C.3     1  UNL1        0.0922
      4 N          -9.1565  -18.4518   20.3846 N.pl3   1  UNL1       -0.2928
      5 C          -8.1221  -18.2501   21.4520 C.3     1  UNL1        0.0922
      6 C          -6.8972  -19.1152   21.4824 C.3     1  UNL1        0.0216
      7 C         -10.3815  -17.5867   20.3542 C.ar    1  UNL1        0.1409
      8 N         -10.6196  -16.6641   19.1957 N.ar    1  UNL1       -0.2085
      9 C         -11.8446  -15.7990   19.1654 C.ar    1  UNL1        0.2001
     10 N         -12.8315  -15.8565   20.2935 N.ar    1  UNL1       -0.2233
     11 C         -12.5935  -16.7791   21.4519 C.ar    1  UNL1        0.0924
     12 C         -13.3832  -17.0499   22.6981 C.ar    1  UNL1        0.0308
     13 C         -12.6463  -18.0825   23.4987 C.ar    1  UNL1        0.0842
     14 S         -11.4011  -18.4498   22.7473 S.2     1  UNL1       -0.0780
     15 C         -11.3685  -17.6442   21.4823 C.ar    1  UNL1        0.0788
     16 C         -13.0787  -18.6484   24.8189 C.2     1  UNL1        0.2488
     17 N         -12.0602  -19.2228   25.7584 N.am    1  UNL1       -0.3249
     18 O         -14.5295  -18.6398   25.1995 O.2     1  UNL1       -0.2698
     19 H         -11.1079  -19.2284   25.5086 H       1  UNL1        0.1453
     20 H         -12.3440  -19.5941   26.6249 H       1  UNL1        0.1453
     21 C          -5.4815  -21.0472   20.4758 C.3     1  UNL1        0.0214
     22 C          -4.2511  -20.6316   19.7253 C.3     1  UNL1        0.0894
     23 C          -2.6071  -19.0196   20.9290 C.2     1  UNL1        0.2215
     24 O          -2.0923  -20.1612   21.7547 O.2     1  UNL1       -0.2751
     25 N          -3.6864  -19.2548   19.9143 N.am    1  UNL1       -0.3044
     26 H          -4.0243  -18.5056   19.3723 H       1  UNL1        0.1494
     27 C          -2.6366  -17.5881   22.4941 C.3     1  UNL1        0.0091
     28 C          -2.0425  -17.6429   21.1179 C.3     1  UNL1        0.0689
     29 C          -1.4485  -17.6976   19.7417 C.3     1  UNL1        0.0091
     30 C          -1.4780  -16.2660   21.3069 C.3     1  UNL1        0.0091
@<TRIPOS>BOND
     1    27    28    1
     2    28    29    1
     3    28    30    1
     4    28    23    1
     5    23    24    2
     6    23    25   am
     7    25    22    1
     8    22    21    1
     9    21     1    1
    10     1     2    1
    11     2     3    1
    12     3     4    1
    13     4     7    1
    14     7     8   ar
    15     8     9   ar
    16     9    10   ar
    17    10    11   ar
    18    11    12   ar
    19    12    13   ar
    20    13    16    1
    21    16    17   am
    22    16    18    2
    23    13    14   ar
    24    14    15   ar
    25     4     5    1
    26     5     6    1
    27     6     1    1
    28    15     7   ar
    29    15    11   ar
    30    25    26    1
    31    17    19    1
    32    17    20    1
@<TRIPOS>MOLECULE
*****
 30 32 0 0 0
SMALL
GASTEIGER

@<TRIPOS>ATOM
      1 C         -15.4907   -6.2802   18.1773 C.3     1  UNL1        0.0051
      2 C         -15.7769   -5.2833   17.0936 C.3     1  UNL1        0.0216
      3 C         -16.0545   -3.8518   17.4455 C.3     1  UNL1        0.0922
      4 N         -16.0460   -3.4172   18.8811 N.pl3   1  UNL1       -0.2928
      5 C         -15.7598   -4.4141   19.9648 C.3     1  UNL1        0.0922
      6 C         -15.4822   -5.8455   19.6130 C.3     1  UNL1        0.0216
      7 C         -16.3236   -1.9857   19.2331 C.ar    1  UNL1        0.1409
      8 N         -17.5979   -1.6194   19.9345 N.ar    1  UNL1       -0.2085
      9 C         -17.8755   -0.1880   20.2864 C.ar    1  UNL1        0.2001
     10 N         -16.8788    0.8771   19.9369 N.ar    1  UNL1       -0.2233
     11 C         -15.6045    0.5108   19.2355 C.ar    1  UNL1        0.0924
     12 C         -14.4433    1.3368   18.7672 C.ar    1  UNL1        0.0308
     13 C         -13.4481    0.4159   18.1258 C.ar    1  UNL1        0.0842
     14 S         -13.9941   -0.9793   18.1977 S.2     1  UNL1       -0.0780
     15 C         -15.3269   -0.9206   18.8836 C.ar    1  UNL1        0.0788
     16 C         -12.1369    0.8194   17.5191 C.2     1  UNL1        0.2488
     17 N         -11.1142   -0.2245   17.1807 N.am    1  UNL1       -0.3249
     18 O         -11.8484    2.2667   17.2507 O.2     1  UNL1       -0.2698
     19 H         -11.3035   -1.1744   17.3568 H       1  UNL1        0.1453
     20 H         -10.2537    0.0403   16.7825 H       1  UNL1        0.1453
     21 C         -15.2131   -7.7116   17.8254 C.3     1  UNL1        0.0214
     22 C         -14.0128   -8.4054   18.3980 C.3     1  UNL1        0.0894
     23 C         -11.8336   -7.0269   18.0806 C.2     1  UNL1        0.2215
     24 O         -11.9038   -7.2568   16.6000 O.2     1  UNL1       -0.2751
     25 N         -12.8881   -7.6012   18.9796 N.am    1  UNL1       -0.3044
     26 H         -12.8420   -7.4503   19.9514 H       1  UNL1        0.1494
     27 C          -9.7667   -7.3641   18.4184 C.3     1  UNL1        0.0091
     28 C         -10.7089   -6.2227   18.6622 C.3     1  UNL1        0.0689
     29 C         -11.6511   -5.0813   18.9060 C.3     1  UNL1        0.0091
     30 C          -9.5841   -5.4185   19.2438 C.3     1  UNL1        0.0091
@<TRIPOS>BOND
     1    27    28    1
     2    28    29    1
     3    28    30    1
     4    28    23    1
     5    23    24    2
     6    23    25   am
     7    25    22    1
     8    22    21    1
     9    21     1    1
    10     1     2    1
    11     2     3    1
    12     3     4    1
    13     4     7    1
    14     7     8   ar
    15     8     9   ar
    16     9    10   ar
    17    10    11   ar
    18    11    12   ar
    19    12    13   ar
    20    13    16    1
    21    16    17   am
    22    16    18    2
    23    13    14   ar
    24    14    15   ar
    25     4     5    1
    26     5     6    1
    27     6     1    1
    28    15     7   ar
    29    15    11   ar
    30    25    26    1
    31    17    19    1
    32    17    20    1
@<TRIPOS>MOLECULE
*****
 30 32 0 0 0
SMALL
GASTEIGER

@<TRIPOS>ATOM
      1 C         -10.8374   -5.9059   17.6315 C.3     1  UNL1        0.0051
      2 C         -11.4827   -6.7154   16.5460 C.3     1  UNL1        0.0216
      3 C         -12.7877   -7.4092   16.8028 C.3     1  UNL1        0.0922
      4 N         -13.4472   -7.2934   18.1450 N.pl3   1  UNL1       -0.2928
      5 C         -12.8019   -6.4838   19.2305 C.3     1  UNL1        0.0922
      6 C         -11.4970   -5.7901   18.9737 C.3     1  UNL1        0.0216
      7 C         -14.7522   -7.9872   18.4018 C.ar    1  UNL1        0.1409
      8 N         -14.8637   -9.4705   18.2088 N.ar    1  UNL1       -0.2085
      9 C         -16.1686  -10.1642   18.4656 C.ar    1  UNL1        0.2001
     10 N         -17.3620   -9.3745   18.9154 N.ar    1  UNL1       -0.2233
     11 C         -17.2504   -7.8912   19.1085 C.ar    1  UNL1        0.0924
     12 C         -18.2476   -6.8575   19.5409 C.ar    1  UNL1        0.0308
     13 C         -17.5591   -5.5249   19.5513 C.ar    1  UNL1        0.0842
     14 S         -16.1363   -5.7350   19.1254 S.2     1  UNL1       -0.0780
     15 C         -15.9455   -7.1975   18.8517 C.ar    1  UNL1        0.0788
     16 C         -18.1837   -4.2126   19.9226 C.2     1  UNL1        0.2488
     17 N         -17.3200   -3.0057   20.1397 N.am    1  UNL1       -0.3249
     18 O         -19.6720   -4.1073   20.0766 O.2     1  UNL1       -0.2698
     19 H         -16.3431   -3.0748   20.0386 H       1  UNL1        0.1453
     20 H         -17.7299   -2.1444   20.3834 H       1  UNL1        0.1453
     21 C          -9.5325   -5.2121   17.3747 C.3     1  UNL1        0.0214
     22 C          -9.5204   -3.7921   16.8918 C.3     1  UNL1        0.0894
     23 C         -11.5127   -2.2699   17.5731 C.2     1  UNL1        0.2215
     24 O         -10.9277   -2.1188   18.9461 O.2     1  UNL1       -0.2751
     25 N         -10.8090   -3.1065   16.5460 N.am    1  UNL1       -0.3044
     26 H         -11.1930   -3.2056   15.6449 H       1  UNL1        0.1494
     27 C         -13.1967   -2.7560   16.3783 C.3     1  UNL1        0.0091
     28 C         -12.8012   -1.5843   17.2272 C.3     1  UNL1        0.0689
     29 C         -12.4057   -0.4127   18.0762 C.3     1  UNL1        0.0091
     30 C         -14.0898   -0.8988   16.8813 C.3     1  UNL1        0.0091
@<TRIPOS>BOND
     1    27    28    1
     2    28    29    1
     3    28    30    1
     4    28    23    1
     5    23    24    2
     6    23    25   am
     7    25    22    1
     8    22    21    1
     9    21     1    1
    10     1     2    1
    11     2     3    1
    12     3     4    1
    13     4     7    1
    14     7     8   ar
    15     8     9   ar
    16     9    10   ar
    17    10    11   ar
    18    11    12   ar
    19    12    13   ar
    20    13    16    1
    21    16    17   am
    22    16    18    2
    23    13    14   ar
    24    14    15   ar
    25     4     5    1
    26     5     6    1
    27     6     1    1
    28    15     7   ar
    29    15    11   ar
    30    25    26    1
    31    17    19    1
    32    17    20    1
@<TRIPOS>MOLECULE
*****
 30 32 0 0 0
SMALL
GASTEIGER

@<TRIPOS>ATOM
      1 C           1.0772    1.7450   18.9700 C.3     1  UNL1        0.0051
      2 C           2.4958    1.5451   18.5256 C.3     1  UNL1        0.0216
      3 C           3.2369    0.3017   18.9193 C.3     1  UNL1        0.0922
      4 N           2.5594   -0.7416   19.7574 N.pl3   1  UNL1       -0.2928
      5 C           1.1408   -0.5416   20.2017 C.3     1  UNL1        0.0922
      6 C           0.3997    0.7016   19.8081 C.3     1  UNL1        0.0216
      7 C           3.3005   -1.9849   20.1511 C.ar    1  UNL1        0.1409
      8 N           3.5202   -3.0769   19.1465 N.ar    1  UNL1       -0.2085
      9 C           4.2612   -4.3202   19.5402 C.ar    1  UNL1        0.2001
     10 N           4.7826   -4.4715   20.9385 N.ar    1  UNL1       -0.2233
     11 C           4.5629   -3.3795   21.9431 C.ar    1  UNL1        0.0924
     12 C           4.9575   -3.2471   23.3842 C.ar    1  UNL1        0.0308
     13 C           4.4604   -1.9220   23.8811 C.ar    1  UNL1        0.0842
     14 S           3.7585   -1.2354   22.7472 S.2     1  UNL1       -0.0780
     15 C           3.8219   -2.1362   21.5494 C.ar    1  UNL1        0.0788
     16 C           4.6345   -1.3789   25.2685 C.2     1  UNL1        0.2488
     17 N           3.6311   -1.7073   26.3339 N.am    1  UNL1       -0.3249
     18 O           5.8122   -0.5074   25.5904 O.2     1  UNL1       -0.2698
     19 H           2.8581   -2.2793   26.1227 H       1  UNL1        0.1453
     20 H           3.7454   -1.3508   27.2445 H       1  UNL1        0.1453
     21 C           0.3361    2.9883   18.5764 C.3     1  UNL1        0.0214
     22 C          -0.7233    3.5475   19.4791 C.3     1  UNL1        0.0894
     23 C          -3.3009    3.4480   19.7889 C.2     1  UNL1        0.2215
     24 O          -3.1139    2.8573   21.1550 O.2     1  UNL1       -0.2751
     25 N          -2.1056    3.7931   18.9510 N.am    1  UNL1       -0.3044
     26 H          -2.2284    4.1808   18.0544 H       1  UNL1        0.1494
     27 C          -5.2369    3.5616   20.6486 C.3     1  UNL1        0.0091
     28 C          -4.6832    3.6937   19.2608 C.3     1  UNL1        0.0689
     29 C          -4.1295    3.8258   17.8730 C.3     1  UNL1        0.0091
     30 C          -6.0655    3.9393   18.7327 C.3     1  UNL1        0.0091
@<TRIPOS>BOND
     1    27    28    1
     2    28    29    1
     3    28    30    1
     4    28    23    1
     5    23    24    2
     6    23    25   am
     7    25    22    1
     8    22    21    1
     9    21     1    1
    10     1     2    1
    11     2     3    1
    12     3     4    1
    13     4     7    1
    14     7     8   ar
    15     8     9   ar
    16     9    10   ar
    17    10    11   ar
    18    11    12   ar
    19    12    13   ar
    20    13    16    1
    21    16    17   am
    22    16    18    2
    23    13    14   ar
    24    14    15   ar
    25     4     5    1
    26     5     6    1
    27     6     1    1
    28    15     7   ar
    29    15    11   ar
    30    25    26    1
    31    17    19    1
    32    17    20    1
