@<TRIPOS>MOLECULE
*****
 29 30 0 0 0
SMALL
GASTEIGER

@<TRIPOS>ATOM
      1 C          -6.0702  -20.1822   20.4948 C.3     1  UNL1        0.1484
      2 O          -5.9269  -21.6628   20.3015 O.3     1  UNL1       -0.3786
      3 H          -5.0073  -21.9230   20.4672 H       1  UNL1        0.2108
      4 C          -4.8795  -19.3583   20.8859 C.ar    1  UNL1        0.0059
      5 C          -4.8366  -18.6927   22.2296 C.ar    1  UNL1        0.0012
      6 C          -3.6459  -17.8687   22.6208 C.ar    1  UNL1        0.0365
      7 C          -2.4979  -17.7103   21.6684 C.ar    1  UNL1        0.1379
      8 O          -1.3071  -16.8863   22.0596 O.3     1  UNL1       -0.5054
      9 C          -2.5406  -18.3758   20.3248 C.ar    1  UNL1        0.0865
     10 C          -3.7315  -19.1998   19.9336 C.ar    1  UNL1        0.0056
     11 H          -1.2803  -16.4706   22.8989 H       1  UNL1        0.2922
     12 C          -1.3927  -18.2174   19.3725 C.2     1  UNL1        0.2457
     13 N          -1.6194  -17.6131   18.0184 N.am    1  UNL1       -0.3252
     14 O          -0.0179  -18.6631   19.7741 O.2     1  UNL1       -0.2703
     15 H          -2.5217  -17.3205   17.7547 H       1  UNL1        0.1453
     16 H          -0.8660  -17.5091   17.3933 H       1  UNL1        0.1453
     17 C          -7.4043  -19.5257   20.2968 C.3     1  UNL1        0.1028
     18 N          -7.6148  -18.1073   20.7371 N.3     1  UNL1       -0.2962
     19 H          -6.6893  -17.6999   20.8703 H       1  UNL1        0.1233
     20 C          -8.7902  -18.9368   22.9004 C.3     1  UNL1        0.0171
     21 C          -8.3991  -17.8170   21.9823 C.3     1  UNL1        0.0544
     22 C          -8.7922  -16.4069   22.3094 C.3     1  UNL1        0.0204
     23 C          -7.7711  -15.4494   22.8484 C.3     1  UNL1        0.0277
     24 C          -7.4206  -15.4691   24.3068 C.ar    1  UNL1       -0.0221
     25 C          -5.9845  -15.3995   24.7340 C.ar    1  UNL1       -0.0043
     26 C          -5.6341  -15.4192   26.1923 C.ar    1  UNL1       -0.0003
     27 C          -6.7198  -15.5084   27.2234 C.ar    1  UNL1       -0.0000
     28 C          -8.1560  -15.5780   26.7962 C.ar    1  UNL1       -0.0003
     29 C          -8.5064  -15.5583   25.3379 C.ar    1  UNL1       -0.0043
@<TRIPOS>BOND
     1    20    21    1
     2    21    22    1
     3    22    23    1
     4    23    24    1
     5    24    25   ar
     6    25    26   ar
     7    26    27   ar
     8    27    28   ar
     9    28    29   ar
    10    21    18    1
    11    18    17    1
    12    17     1    1
    13     1     2    1
    14     1     4    1
    15     4     5   ar
    16     5     6   ar
    17     6     7   ar
    18     7     8    1
    19     7     9   ar
    20     9    12    1
    21    12    13   am
    22    12    14    2
    23     9    10   ar
    24    29    24   ar
    25    10     4   ar
    26    18    19    1
    27     2     3    1
    28     8    11    1
    29    13    15    1
    30    13    16    1
@<TRIPOS>MOLECULE
*****
 29 30 0 0 0
SMALL
GASTEIGER

@<TRIPOS>ATOM
      1 C          -6.3080  -18.9446   21.1863 C.3     1  UNL1        0.1484
      2 O          -6.0669  -18.5433   19.7612 O.3     1  UNL1       -0.3786
      3 H          -6.8898  -18.2019   19.3778 H       1  UNL1        0.2108
      4 C          -7.6714  -18.7831   21.7904 C.ar    1  UNL1        0.0059
      5 C          -8.1882  -19.8050   22.7594 C.ar    1  UNL1        0.0012
      6 C          -9.5516  -19.6435   23.3635 C.ar    1  UNL1        0.0365
      7 C         -10.3982  -18.4601   22.9988 C.ar    1  UNL1        0.1379
      8 O         -11.7616  -18.2986   23.6030 O.3     1  UNL1       -0.5054
      9 C          -9.8814  -17.4383   22.0300 C.ar    1  UNL1        0.0865
     10 C          -8.5180  -17.5998   21.4258 C.ar    1  UNL1        0.0056
     11 H         -12.0844  -18.9369   24.2082 H       1  UNL1        0.2922
     12 C         -10.7280  -16.2550   21.6653 C.2     1  UNL1        0.2457
     13 N         -11.6248  -15.6294   22.6922 N.am    1  UNL1       -0.3252
     14 O         -10.6778  -15.6972   20.2738 O.2     1  UNL1       -0.2703
     15 H         -11.6578  -15.9955   23.6055 H       1  UNL1        0.1453
     16 H         -12.1805  -14.8527   22.4529 H       1  UNL1        0.1453
     17 C          -5.1857  -19.5074   22.0071 C.3     1  UNL1        0.1028
     18 N          -3.8047  -18.9358   21.8814 N.3     1  UNL1       -0.2962
     19 H          -3.1591  -19.6475   22.2237 H       1  UNL1        0.1233
     20 C          -2.3631  -16.7809   22.0494 C.3     1  UNL1        0.0171
     21 C          -3.4545  -17.6588   22.5861 C.3     1  UNL1        0.0544
     22 C          -4.1958  -17.2597   23.8277 C.3     1  UNL1        0.0204
     23 C          -4.9445  -15.9606   23.8692 C.3     1  UNL1        0.0277
     24 C          -6.0624  -15.7702   24.8511 C.ar    1  UNL1       -0.0221
     25 C          -7.4866  -15.7991   24.3811 C.ar    1  UNL1       -0.0043
     26 C          -8.6044  -15.6087   25.3631 C.ar    1  UNL1       -0.0003
     27 C          -8.2980  -15.3895   26.8150 C.ar    1  UNL1       -0.0000
     28 C          -6.8739  -15.3607   27.2850 C.ar    1  UNL1       -0.0003
     29 C          -5.7561  -15.5511   26.3030 C.ar    1  UNL1       -0.0043
@<TRIPOS>BOND
     1    20    21    1
     2    21    22    1
     3    22    23    1
     4    23    24    1
     5    24    25   ar
     6    25    26   ar
     7    26    27   ar
     8    27    28   ar
     9    28    29   ar
    10    21    18    1
    11    18    17    1
    12    17     1    1
    13     1     2    1
    14     1     4    1
    15     4     5   ar
    16     5     6   ar
    17     6     7   ar
    18     7     8    1
    19     7     9   ar
    20     9    12    1
    21    12    13   am
    22    12    14    2
    23     9    10   ar
    24    29    24   ar
    25    10     4   ar
    26    18    19    1
    27     2     3    1
    28     8    11    1
    29    13    15    1
    30    13    16    1
@<TRIPOS>MOLECULE
*****
 29 30 0 0 0
SMALL
GASTEIGER

@<TRIPOS>ATOM
      1 C          -4.5517  -15.6186   23.5110 C.3     1  UNL1        0.1484
      2 O          -4.7342  -14.3617   22.7130 O.3     1  UNL1       -0.3786
      3 H          -4.3640  -14.4859   21.8250 H       1  UNL1        0.2108
      4 C          -3.8788  -16.8082   22.8931 C.ar    1  UNL1        0.0059
      5 C          -4.2356  -18.1922   23.3484 C.ar    1  UNL1        0.0012
      6 C          -3.5627  -19.3819   22.7305 C.ar    1  UNL1        0.0365
      7 C          -2.5329  -19.1876   21.6573 C.ar    1  UNL1        0.1379
      8 O          -1.8600  -20.3772   21.0394 O.3     1  UNL1       -0.5054
      9 C          -2.1761  -17.8037   21.2020 C.ar    1  UNL1        0.0865
     10 C          -2.8490  -16.6139   21.8199 C.ar    1  UNL1        0.0056
     11 H          -2.0829  -21.2418   21.3238 H       1  UNL1        0.2922
     12 C          -1.1463  -17.6094   20.1287 C.2     1  UNL1        0.2457
     13 N           0.0132  -16.6862   20.3601 N.am    1  UNL1       -0.3252
     14 O          -1.2760  -18.3382   18.8241 O.2     1  UNL1       -0.2703
     15 H           0.0983  -16.2079   21.2163 H       1  UNL1        0.1453
     16 H           0.6890  -16.5587   19.6557 H       1  UNL1        0.1453
     17 C          -5.0422  -15.6858   24.9270 C.3     1  UNL1        0.1028
     18 N          -6.1611  -14.7936   25.3763 N.3     1  UNL1       -0.2962
     19 H          -5.9475  -14.5125   26.3332 H       1  UNL1        0.1233
     20 C          -8.2841  -15.5311   26.6798 C.3     1  UNL1        0.0171
     21 C          -7.5718  -15.3035   25.3795 C.3     1  UNL1        0.0544
     22 C          -8.2702  -15.5859   24.0823 C.3     1  UNL1        0.0204
     23 C          -8.7350  -16.9769   23.7681 C.3     1  UNL1        0.0277
     24 C         -10.2020  -17.2715   23.6619 C.ar    1  UNL1       -0.0221
     25 C         -10.8052  -18.3796   24.4731 C.ar    1  UNL1       -0.0043
     26 C         -12.2721  -18.6742   24.3669 C.ar    1  UNL1       -0.0003
     27 C         -13.1359  -17.8605   23.4493 C.ar    1  UNL1       -0.0000
     28 C         -12.5327  -16.7524   22.6380 C.ar    1  UNL1       -0.0003
     29 C         -11.0658  -16.4579   22.7443 C.ar    1  UNL1       -0.0043
@<TRIPOS>BOND
     1    20    21    1
     2    21    22    1
     3    22    23    1
     4    23    24    1
     5    24    25   ar
     6    25    26   ar
     7    26    27   ar
     8    27    28   ar
     9    28    29   ar
    10    21    18    1
    11    18    17    1
    12    17     1    1
    13     1     2    1
    14     1     4    1
    15     4     5   ar
    16     5     6   ar
    17     6     7   ar
    18     7     8    1
    19     7     9   ar
    20     9    12    1
    21    12    13   am
    22    12    14    2
    23     9    10   ar
    24    29    24   ar
    25    10     4   ar
    26    18    19    1
    27     2     3    1
    28     8    11    1
    29    13    15    1
    30    13    16    1
@<TRIPOS>MOLECULE
*****
 29 30 0 0 0
SMALL
GASTEIGER

@<TRIPOS>ATOM
      1 C          -7.8003  -19.3497   20.9667 C.3     1  UNL1        0.1484
      2 O          -8.4376  -18.9768   19.6610 O.3     1  UNL1       -0.3786
      3 H          -7.7529  -18.8946   18.9788 H       1  UNL1        0.2108
      4 C          -6.3140  -19.5336   21.0503 C.ar    1  UNL1        0.0059
      5 C          -5.6226  -20.4859   20.1200 C.ar    1  UNL1        0.0012
      6 C          -4.1363  -20.6698   20.2036 C.ar    1  UNL1        0.0365
      7 C          -3.3413  -19.9015   21.2174 C.ar    1  UNL1        0.1379
      8 O          -1.8550  -20.0855   21.3010 O.3     1  UNL1       -0.5054
      9 C          -4.0327  -18.9493   22.1476 C.ar    1  UNL1        0.0865
     10 C          -5.5190  -18.7653   22.0640 C.ar    1  UNL1        0.0056
     11 H          -1.4231  -20.6803   20.7199 H       1  UNL1        0.2922
     12 C          -3.2377  -18.1810   23.1614 C.2     1  UNL1        0.2457
     13 N          -1.8821  -17.6475   22.8038 N.am    1  UNL1       -0.3252
     14 O          -3.7982  -17.9463   24.5327 O.2     1  UNL1       -0.2703
     15 H          -1.5142  -17.8016   21.9037 H       1  UNL1        0.1453
     16 H          -1.3603  -17.1433   23.4692 H       1  UNL1        0.1453
     17 C          -8.6493  -19.5386   22.1887 C.3     1  UNL1        0.1028
     18 N         -10.0242  -18.9418   22.2464 N.3     1  UNL1       -0.2962
     19 H         -10.1440  -18.3953   21.3935 H       1  UNL1        0.1233
     20 C         -11.1427  -18.6146   24.5684 C.3     1  UNL1        0.0171
     21 C         -10.4072  -18.0494   23.3897 C.3     1  UNL1        0.0544
     22 C         -10.0545  -16.5919   23.3542 C.3     1  UNL1        0.0204
     23 C          -8.6156  -16.1683   23.3512 C.3     1  UNL1        0.0277
     24 C          -7.9145  -15.8847   24.6466 C.ar    1  UNL1       -0.0221
     25 C          -8.6768  -15.9302   25.9376 C.ar    1  UNL1       -0.0043
     26 C          -7.9757  -15.6467   27.2330 C.ar    1  UNL1       -0.0003
     27 C          -6.5123  -15.3175   27.2373 C.ar    1  UNL1       -0.0000
     28 C          -5.7499  -15.2719   25.9463 C.ar    1  UNL1       -0.0003
     29 C          -6.4510  -15.5555   24.6510 C.ar    1  UNL1       -0.0043
@<TRIPOS>BOND
     1    20    21    1
     2    21    22    1
     3    22    23    1
     4    23    24    1
     5    24    25   ar
     6    25    26   ar
     7    26    27   ar
     8    27    28   ar
     9    28    29   ar
    10    21    18    1
    11    18    17    1
    12    17     1    1
    13     1     2    1
    14     1     4    1
    15     4     5   ar
    16     5     6   ar
    17     6     7   ar
    18     7     8    1
    19     7     9   ar
    20     9    12    1
    21    12    13   am
    22    12    14    2
    23     9    10   ar
    24    29    24   ar
    25    10     4   ar
    26    18    19    1
    27     2     3    1
    28     8    11    1
    29    13    15    1
    30    13    16    1
@<TRIPOS>MOLECULE
*****
 29 30 0 0 0
SMALL
GASTEIGER

@<TRIPOS>ATOM
      1 C         -11.7479  -17.2407   20.8417 C.3     1  UNL1        0.1484
      2 O         -12.8158  -16.2063   20.6432 O.3     1  UNL1       -0.3786
      3 H         -13.0109  -15.7762   21.4904 H       1  UNL1        0.2108
      4 C         -11.1641  -17.4636   22.2053 C.ar    1  UNL1        0.0059
      5 C         -11.5337  -18.6885   22.9884 C.ar    1  UNL1        0.0012
      6 C         -10.9499  -18.9114   24.3520 C.ar    1  UNL1        0.0365
      7 C          -9.9964  -17.9096   24.9325 C.ar    1  UNL1        0.1379
      8 O          -9.4125  -18.1325   26.2961 O.3     1  UNL1       -0.5054
      9 C          -9.6267  -16.6848   24.1495 C.ar    1  UNL1        0.0865
     10 C         -10.2105  -16.4618   22.7859 C.ar    1  UNL1        0.0056
     11 H          -9.6434  -18.8976   26.7852 H       1  UNL1        0.2922
     12 C          -8.6732  -15.6829   24.7301 C.2     1  UNL1        0.2457
     13 N          -7.8911  -14.7791   23.8237 N.am    1  UNL1       -0.3252
     14 O          -8.5017  -15.5848   26.2170 O.2     1  UNL1       -0.2703
     15 H          -8.0036  -14.8434   22.8478 H       1  UNL1        0.1453
     16 H          -7.2653  -14.1215   24.2047 H       1  UNL1        0.1453
     17 C         -11.2638  -18.0522   19.6768 C.3     1  UNL1        0.1028
     18 N         -10.6148  -19.3844   19.9087 N.3     1  UNL1       -0.2962
     19 H         -10.8617  -19.6713   20.8559 H       1  UNL1        0.1233
     20 C          -8.5351  -20.2790   18.6341 C.3     1  UNL1        0.0171
     21 C          -9.1262  -19.5247   19.7880 C.3     1  UNL1        0.0544
     22 C          -8.2288  -18.9106   20.8213 C.3     1  UNL1        0.0204
     23 C          -7.3530  -19.7848   21.6689 C.3     1  UNL1        0.0277
     24 C          -5.8690  -19.7972   21.4502 C.ar    1  UNL1       -0.0221
     25 C          -5.2903  -20.5270   20.2745 C.ar    1  UNL1       -0.0043
     26 C          -3.8064  -20.5393   20.0558 C.ar    1  UNL1       -0.0003
     27 C          -2.9012  -19.8218   21.0128 C.ar    1  UNL1       -0.0000
     28 C          -3.4800  -19.0920   22.1885 C.ar    1  UNL1       -0.0003
     29 C          -4.9639  -19.0797   22.4072 C.ar    1  UNL1       -0.0043
@<TRIPOS>BOND
     1    20    21    1
     2    21    22    1
     3    22    23    1
     4    23    24    1
     5    24    25   ar
     6    25    26   ar
     7    26    27   ar
     8    27    28   ar
     9    28    29   ar
    10    21    18    1
    11    18    17    1
    12    17     1    1
    13     1     2    1
    14     1     4    1
    15     4     5   ar
    16     5     6   ar
    17     6     7   ar
    18     7     8    1
    19     7     9   ar
    20     9    12    1
    21    12    13   am
    22    12    14    2
    23     9    10   ar
    24    29    24   ar
    25    10     4   ar
    26    18    19    1
    27     2     3    1
    28     8    11    1
    29    13    15    1
    30    13    16    1
@<TRIPOS>MOLECULE
*****
 29 30 0 0 0
SMALL
GASTEIGER

@<TRIPOS>ATOM
      1 C         -11.3895  -17.2374   23.5009 C.3     1  UNL1        0.1484
      2 O         -12.5278  -16.6236   22.7410 O.3     1  UNL1       -0.3786
      3 H         -12.2174  -15.8287   22.2798 H       1  UNL1        0.2108
      4 C         -10.0309  -16.6032   23.4583 C.ar    1  UNL1        0.0059
      5 C          -9.4320  -16.2004   22.1433 C.ar    1  UNL1        0.0012
      6 C          -8.0734  -15.5662   22.1008 C.ar    1  UNL1        0.0365
      7 C          -7.3136  -15.3346   23.3732 C.ar    1  UNL1        0.1379
      8 O          -5.9550  -14.7004   23.3307 O.3     1  UNL1       -0.5054
      9 C          -7.9124  -15.7373   24.6882 C.ar    1  UNL1        0.0865
     10 C          -9.2711  -16.3716   24.7308 C.ar    1  UNL1        0.0056
     11 H          -5.5809  -14.4488   22.5093 H       1  UNL1        0.2922
     12 C          -7.1526  -15.5058   25.9607 C.2     1  UNL1        0.2457
     13 N          -7.8771  -15.0601   27.1962 N.am    1  UNL1       -0.3252
     14 O          -5.6685  -15.7200   25.9976 O.2     1  UNL1       -0.2703
     15 H          -8.8512  -14.9195   27.1720 H       1  UNL1        0.1453
     16 H          -7.3784  -14.9081   28.0314 H       1  UNL1        0.1453
     17 C         -11.6098  -18.4855   24.3032 C.3     1  UNL1        0.1028
     18 N         -10.6003  -19.5940   24.2583 N.3     1  UNL1       -0.2962
     19 H          -9.8383  -19.3237   24.8801 H       1  UNL1        0.1233
     20 C         -10.8416  -20.2693   21.7611 C.3     1  UNL1        0.0171
     21 C          -9.9752  -19.9866   22.9525 C.3     1  UNL1        0.0544
     22 C          -8.4835  -20.0964   22.8381 C.3     1  UNL1        0.0204
     23 C          -7.7270  -19.1468   21.9573 C.3     1  UNL1        0.0277
     24 C          -6.2989  -19.4330   21.5981 C.ar    1  UNL1       -0.0221
     25 C          -5.9825  -20.3726   20.4725 C.ar    1  UNL1       -0.0043
     26 C          -4.5545  -20.6587   20.1135 C.ar    1  UNL1       -0.0003
     27 C          -3.4430  -20.0053   20.8800 C.ar    1  UNL1       -0.0000
     28 C          -3.7594  -19.0657   22.0056 C.ar    1  UNL1       -0.0003
     29 C          -5.1874  -18.7796   22.3647 C.ar    1  UNL1       -0.0043
@<TRIPOS>BOND
     1    20    21    1
     2    21    22    1
     3    22    23    1
     4    23    24    1
     5    24    25   ar
     6    25    26   ar
     7    26    27   ar
     8    27    28   ar
     9    28    29   ar
    10    21    18    1
    11    18    17    1
    12    17     1    1
    13     1     2    1
    14     1     4    1
    15     4     5   ar
    16     5     6   ar
    17     6     7   ar
    18     7     8    1
    19     7     9   ar
    20     9    12    1
    21    12    13   am
    22    12    14    2
    23     9    10   ar
    24    29    24   ar
    25    10     4   ar
    26    18    19    1
    27     2     3    1
    28     8    11    1
    29    13    15    1
    30    13    16    1
@<TRIPOS>MOLECULE
*****
 29 30 0 0 0
SMALL
GASTEIGER

@<TRIPOS>ATOM
      1 C          -7.5508  -19.7090   20.9707 C.3     1  UNL1        0.1484
      2 O          -7.0656  -20.4426   19.7557 O.3     1  UNL1       -0.3786
      3 H          -7.7876  -20.5151   19.1120 H       1  UNL1        0.2108
      4 C          -8.9676  -19.2206   21.0359 C.ar    1  UNL1        0.0059
      5 C          -9.6772  -18.8080   19.7804 C.ar    1  UNL1        0.0012
      6 C         -11.0939  -18.3196   19.8456 C.ar    1  UNL1        0.0365
      7 C         -11.8011  -18.2439   21.1662 C.ar    1  UNL1        0.1379
      8 O         -13.2179  -17.7555   21.2314 O.3     1  UNL1       -0.5054
      9 C         -11.0916  -18.6565   22.4217 C.ar    1  UNL1        0.0865
     10 C          -9.6748  -19.1449   22.3565 C.ar    1  UNL1        0.0056
     11 H         -13.6611  -17.4977   20.4471 H       1  UNL1        0.2922
     12 C         -11.7988  -18.5808   23.7423 C.2     1  UNL1        0.2457
     13 N         -11.1488  -19.1377   24.9742 N.am    1  UNL1       -0.3252
     14 O         -13.1560  -17.9482   23.8312 O.2     1  UNL1       -0.2703
     15 H         -10.2581  -19.5529   24.9159 H       1  UNL1        0.1453
     16 H         -11.6130  -19.0880   25.8410 H       1  UNL1        0.1453
     17 C          -6.6193  -19.4638   22.1205 C.3     1  UNL1        0.1028
     18 N          -5.9827  -18.1170   22.2960 N.3     1  UNL1       -0.2962
     19 H          -6.0056  -17.6595   21.3846 H       1  UNL1        0.1233
     20 C          -3.5360  -18.9903   22.3268 C.3     1  UNL1        0.0171
     21 C          -4.5727  -18.0135   22.7971 C.3     1  UNL1        0.0544
     22 C          -4.1993  -16.9332   23.7685 C.3     1  UNL1        0.0204
     23 C          -5.0339  -15.6906   23.8655 C.3     1  UNL1        0.0277
     24 C          -6.1219  -15.5962   24.8939 C.ar    1  UNL1       -0.0221
     25 C          -5.7715  -15.4587   26.3459 C.ar    1  UNL1       -0.0043
     26 C          -6.8594  -15.3643   27.3742 C.ar    1  UNL1       -0.0003
     27 C          -8.2977  -15.4075   26.9505 C.ar    1  UNL1       -0.0000
     28 C          -8.6481  -15.5450   25.4986 C.ar    1  UNL1       -0.0003
     29 C          -7.5601  -15.6394   24.4702 C.ar    1  UNL1       -0.0043
@<TRIPOS>BOND
     1    20    21    1
     2    21    22    1
     3    22    23    1
     4    23    24    1
     5    24    25   ar
     6    25    26   ar
     7    26    27   ar
     8    27    28   ar
     9    28    29   ar
    10    21    18    1
    11    18    17    1
    12    17     1    1
    13     1     2    1
    14     1     4    1
    15     4     5   ar
    16     5     6   ar
    17     6     7   ar
    18     7     8    1
    19     7     9   ar
    20     9    12    1
    21    12    13   am
    22    12    14    2
    23     9    10   ar
    24    29    24   ar
    25    10     4   ar
    26    18    19    1
    27     2     3    1
    28     8    11    1
    29    13    15    1
    30    13    16    1
@<TRIPOS>MOLECULE
*****
 29 30 0 0 0
SMALL
GASTEIGER

@<TRIPOS>ATOM
      1 C          -5.5028  -19.4379   21.4305 C.3     1  UNL1        0.1484
      2 O          -4.1167  -19.9963   21.3017 O.3     1  UNL1       -0.3786
      3 H          -3.5071  -19.4781   21.8502 H       1  UNL1        0.2108
      4 C          -5.7544  -18.2517   22.3133 C.ar    1  UNL1        0.0059
      5 C          -4.6102  -17.5849   23.0178 C.ar    1  UNL1        0.0012
      6 C          -4.8618  -16.3986   23.9006 C.ar    1  UNL1        0.0365
      7 C          -6.2576  -15.8791   24.0791 C.ar    1  UNL1        0.1379
      8 O          -6.5093  -14.6928   24.9619 O.3     1  UNL1       -0.5054
      9 C          -7.4018  -16.5458   23.3746 C.ar    1  UNL1        0.0865
     10 C          -7.1502  -17.7322   22.4918 C.ar    1  UNL1        0.0056
     11 H          -5.7945  -14.2763   25.4019 H       1  UNL1        0.2922
     12 C          -8.7976  -16.0263   23.5531 C.2     1  UNL1        0.2457
     13 N          -9.7003  -15.8779   22.3643 N.am    1  UNL1       -0.3252
     14 O          -9.2907  -15.6552   24.9202 O.2     1  UNL1       -0.2703
     15 H          -9.3767  -16.1215   21.4670 H       1  UNL1        0.1453
     16 H         -10.6165  -15.5369   22.4813 H       1  UNL1        0.1453
     17 C          -6.6374  -20.0658   20.6765 C.3     1  UNL1        0.1028
     18 N          -7.3487  -19.2893   19.6083 N.3     1  UNL1       -0.2962
     19 H          -7.4134  -18.3262   19.9380 H       1  UNL1        0.1233
     20 C          -8.9122  -20.8367   18.2260 C.3     1  UNL1        0.0171
     21 C          -8.7281  -19.6937   19.1797 C.3     1  UNL1        0.0544
     22 C          -9.9234  -18.9550   19.7048 C.3     1  UNL1        0.0204
     23 C         -10.9016  -19.6530   20.6026 C.3     1  UNL1        0.0277
     24 C         -10.7824  -19.5166   22.0916 C.ar    1  UNL1       -0.0221
     25 C         -11.7717  -18.6822   22.8499 C.ar    1  UNL1       -0.0043
     26 C         -11.6525  -18.5458   24.3389 C.ar    1  UNL1       -0.0003
     27 C         -10.5440  -19.2438   25.0696 C.ar    1  UNL1       -0.0000
     28 C          -9.5547  -20.0782   24.3114 C.ar    1  UNL1       -0.0003
     29 C          -9.6739  -20.2146   22.8224 C.ar    1  UNL1       -0.0043
@<TRIPOS>BOND
     1    20    21    1
     2    21    22    1
     3    22    23    1
     4    23    24    1
     5    24    25   ar
     6    25    26   ar
     7    26    27   ar
     8    27    28   ar
     9    28    29   ar
    10    21    18    1
    11    18    17    1
    12    17     1    1
    13     1     2    1
    14     1     4    1
    15     4     5   ar
    16     5     6   ar
    17     6     7   ar
    18     7     8    1
    19     7     9   ar
    20     9    12    1
    21    12    13   am
    22    12    14    2
    23     9    10   ar
    24    29    24   ar
    25    10     4   ar
    26    18    19    1
    27     2     3    1
    28     8    11    1
    29    13    15    1
    30    13    16    1
@<TRIPOS>MOLECULE
*****
 29 30 0 0 0
SMALL
GASTEIGER

@<TRIPOS>ATOM
      1 C          -4.1964  -17.1902   23.9909 C.3     1  UNL1        0.1484
      2 O          -3.7567  -17.7518   25.3104 O.3     1  UNL1       -0.3786
      3 H          -3.3586  -18.6257   25.1734 H       1  UNL1        0.2108
      4 C          -3.9854  -17.9787   22.7325 C.ar    1  UNL1        0.0059
      5 C          -4.9946  -19.0061   22.3130 C.ar    1  UNL1        0.0012
      6 C          -4.7835  -19.7946   21.0545 C.ar    1  UNL1        0.0365
      7 C          -3.5633  -19.5557   20.2156 C.ar    1  UNL1        0.1379
      8 O          -3.3522  -20.3442   18.9571 O.3     1  UNL1       -0.5054
      9 C          -2.5540  -18.5284   20.6350 C.ar    1  UNL1        0.0865
     10 C          -2.7651  -17.7398   21.8935 C.ar    1  UNL1        0.0056
     11 H          -3.9826  -20.9860   18.6951 H       1  UNL1        0.2922
     12 C          -1.3337  -18.2895   19.7961 C.2     1  UNL1        0.2457
     13 N          -1.4791  -17.8804   18.3602 N.am    1  UNL1       -0.3252
     14 O           0.0318  -18.4598   20.3929 O.2     1  UNL1       -0.2703
     15 H          -2.3753  -17.7687   17.9685 H       1  UNL1        0.1453
     16 H          -0.6782  -17.7237   17.8096 H       1  UNL1        0.1453
     17 C          -4.8472  -15.8401   23.9298 C.3     1  UNL1        0.1028
     18 N          -5.3661  -15.2002   25.1833 N.3     1  UNL1       -0.2962
     19 H          -4.8281  -15.5899   25.9573 H       1  UNL1        0.1233
     20 C          -7.2058  -15.5830   26.9774 C.3     1  UNL1        0.0171
     21 C          -6.8141  -15.3361   25.5507 C.3     1  UNL1        0.0544
     22 C          -7.8703  -15.2252   24.4914 C.3     1  UNL1        0.0204
     23 C          -9.1593  -15.9785   24.6357 C.3     1  UNL1        0.0277
     24 C          -9.2170  -17.4384   24.2958 C.ar    1  UNL1       -0.0221
     25 C          -9.9427  -18.3906   25.1993 C.ar    1  UNL1       -0.0043
     26 C         -10.0004  -19.8505   24.8594 C.ar    1  UNL1       -0.0003
     27 C          -9.3323  -20.3580   23.6160 C.ar    1  UNL1       -0.0000
     28 C          -8.6066  -19.4057   22.7125 C.ar    1  UNL1       -0.0003
     29 C          -8.5489  -17.9459   23.0524 C.ar    1  UNL1       -0.0043
@<TRIPOS>BOND
     1    20    21    1
     2    21    22    1
     3    22    23    1
     4    23    24    1
     5    24    25   ar
     6    25    26   ar
     7    26    27   ar
     8    27    28   ar
     9    28    29   ar
    10    21    18    1
    11    18    17    1
    12    17     1    1
    13     1     2    1
    14     1     4    1
    15     4     5   ar
    16     5     6   ar
    17     6     7   ar
    18     7     8    1
    19     7     9   ar
    20     9    12    1
    21    12    13   am
    22    12    14    2
    23     9    10   ar
    24    29    24   ar
    25    10     4   ar
    26    18    19    1
    27     2     3    1
    28     8    11    1
    29    13    15    1
    30    13    16    1
