@<TRIPOS>MOLECULE
*****
 21 22 0 0 0
SMALL
GASTEIGER

@<TRIPOS>ATOM
      1 C          -9.8670  -17.9832   22.4841 C.ar    1  UNL1        0.0448
      2 C         -10.3902  -19.3890   22.4796 C.ar    1  UNL1        0.0257
      3 C         -10.4444  -20.1732   23.7571 C.ar    1  UNL1        0.0971
      4 N          -9.9756  -19.5516   25.0392 N.ar    1  UNL1       -0.2440
      5 C          -9.4524  -18.1458   25.0438 C.ar    1  UNL1        0.0833
      6 C          -8.9836  -17.5242   26.3258 C.ar    1  UNL1        0.0305
      7 C          -8.4604  -16.1184   26.3304 C.ar    1  UNL1        0.0592
      8 CL         -7.9915  -15.4968   27.6125 Cl      1  UNL1       -0.0822
      9 C          -8.4061  -15.3342   25.0529 C.ar    1  UNL1        0.0115
     10 C          -8.8750  -15.9558   23.7708 C.ar    1  UNL1        0.0036
     11 C          -9.3981  -17.3616   23.7662 C.ar    1  UNL1        0.0306
     12 C         -10.8591  -20.0107   21.1974 C.3     1  UNL1        0.0950
     13 N         -10.0863  -19.7907   19.9307 N.3     1  UNL1       -0.3174
     14 H         -10.1338  -18.8057   19.6702 H       1  UNL1        0.1192
     15 H         -10.4872  -20.3594   19.1849 H       1  UNL1        0.1192
     16 N          -9.8127  -17.1990   21.2066 N.pl3   1  UNL1       -0.3328
     17 H          -9.0502  -17.3087   20.5937 H       1  UNL1        0.1468
     18 C         -10.9204  -16.2477   20.8629 C.3     1  UNL1        0.0870
     19 C         -12.3386  -16.5906   21.2109 C.3     1  UNL1        0.0212
     20 C         -13.3557  -17.5989   23.3786 C.3     1  UNL1        0.0001
     21 C         -12.8283  -16.4184   22.6182 C.3     1  UNL1        0.0017
@<TRIPOS>BOND
     1    20    21    1
     2    21    19    1
     3    19    18    1
     4    18    16    1
     5    16     1    1
     6     1     2   ar
     7     2    12    1
     8    12    13    1
     9     2     3   ar
    10     3     4   ar
    11     4     5   ar
    12     5     6   ar
    13     6     7   ar
    14     7     8    1
    15     7     9   ar
    16     9    10   ar
    17    10    11   ar
    18    11     1   ar
    19    11     5   ar
    20    16    17    1
    21    13    14    1
    22    13    15    1
@<TRIPOS>MOLECULE
*****
 21 22 0 0 0
SMALL
GASTEIGER

@<TRIPOS>ATOM
      1 C          -8.6748  -17.5816   22.1073 C.ar    1  UNL1        0.0448
      2 C          -7.7466  -18.7579   22.1769 C.ar    1  UNL1        0.0257
      3 C          -8.2187  -20.0517   22.7711 C.ar    1  UNL1        0.0971
      4 N          -9.6190  -20.1693   23.2958 N.ar    1  UNL1       -0.2440
      5 C         -10.5473  -18.9930   23.2263 C.ar    1  UNL1        0.0833
      6 C         -11.9475  -19.1105   23.7510 C.ar    1  UNL1        0.0305
      7 C         -12.8757  -17.9343   23.6814 C.ar    1  UNL1        0.0592
      8 CL        -14.2761  -18.0518   24.2061 Cl      1  UNL1       -0.0822
      9 C         -12.4036  -16.6405   23.0872 C.ar    1  UNL1        0.0115
     10 C         -11.0033  -16.5229   22.5625 C.ar    1  UNL1        0.0036
     11 C         -10.0752  -17.6992   22.6320 C.ar    1  UNL1        0.0306
     12 C          -6.3463  -18.6404   21.6521 C.3     1  UNL1        0.0950
     13 N          -6.1098  -18.4348   20.1852 N.3     1  UNL1       -0.3174
     14 H          -6.4154  -19.2618   19.6724 H       1  UNL1        0.1192
     15 H          -5.1153  -18.2802   20.0195 H       1  UNL1        0.1192
     16 N          -8.2027  -16.2878   21.5131 N.pl3   1  UNL1       -0.3328
     17 H          -8.1942  -16.1691   20.5358 H       1  UNL1        0.1468
     18 C          -7.7435  -15.1749   22.4079 C.3     1  UNL1        0.0870
     19 C          -6.8464  -15.4709   23.5730 C.3     1  UNL1        0.0212
     20 C          -8.7359  -15.5813   25.3527 C.3     1  UNL1        0.0001
     21 C          -7.3289  -15.2270   24.9721 C.3     1  UNL1        0.0017
@<TRIPOS>BOND
     1    20    21    1
     2    21    19    1
     3    19    18    1
     4    18    16    1
     5    16     1    1
     6     1     2   ar
     7     2    12    1
     8    12    13    1
     9     2     3   ar
    10     3     4   ar
    11     4     5   ar
    12     5     6   ar
    13     6     7   ar
    14     7     8    1
    15     7     9   ar
    16     9    10   ar
    17    10    11   ar
    18    11     1   ar
    19    11     5   ar
    20    16    17    1
    21    13    14    1
    22    13    15    1
@<TRIPOS>MOLECULE
*****
 21 22 0 0 0
SMALL
GASTEIGER

@<TRIPOS>ATOM
      1 C          -8.9147  -17.1185   22.4692 C.ar    1  UNL1        0.0448
      2 C          -7.6343  -16.8093   23.1867 C.ar    1  UNL1        0.0257
      3 C          -6.3579  -17.4737   22.7631 C.ar    1  UNL1        0.0971
      4 N          -6.3620  -18.4473   21.6220 N.ar    1  UNL1       -0.2440
      5 C          -7.6425  -18.7566   20.9045 C.ar    1  UNL1        0.0833
      6 C          -7.6466  -19.7302   19.7635 C.ar    1  UNL1        0.0305
      7 C          -8.9270  -20.0394   19.0460 C.ar    1  UNL1        0.0592
      8 CL         -8.9312  -21.0130   17.9049 Cl      1  UNL1       -0.0822
      9 C         -10.2034  -19.3749   19.4696 C.ar    1  UNL1        0.0115
     10 C         -10.1993  -18.4013   20.6106 C.ar    1  UNL1        0.0036
     11 C          -8.9189  -18.0922   21.3281 C.ar    1  UNL1        0.0306
     12 C          -7.6302  -15.8357   24.3278 C.3     1  UNL1        0.0950
     13 N          -7.8328  -14.3726   24.0661 N.3     1  UNL1       -0.3174
     14 H          -7.0440  -14.0107   23.5300 H       1  UNL1        0.1192
     15 H          -7.8979  -13.8743   24.9536 H       1  UNL1        0.1192
     16 N         -10.1911  -16.4541   22.8928 N.pl3   1  UNL1       -0.3328
     17 H         -10.3285  -15.4951   22.7176 H       1  UNL1        0.1468
     18 C         -11.2581  -17.2508   23.5832 C.3     1  UNL1        0.0870
     19 C         -10.8786  -18.3411   24.5410 C.3     1  UNL1        0.0212
     20 C          -9.4770  -20.4841   24.1015 C.3     1  UNL1        0.0001
     21 C         -10.7905  -19.7607   24.0647 C.3     1  UNL1        0.0017
@<TRIPOS>BOND
     1    20    21    1
     2    21    19    1
     3    19    18    1
     4    18    16    1
     5    16     1    1
     6     1     2   ar
     7     2    12    1
     8    12    13    1
     9     2     3   ar
    10     3     4   ar
    11     4     5   ar
    12     5     6   ar
    13     6     7   ar
    14     7     8    1
    15     7     9   ar
    16     9    10   ar
    17    10    11   ar
    18    11     1   ar
    19    11     5   ar
    20    16    17    1
    21    13    14    1
    22    13    15    1
@<TRIPOS>MOLECULE
*****
 21 22 0 0 0
SMALL
GASTEIGER

@<TRIPOS>ATOM
      1 C          -6.1980  -17.3069   23.0683 C.ar    1  UNL1        0.0448
      2 C          -5.3434  -18.4271   22.5537 C.ar    1  UNL1        0.0257
      3 C          -5.9819  -19.6895   22.0552 C.ar    1  UNL1        0.0971
      4 N          -7.4750  -19.8318   22.0713 N.ar    1  UNL1       -0.2440
      5 C          -8.3297  -18.7116   22.5859 C.ar    1  UNL1        0.0833
      6 C          -9.8228  -18.8539   22.6019 C.ar    1  UNL1        0.0305
      7 C         -10.6774  -17.7337   23.1165 C.ar    1  UNL1        0.0592
      8 CL        -12.1706  -17.8760   23.1326 Cl      1  UNL1       -0.0822
      9 C         -10.0389  -16.4713   23.6151 C.ar    1  UNL1        0.0115
     10 C          -8.5458  -16.3290   23.5990 C.ar    1  UNL1        0.0036
     11 C          -7.6912  -17.4492   23.0844 C.ar    1  UNL1        0.0306
     12 C          -3.8502  -18.2848   22.5376 C.3     1  UNL1        0.0950
     13 N          -3.2199  -17.0592   21.9455 N.3     1  UNL1       -0.3174
     14 H          -3.4047  -17.0326   20.9427 H       1  UNL1        0.1192
     15 H          -2.2127  -17.0840   22.1050 H       1  UNL1        0.1192
     16 N          -5.5595  -16.0445   23.5669 N.pl3   1  UNL1       -0.3328
     17 H          -5.4044  -15.2940   22.9488 H       1  UNL1        0.1468
     18 C          -5.1572  -15.9255   25.0071 C.3     1  UNL1        0.0870
     19 C          -5.9667  -15.0792   25.9444 C.3     1  UNL1        0.0212
     20 C          -8.1723  -15.5167   27.2458 C.3     1  UNL1        0.0001
     21 C          -6.6936  -15.7158   27.0916 C.3     1  UNL1        0.0017
@<TRIPOS>BOND
     1    20    21    1
     2    21    19    1
     3    19    18    1
     4    18    16    1
     5    16     1    1
     6     1     2   ar
     7     2    12    1
     8    12    13    1
     9     2     3   ar
    10     3     4   ar
    11     4     5   ar
    12     5     6   ar
    13     6     7   ar
    14     7     8    1
    15     7     9   ar
    16     9    10   ar
    17    10    11   ar
    18    11     1   ar
    19    11     5   ar
    20    16    17    1
    21    13    14    1
    22    13    15    1
@<TRIPOS>MOLECULE
*****
 21 22 0 0 0
SMALL
GASTEIGER

@<TRIPOS>ATOM
      1 C          -9.2461  -17.8286   21.7243 C.ar    1  UNL1        0.0448
      2 C         -10.3333  -18.1224   20.7335 C.ar    1  UNL1        0.0257
      3 C         -10.0424  -18.9684   19.5295 C.ar    1  UNL1        0.0971
      4 N          -8.6642  -19.5207   19.3163 N.ar    1  UNL1       -0.2440
      5 C          -7.5769  -19.2270   20.3070 C.ar    1  UNL1        0.0833
      6 C          -6.1987  -19.7793   20.0937 C.ar    1  UNL1        0.0305
      7 C          -5.1115  -19.4855   21.0844 C.ar    1  UNL1        0.0592
      8 CL         -3.7332  -20.0378   20.8712 Cl      1  UNL1       -0.0822
      9 C          -5.4024  -18.6395   22.2884 C.ar    1  UNL1        0.0115
     10 C          -6.7806  -18.0872   22.5017 C.ar    1  UNL1        0.0036
     11 C          -7.8678  -18.3810   21.5110 C.ar    1  UNL1        0.0306
     12 C         -11.7116  -17.5701   20.9468 C.3     1  UNL1        0.0950
     13 N         -12.2216  -16.4665   20.0682 N.3     1  UNL1       -0.3174
     14 H         -11.6725  -15.6222   20.2295 H       1  UNL1        0.1192
     15 H         -13.2006  -16.2824   20.2872 H       1  UNL1        0.1192
     16 N          -9.5370  -16.9826   22.9282 N.pl3   1  UNL1       -0.3328
     17 H          -9.5725  -16.0024   22.8441 H       1  UNL1        0.1468
     18 C          -9.7738  -17.6302   24.2604 C.3     1  UNL1        0.0870
     19 C         -10.9140  -18.5889   24.4362 C.3     1  UNL1        0.0212
     20 C          -9.3364  -20.6228   24.0836 C.3     1  UNL1        0.0001
     21 C         -10.7202  -20.0468   24.1417 C.3     1  UNL1        0.0017
@<TRIPOS>BOND
     1    20    21    1
     2    21    19    1
     3    19    18    1
     4    18    16    1
     5    16     1    1
     6     1     2   ar
     7     2    12    1
     8    12    13    1
     9     2     3   ar
    10     3     4   ar
    11     4     5   ar
    12     5     6   ar
    13     6     7   ar
    14     7     8    1
    15     7     9   ar
    16     9    10   ar
    17    10    11   ar
    18    11     1   ar
    19    11     5   ar
    20    16    17    1
    21    13    14    1
    22    13    15    1
@<TRIPOS>MOLECULE
*****
 21 22 0 0 0
SMALL
GASTEIGER

@<TRIPOS>ATOM
      1 C         -11.8432   -6.3903   19.0689 C.ar    1  UNL1        0.0448
      2 C         -10.3526   -6.3717   18.9025 C.ar    1  UNL1        0.0257
      3 C          -9.6216   -5.0636   18.8360 C.ar    1  UNL1        0.0971
      4 N         -10.3812   -3.7741   18.9360 N.ar    1  UNL1       -0.2440
      5 C         -11.8719   -3.7926   19.1023 C.ar    1  UNL1        0.0833
      6 C         -12.6315   -2.5030   19.2022 C.ar    1  UNL1        0.0305
      7 C         -14.1221   -2.5216   19.3686 C.ar    1  UNL1        0.0592
      8 CL        -14.8818   -1.2320   19.4685 Cl      1  UNL1       -0.0822
      9 C         -14.8531   -3.8298   19.4351 C.ar    1  UNL1        0.0115
     10 C         -14.0935   -5.1193   19.3352 C.ar    1  UNL1        0.0036
     11 C         -12.6029   -5.1007   19.1688 C.ar    1  UNL1        0.0306
     12 C          -9.5930   -7.6614   18.8026 C.3     1  UNL1        0.0950
     13 N          -9.9510   -8.6626   17.7446 N.3     1  UNL1       -0.3174
     14 H         -10.8857   -9.0287   17.9254 H       1  UNL1        0.1192
     15 H          -9.2773   -9.4283   17.7593 H       1  UNL1        0.1192
     16 N         -12.5742   -7.6985   19.1353 N.pl3   1  UNL1       -0.3328
     17 H         -12.4805   -8.2750   19.9278 H       1  UNL1        0.1468
     18 C         -13.4481   -8.1281   17.9943 C.3     1  UNL1        0.0870
     19 C         -14.6713   -8.9556   18.2568 C.3     1  UNL1        0.0212
     20 C         -16.4764   -9.0229   20.1242 C.3     1  UNL1        0.0001
     21 C         -15.8591   -8.3432   18.9380 C.3     1  UNL1        0.0017
@<TRIPOS>BOND
     1    20    21    1
     2    21    19    1
     3    19    18    1
     4    18    16    1
     5    16     1    1
     6     1     2   ar
     7     2    12    1
     8    12    13    1
     9     2     3   ar
    10     3     4   ar
    11     4     5   ar
    12     5     6   ar
    13     6     7   ar
    14     7     8    1
    15     7     9   ar
    16     9    10   ar
    17    10    11   ar
    18    11     1   ar
    19    11     5   ar
    20    16    17    1
    21    13    14    1
    22    13    15    1
@<TRIPOS>MOLECULE
*****
 21 22 0 0 0
SMALL
GASTEIGER

@<TRIPOS>ATOM
      1 C          -8.2814  -16.7144   23.0788 C.ar    1  UNL1        0.0448
      2 C          -9.3347  -17.5956   22.4755 C.ar    1  UNL1        0.0257
      3 C          -8.9457  -18.8847   21.8145 C.ar    1  UNL1        0.0971
      4 N          -7.5034  -19.2926   21.7568 N.ar    1  UNL1       -0.2440
      5 C          -6.4500  -18.4113   22.3601 C.ar    1  UNL1        0.0833
      6 C          -5.0077  -18.8192   22.3024 C.ar    1  UNL1        0.0305
      7 C          -3.9544  -17.9380   22.9057 C.ar    1  UNL1        0.0592
      8 CL         -2.5121  -18.3458   22.8480 Cl      1  UNL1       -0.0822
      9 C          -4.3435  -16.6489   23.5667 C.ar    1  UNL1        0.0115
     10 C          -5.7858  -16.2410   23.6244 C.ar    1  UNL1        0.0036
     11 C          -6.8390  -17.1222   23.0211 C.ar    1  UNL1        0.0306
     12 C         -10.7771  -17.1878   22.5332 C.3     1  UNL1        0.0950
     13 N         -11.1775  -15.7921   22.1567 N.3     1  UNL1       -0.3174
     14 H         -10.7866  -15.1329   22.8298 H       1  UNL1        0.1192
     15 H         -12.1948  -15.7178   22.1594 H       1  UNL1        0.1192
     16 N          -8.6704  -15.4253   23.7398 N.pl3   1  UNL1       -0.3328
     17 H          -8.6577  -14.5854   23.2264 H       1  UNL1        0.1468
     18 C          -9.0789  -15.4160   25.1832 C.3     1  UNL1        0.0870
     19 C          -8.5772  -16.4820   26.1115 C.3     1  UNL1        0.0212
     20 C          -6.4778  -15.3827   27.1762 C.3     1  UNL1        0.0001
     21 C          -7.7836  -16.1051   27.3272 C.3     1  UNL1        0.0017
@<TRIPOS>BOND
     1    20    21    1
     2    21    19    1
     3    19    18    1
     4    18    16    1
     5    16     1    1
     6     1     2   ar
     7     2    12    1
     8    12    13    1
     9     2     3   ar
    10     3     4   ar
    11     4     5   ar
    12     5     6   ar
    13     6     7   ar
    14     7     8    1
    15     7     9   ar
    16     9    10   ar
    17    10    11   ar
    18    11     1   ar
    19    11     5   ar
    20    16    17    1
    21    13    14    1
    22    13    15    1
@<TRIPOS>MOLECULE
*****
 21 22 0 0 0
SMALL
GASTEIGER

@<TRIPOS>ATOM
      1 C          -7.1010  -17.1953   23.0337 C.ar    1  UNL1        0.0448
      2 C          -6.3648  -16.2474   23.9333 C.ar    1  UNL1        0.0257
      3 C          -4.8683  -16.3038   24.0185 C.ar    1  UNL1        0.0971
      4 N          -4.1080  -17.3081   23.2041 N.ar    1  UNL1       -0.2440
      5 C          -4.8442  -18.2561   22.3044 C.ar    1  UNL1        0.0833
      6 C          -4.0839  -19.2604   21.4900 C.ar    1  UNL1        0.0305
      7 C          -4.8201  -20.2083   20.5904 C.ar    1  UNL1        0.0592
      8 CL         -4.0598  -21.2126   19.7759 Cl      1  UNL1       -0.0822
      9 C          -6.3166  -20.1519   20.5052 C.ar    1  UNL1        0.0115
     10 C          -7.0769  -19.1476   21.3196 C.ar    1  UNL1        0.0036
     11 C          -6.3407  -18.1997   22.2192 C.ar    1  UNL1        0.0306
     12 C          -7.1251  -15.2431   24.7478 C.3     1  UNL1        0.0950
     13 N          -7.8993  -14.1550   24.0646 N.3     1  UNL1       -0.3174
     14 H          -7.2537  -13.5299   23.5820 H       1  UNL1        0.1192
     15 H          -8.4287  -13.6273   24.7586 H       1  UNL1        0.1192
     16 N          -8.5975  -17.1390   22.9485 N.pl3   1  UNL1       -0.3328
     17 H          -9.0306  -16.6460   22.2145 H       1  UNL1        0.1468
     18 C          -9.4343  -17.8337   23.9816 C.3     1  UNL1        0.0870
     19 C          -9.5089  -19.3317   24.0029 C.3     1  UNL1        0.0212
     20 C         -11.1636  -19.3055   22.0001 C.3     1  UNL1        0.0001
     21 C         -10.2573  -20.0607   22.9266 C.3     1  UNL1        0.0017
@<TRIPOS>BOND
     1    20    21    1
     2    21    19    1
     3    19    18    1
     4    18    16    1
     5    16     1    1
     6     1     2   ar
     7     2    12    1
     8    12    13    1
     9     2     3   ar
    10     3     4   ar
    11     4     5   ar
    12     5     6   ar
    13     6     7   ar
    14     7     8    1
    15     7     9   ar
    16     9    10   ar
    17    10    11   ar
    18    11     1   ar
    19    11     5   ar
    20    16    17    1
    21    13    14    1
    22    13    15    1
@<TRIPOS>MOLECULE
*****
 21 22 0 0 0
SMALL
GASTEIGER

@<TRIPOS>ATOM
      1 C          -7.7845  -17.3694   22.5971 C.ar    1  UNL1        0.0448
      2 C          -6.9184  -18.5822   22.4270 C.ar    1  UNL1        0.0257
      3 C          -7.5276  -19.9520   22.4781 C.ar    1  UNL1        0.0971
      4 N          -9.0028  -20.1090   22.6993 N.ar    1  UNL1       -0.2440
      5 C          -9.8690  -18.8961   22.8694 C.ar    1  UNL1        0.0833
      6 C         -11.3442  -19.0531   23.0906 C.ar    1  UNL1        0.0305
      7 C         -12.2103  -17.8403   23.2606 C.ar    1  UNL1        0.0592
      8 CL        -13.6857  -17.9973   23.4818 Cl      1  UNL1       -0.0822
      9 C         -11.6011  -16.4705   23.2096 C.ar    1  UNL1        0.0115
     10 C         -10.1259  -16.3136   22.9884 C.ar    1  UNL1        0.0036
     11 C          -9.2598  -17.5264   22.8183 C.ar    1  UNL1        0.0306
     12 C          -5.4431  -18.4253   22.2059 C.3     1  UNL1        0.0950
     13 N          -4.5268  -19.5969   22.4002 N.3     1  UNL1       -0.3174
     14 H          -4.5242  -19.8670   23.3838 H       1  UNL1        0.1192
     15 H          -3.5816  -19.3401   22.1156 H       1  UNL1        0.1192
     16 N          -7.1753  -15.9996   22.5461 N.pl3   1  UNL1       -0.3328
     17 H          -7.0002  -15.5709   21.6773 H       1  UNL1        0.1468
     18 C          -6.8329  -15.2832   23.8187 C.3     1  UNL1        0.0870
     19 C          -5.5743  -15.6281   24.5582 C.3     1  UNL1        0.0212
     20 C          -6.6114  -15.5664   26.9395 C.3     1  UNL1        0.0001
     21 C          -5.4534  -15.3143   26.0200 C.3     1  UNL1        0.0017
@<TRIPOS>BOND
     1    20    21    1
     2    21    19    1
     3    19    18    1
     4    18    16    1
     5    16     1    1
     6     1     2   ar
     7     2    12    1
     8    12    13    1
     9     2     3   ar
    10     3     4   ar
    11     4     5   ar
    12     5     6   ar
    13     6     7   ar
    14     7     8    1
    15     7     9   ar
    16     9    10   ar
    17    10    11   ar
    18    11     1   ar
    19    11     5   ar
    20    16    17    1
    21    13    14    1
    22    13    15    1
