@<TRIPOS>MOLECULE
*****
 17 19 0 0 0
SMALL
GASTEIGER

@<TRIPOS>ATOM
      1 C          -8.0551  -15.4798   22.1134 C.3     1  UNL1        0.2210
      2 C          -7.6523  -15.4793   23.5582 C.3     1  UNL1        0.0982
      3 C          -6.2011  -15.5442   23.9323 C.3     1  UNL1        0.0196
      4 C          -5.7982  -15.5437   25.3771 C.3     1  UNL1        0.0029
      5 C          -6.8466  -15.4783   26.4480 C.3     1  UNL1        0.0158
      6 C          -7.8949  -15.4129   27.5189 C.3     1  UNL1        0.0170
      7 C          -8.2977  -15.4134   26.0740 C.3     1  UNL1        0.0541
      8 N          -8.7006  -15.4139   24.6291 N.3     1  UNL1       -0.2966
      9 H          -9.2302  -14.5567   24.4707 H       1  UNL1        0.1233
     10 O          -8.8390  -16.6298   21.5537 O.3     1  UNL1       -0.4724
     11 CL        -14.1119  -18.1345   23.9893 Cl      1  UNL1       -0.0613
     12 C         -12.7937  -17.7583   23.3804 C.ar    1  UNL1        0.1386
     13 C         -12.6585  -16.4725   22.6198 C.ar    1  UNL1        0.0339
     14 C         -11.3401  -16.0964   22.0109 C.ar    1  UNL1        0.0410
     15 C         -10.1572  -17.0060   22.1626 C.ar    1  UNL1        0.1578
     16 C         -10.2924  -18.2918   22.9231 C.ar    1  UNL1        0.1366
     17 N         -11.6106  -18.6680   23.5320 N.ar    1  UNL1       -0.2293
@<TRIPOS>BOND
     1    11    12    1
     2    12    13   ar
     3    13    14   ar
     4    14    15   ar
     5    15    10    1
     6    10     1    1
     7     2     1    1
     8     2     3    1
     9     3     4    1
    10     5     4    1
    11     5     6    1
    12     7     6    1
    13     7     8    1
    14    15    16   ar
    15    16    17   ar
    16    17    12   ar
    17     8     2    1
    18     7     5    1
    19     8     9    1
@<TRIPOS>MOLECULE
*****
 17 19 0 0 0
SMALL
GASTEIGER

@<TRIPOS>ATOM
      1 C          -6.9276  -19.1131   21.3098 C.3     1  UNL1        0.2210
      2 C          -5.4579  -19.0570   21.0153 C.3     1  UNL1        0.0982
      3 C          -4.4684  -19.5111   22.0471 C.3     1  UNL1        0.0196
      4 C          -2.9987  -19.4550   21.7526 C.3     1  UNL1        0.0029
      5 C          -2.5185  -18.9449   20.4262 C.3     1  UNL1        0.0158
      6 C          -2.0383  -18.4348   19.0999 C.3     1  UNL1        0.0170
      7 C          -3.5080  -18.4909   19.3944 C.3     1  UNL1        0.0541
      8 N          -4.9778  -18.5469   19.6890 N.3     1  UNL1       -0.2966
      9 H          -5.3987  -19.1414   18.9749 H       1  UNL1        0.1233
     10 O          -7.7688  -17.8793   21.1671 O.3     1  UNL1       -0.4724
     11 CL        -13.3363  -17.7692   23.4010 Cl      1  UNL1       -0.0613
     12 C         -11.9444  -17.7968   22.8425 C.ar    1  UNL1        0.1386
     13 C         -11.3177  -19.1031   22.4545 C.ar    1  UNL1        0.0339
     14 C          -9.9257  -19.1306   21.8960 C.ar    1  UNL1        0.0410
     15 C          -9.1606  -17.8518   21.7256 C.ar    1  UNL1        0.1578
     16 C          -9.7874  -16.5454   22.1136 C.ar    1  UNL1        0.1366
     17 N         -11.1793  -16.5179   22.6720 N.ar    1  UNL1       -0.2293
@<TRIPOS>BOND
     1    11    12    1
     2    12    13   ar
     3    13    14   ar
     4    14    15   ar
     5    15    10    1
     6    10     1    1
     7     2     1    1
     8     2     3    1
     9     3     4    1
    10     5     4    1
    11     5     6    1
    12     7     6    1
    13     7     8    1
    14    15    16   ar
    15    16    17   ar
    16    17    12   ar
    17     8     2    1
    18     7     5    1
    19     8     9    1
@<TRIPOS>MOLECULE
*****
 17 19 0 0 0
SMALL
GASTEIGER

@<TRIPOS>ATOM
      1 C          -7.4332  -18.6210   21.3258 C.3     1  UNL1        0.2210
      2 C          -6.0052  -19.0551   21.1765 C.3     1  UNL1        0.0982
      3 C          -5.6559  -20.1772   20.2444 C.3     1  UNL1        0.0196
      4 C          -4.2278  -20.6112   20.0952 C.3     1  UNL1        0.0029
      5 C          -3.1490  -19.9231   20.8780 C.3     1  UNL1        0.0158
      6 C          -2.0703  -19.2350   21.6608 C.3     1  UNL1        0.0170
      7 C          -3.4983  -18.8009   21.8100 C.3     1  UNL1        0.0541
      8 N          -4.9265  -18.3669   21.9593 N.3     1  UNL1       -0.2966
      9 H          -4.9623  -17.3798   21.7051 H       1  UNL1        0.1233
     10 O          -7.7555  -17.1799   21.5893 O.3     1  UNL1       -0.4724
     11 CL         -8.3338  -15.2181   27.2299 Cl      1  UNL1       -0.0613
     12 C          -8.1892  -15.7086   25.8198 C.ar    1  UNL1        0.1386
     13 C          -9.0915  -16.7911   25.3060 C.ar    1  UNL1        0.0339
     14 C          -8.9469  -17.2815   23.8958 C.ar    1  UNL1        0.0410
     15 C          -7.9000  -16.6895   22.9995 C.ar    1  UNL1        0.1578
     16 C          -6.9977  -15.6070   23.5133 C.ar    1  UNL1        0.1366
     17 N          -7.1423  -15.1165   24.9234 N.ar    1  UNL1       -0.2293
@<TRIPOS>BOND
     1    11    12    1
     2    12    13   ar
     3    13    14   ar
     4    14    15   ar
     5    15    10    1
     6    10     1    1
     7     2     1    1
     8     2     3    1
     9     3     4    1
    10     5     4    1
    11     5     6    1
    12     7     6    1
    13     7     8    1
    14    15    16   ar
    15    16    17   ar
    16    17    12   ar
    17     8     2    1
    18     7     5    1
    19     8     9    1
@<TRIPOS>MOLECULE
*****
 17 19 0 0 0
SMALL
GASTEIGER

@<TRIPOS>ATOM
      1 C          -4.4153  -16.9814   23.7010 C.3     1  UNL1        0.2210
      2 C          -3.5209  -17.5482   22.6386 C.3     1  UNL1        0.0982
      3 C          -3.5291  -19.0218   22.3589 C.3     1  UNL1        0.0196
      4 C          -2.6347  -19.5886   21.2965 C.3     1  UNL1        0.0029
      5 C          -1.7319  -18.6817   20.5138 C.3     1  UNL1        0.0158
      6 C          -0.8293  -17.7748   19.7311 C.3     1  UNL1        0.0170
      7 C          -1.7237  -17.2080   20.7935 C.3     1  UNL1        0.0541
      8 N          -2.6182  -16.6413   21.8559 N.3     1  UNL1       -0.2966
      9 H          -3.2164  -15.9520   21.4004 H       1  UNL1        0.1233
     10 O          -5.5042  -16.0189   23.3297 O.3     1  UNL1       -0.4724
     11 CL        -11.2491  -17.7201   23.6479 Cl      1  UNL1       -0.0613
     12 C          -9.8129  -17.2948   23.5684 C.ar    1  UNL1        0.1386
     13 C          -9.3261  -16.1395   24.3920 C.ar    1  UNL1        0.0339
     14 C          -7.8898  -15.7142   24.3124 C.ar    1  UNL1        0.0410
     15 C          -6.9404  -16.4442   23.4093 C.ar    1  UNL1        0.1578
     16 C          -7.4272  -17.5994   22.5856 C.ar    1  UNL1        0.1366
     17 N          -8.8635  -18.0248   22.6652 N.ar    1  UNL1       -0.2293
@<TRIPOS>BOND
     1    11    12    1
     2    12    13   ar
     3    13    14   ar
     4    14    15   ar
     5    15    10    1
     6    10     1    1
     7     2     1    1
     8     2     3    1
     9     3     4    1
    10     5     4    1
    11     5     6    1
    12     7     6    1
    13     7     8    1
    14    15    16   ar
    15    16    17   ar
    16    17    12   ar
    17     8     2    1
    18     7     5    1
    19     8     9    1
@<TRIPOS>MOLECULE
*****
 17 19 0 0 0
SMALL
GASTEIGER

@<TRIPOS>ATOM
      1 C          -9.8377  -16.2904   23.9853 C.3     1  UNL1        0.2210
      2 C          -8.6399  -16.0329   24.8506 C.3     1  UNL1        0.0982
      3 C          -8.7372  -16.2073   26.3373 C.3     1  UNL1        0.0196
      4 C          -7.5394  -15.9498   27.2026 C.3     1  UNL1        0.0029
      5 C          -6.2442  -15.5178   26.5814 C.3     1  UNL1        0.0158
      6 C          -4.9491  -15.0857   25.9601 C.3     1  UNL1        0.0170
      7 C          -6.1469  -15.3433   25.0947 C.3     1  UNL1        0.0541
      8 N          -7.3448  -15.6009   24.2294 N.3     1  UNL1       -0.2966
      9 H          -7.0784  -16.3295   23.5671 H       1  UNL1        0.1233
     10 O         -10.2764  -17.6985   23.7116 O.3     1  UNL1       -0.4724
     11 CL         -9.0436  -20.2506   18.4233 Cl      1  UNL1       -0.0613
     12 C          -9.3518  -19.6126   19.7453 C.ar    1  UNL1        0.1386
     13 C         -10.6987  -19.8073   20.3762 C.ar    1  UNL1        0.0339
     14 C         -11.0068  -19.1693   21.6984 C.ar    1  UNL1        0.0410
     15 C          -9.9682  -18.3365   22.3895 C.ar    1  UNL1        0.1578
     16 C          -8.6213  -18.1418   21.7586 C.ar    1  UNL1        0.1366
     17 N          -8.3131  -18.7798   20.4365 N.ar    1  UNL1       -0.2293
@<TRIPOS>BOND
     1    11    12    1
     2    12    13   ar
     3    13    14   ar
     4    14    15   ar
     5    15    10    1
     6    10     1    1
     7     2     1    1
     8     2     3    1
     9     3     4    1
    10     5     4    1
    11     5     6    1
    12     7     6    1
    13     7     8    1
    14    15    16   ar
    15    16    17   ar
    16    17    12   ar
    17     8     2    1
    18     7     5    1
    19     8     9    1
@<TRIPOS>MOLECULE
*****
 17 19 0 0 0
SMALL
GASTEIGER

@<TRIPOS>ATOM
      1 C          -6.6252  -18.9702   22.3597 C.3     1  UNL1        0.2210
      2 C          -5.3450  -19.1256   21.5937 C.3     1  UNL1        0.0982
      3 C          -5.2085  -20.2178   20.5747 C.3     1  UNL1        0.0196
      4 C          -3.9282  -20.3732   19.8087 C.3     1  UNL1        0.0029
      5 C          -2.7844  -19.4363   20.0617 C.3     1  UNL1        0.0158
      6 C          -1.6406  -18.4995   20.3147 C.3     1  UNL1        0.0170
      7 C          -2.9209  -18.3441   21.0807 C.3     1  UNL1        0.0541
      8 N          -4.2012  -18.1888   21.8467 N.3     1  UNL1       -0.2966
      9 H          -4.5447  -17.2470   21.6582 H       1  UNL1        0.1233
     10 O          -7.9007  -19.5389   21.8120 O.3     1  UNL1       -0.4724
     11 CL        -12.1326  -15.8770   19.6485 Cl      1  UNL1       -0.0613
     12 C         -11.0747  -16.7925   20.1894 C.ar    1  UNL1        0.1386
     13 C         -10.9941  -18.2115   19.7099 C.ar    1  UNL1        0.0339
     14 C          -9.9360  -19.1270   20.2508 C.ar    1  UNL1        0.0410
     15 C          -8.9586  -18.6234   21.2711 C.ar    1  UNL1        0.1578
     16 C          -9.0392  -17.2044   21.7506 C.ar    1  UNL1        0.1366
     17 N         -10.0972  -16.2889   21.2097 N.ar    1  UNL1       -0.2293
@<TRIPOS>BOND
     1    11    12    1
     2    12    13   ar
     3    13    14   ar
     4    14    15   ar
     5    15    10    1
     6    10     1    1
     7     2     1    1
     8     2     3    1
     9     3     4    1
    10     5     4    1
    11     5     6    1
    12     7     6    1
    13     7     8    1
    14    15    16   ar
    15    16    17   ar
    16    17    12   ar
    17     8     2    1
    18     7     5    1
    19     8     9    1
@<TRIPOS>MOLECULE
*****
 17 19 0 0 0
SMALL
GASTEIGER

@<TRIPOS>ATOM
      1 C          -7.5191  -17.1912   22.7398 C.3     1  UNL1        0.2210
      2 C          -6.2447  -17.9088   22.4069 C.3     1  UNL1        0.0982
      3 C          -6.2782  -19.1364   21.5456 C.3     1  UNL1        0.0196
      4 C          -5.0037  -19.8540   21.2127 C.3     1  UNL1        0.0029
      5 C          -3.6958  -19.3440   21.7412 C.3     1  UNL1        0.0158
      6 C          -2.3879  -18.8340   22.2696 C.3     1  UNL1        0.0170
      7 C          -3.6623  -18.1164   22.6025 C.3     1  UNL1        0.0541
      8 N          -4.9368  -17.3988   22.9354 N.3     1  UNL1       -0.2966
      9 H          -4.8342  -16.4429   22.5946 H       1  UNL1        0.1233
     10 O          -8.7102  -17.3199   21.8370 O.3     1  UNL1       -0.4724
     11 CL        -14.1819  -18.0777   24.1790 Cl      1  UNL1       -0.0613
     12 C         -12.8140  -17.8883   23.5935 C.ar    1  UNL1        0.1386
     13 C         -11.6639  -18.7116   24.0929 C.ar    1  UNL1        0.0339
     14 C         -10.2959  -18.5221   23.5073 C.ar    1  UNL1        0.0410
     15 C         -10.0781  -17.5094   22.4225 C.ar    1  UNL1        0.1578
     16 C         -11.2283  -16.6861   21.9232 C.ar    1  UNL1        0.1366
     17 N         -12.5962  -16.8755   22.5087 N.ar    1  UNL1       -0.2293
@<TRIPOS>BOND
     1    11    12    1
     2    12    13   ar
     3    13    14   ar
     4    14    15   ar
     5    15    10    1
     6    10     1    1
     7     2     1    1
     8     2     3    1
     9     3     4    1
    10     5     4    1
    11     5     6    1
    12     7     6    1
    13     7     8    1
    14    15    16   ar
    15    16    17   ar
    16    17    12   ar
    17     8     2    1
    18     7     5    1
    19     8     9    1
@<TRIPOS>MOLECULE
*****
 17 19 0 0 0
SMALL
GASTEIGER

@<TRIPOS>ATOM
      1 C          -7.9227  -15.0576   22.1702 C.3     1  UNL1        0.2210
      2 C          -7.4087  -15.2044   23.5717 C.3     1  UNL1        0.0982
      3 C          -5.9451  -15.4256   23.8144 C.3     1  UNL1        0.0196
      4 C          -5.4310  -15.5724   25.2159 C.3     1  UNL1        0.0029
      5 C          -6.3806  -15.4980   26.3747 C.3     1  UNL1        0.0158
      6 C          -7.3302  -15.4236   27.5334 C.3     1  UNL1        0.0170
      7 C          -7.8442  -15.2768   26.1320 C.3     1  UNL1        0.0541
      8 N          -8.3583  -15.1300   24.7304 N.3     1  UNL1       -0.2966
      9 H          -8.8156  -14.2198   24.6783 H       1  UNL1        0.1233
     10 O          -8.8103  -16.1144   21.5823 O.3     1  UNL1       -0.4724
     11 CL         -9.6212  -21.3045   24.4813 Cl      1  UNL1       -0.0613
     12 C          -9.4185  -20.0070   23.7566 C.ar    1  UNL1        0.1386
     13 C          -8.2365  -19.8311   22.8499 C.ar    1  UNL1        0.0339
     14 C          -8.0338  -18.5335   22.1251 C.ar    1  UNL1        0.0410
     15 C          -9.0130  -17.4119   22.3071 C.ar    1  UNL1        0.1578
     16 C         -10.1950  -17.5878   23.2137 C.ar    1  UNL1        0.1366
     17 N         -10.3977  -18.8853   23.9385 N.ar    1  UNL1       -0.2293
@<TRIPOS>BOND
     1    11    12    1
     2    12    13   ar
     3    13    14   ar
     4    14    15   ar
     5    15    10    1
     6    10     1    1
     7     2     1    1
     8     2     3    1
     9     3     4    1
    10     5     4    1
    11     5     6    1
    12     7     6    1
    13     7     8    1
    14    15    16   ar
    15    16    17   ar
    16    17    12   ar
    17     8     2    1
    18     7     5    1
    19     8     9    1
@<TRIPOS>MOLECULE
*****
 17 19 0 0 0
SMALL
GASTEIGER

@<TRIPOS>ATOM
      1 C         -11.7639  -18.4098   24.1335 C.3     1  UNL1        0.2210
      2 C         -11.6269  -18.0070   22.6952 C.3     1  UNL1        0.0982
      3 C         -11.2060  -19.0179   21.6700 C.3     1  UNL1        0.0196
      4 C         -11.0690  -18.6151   20.2316 C.3     1  UNL1        0.0029
      5 C         -11.3529  -17.2014   19.8183 C.3     1  UNL1        0.0158
      6 C         -11.6368  -15.7877   19.4051 C.3     1  UNL1        0.0170
      7 C         -11.7738  -16.1905   20.8435 C.3     1  UNL1        0.0541
      8 N         -11.9108  -16.5933   22.2819 N.3     1  UNL1       -0.2966
      9 H         -12.8740  -16.3951   22.5527 H       1  UNL1        0.1233
     10 O         -10.5523  -18.8238   24.9151 O.3     1  UNL1       -0.4724
     11 CL         -6.3073  -14.7920   26.2282 Cl      1  UNL1       -0.0613
     12 C          -7.3686  -15.7999   25.9000 C.ar    1  UNL1        0.1386
     13 C          -8.1306  -16.4729   27.0029 C.ar    1  UNL1        0.0339
     14 C          -9.1919  -17.4809   26.6745 C.ar    1  UNL1        0.0410
     15 C          -9.4911  -17.8159   25.2434 C.ar    1  UNL1        0.1578
     16 C          -8.7290  -17.1429   24.1405 C.ar    1  UNL1        0.1366
     17 N          -7.6678  -16.1349   24.4688 N.ar    1  UNL1       -0.2293
@<TRIPOS>BOND
     1    11    12    1
     2    12    13   ar
     3    13    14   ar
     4    14    15   ar
     5    15    10    1
     6    10     1    1
     7     2     1    1
     8     2     3    1
     9     3     4    1
    10     5     4    1
    11     5     6    1
    12     7     6    1
    13     7     8    1
    14    15    16   ar
    15    16    17   ar
    16    17    12   ar
    17     8     2    1
    18     7     5    1
    19     8     9    1
