@<TRIPOS>MOLECULE
*****
 36 39 0 0 0
SMALL
GASTEIGER

@<TRIPOS>ATOM
      1 C           2.7118    0.0248   21.7299 C.ar    1  UNL1        0.1471
      2 N           3.1458   -1.0444   22.6883 N.ar    1  UNL1       -0.2109
      3 C           4.2921   -0.5078   23.4935 C.ar    1  UNL1        0.1686
      4 C           4.5665    0.8931   23.0327 C.ar    1  UNL1        0.1113
      5 N           3.5899    1.2223   21.9428 N.ar    1  UNL1       -0.3363
      6 H           3.5349    2.0746   21.4531 H       1  UNL1        0.1673
      7 N           5.0336   -1.2429   24.5704 N.ar    1  UNL1       -0.2565
      8 C           6.2844   -2.0004   24.2366 C.ar    1  UNL1        0.0857
      9 C           7.0260   -2.7356   25.3134 C.ar    1  UNL1        0.0340
     10 C           6.5167   -2.7132   26.7241 C.ar    1  UNL1        0.0569
     11 C           5.2658   -1.9557   27.0579 C.ar    1  UNL1        0.0758
     12 C           4.5243   -1.2205   25.9811 C.ar    1  UNL1        0.2672
     13 O           3.2734   -0.4630   26.3149 O.2     1  UNL1       -0.2665
     14 N           7.2583   -3.4484   27.8009 N.am    1  UNL1       -0.2790
     15 C           7.2363   -4.9478   27.8371 C.2     1  UNL1        0.2678
     16 O           6.4728   -5.7120   26.7965 O.2     1  UNL1       -0.2681
     17 H           7.7594   -2.9468   28.4839 H       1  UNL1        0.1552
     18 C           7.9779   -5.6829   28.9141 C.ar    1  UNL1        0.1419
     19 C           9.0857   -6.6721   28.7040 C.ar    1  UNL1        0.0607
     20 S           9.5343   -7.1584   30.0502 S.2     1  UNL1       -0.0638
     21 C           8.7037   -6.4698   31.0922 C.ar    1  UNL1        0.1347
     22 N           7.7418   -5.5579   30.3900 N.ar    1  UNL1       -0.2317
     23 C           0.6302    0.4318   21.7589 C.3     1  UNL1        0.0417
     24 C           1.5958   -0.0842   20.7337 C.3     1  UNL1        0.1567
     25 O           0.4798   -0.1933   19.7374 O.3     1  UNL1       -0.3756
     26 H           0.2223   -1.1234   19.6409 H       1  UNL1        0.2112
     27 C           2.5616   -0.6003   19.7084 C.ar    1  UNL1        0.0084
     28 C           3.1366    0.3318   18.6835 C.ar    1  UNL1       -0.0016
     29 C           4.1023   -0.1843   17.6583 C.ar    1  UNL1       -0.0003
     30 C           4.4930   -1.6325   17.6581 C.ar    1  UNL1        0.0038
     31 C           3.9180   -2.5646   18.6830 C.ar    1  UNL1        0.0712
     32 C           2.9523   -2.0485   19.7081 C.ar    1  UNL1        0.0022
     33 C           4.3087   -4.0128   18.6827 C.3     1  UNL1        0.4186
     34 F           4.6994   -5.4611   18.6824 F       1  UNL1       -0.1659
     35 F           5.7066   -3.6356   18.2910 F       1  UNL1       -0.1659
     36 F           2.9107   -4.3901   19.0744 F       1  UNL1       -0.1659
@<TRIPOS>BOND
     1    23    24    1
     2    24    25    1
     3    24    27    1
     4    27    28   ar
     5    28    29   ar
     6    29    30   ar
     7    30    31   ar
     8    31    33    1
     9    33    34    1
    10    33    35    1
    11    33    36    1
    12    31    32   ar
    13    24     1    1
    14     1     2   ar
    15     2     3   ar
    16     3     7    1
    17     7     8   ar
    18     8     9   ar
    19     9    10   ar
    20    10    14    1
    21    14    15   am
    22    15    16    2
    23    15    18    1
    24    18    19   ar
    25    19    20   ar
    26    20    21   ar
    27    21    22   ar
    28    10    11   ar
    29    11    12   ar
    30    12    13    2
    31     3     4   ar
    32     4     5   ar
    33    32    27   ar
    34     5     1   ar
    35    12     7   ar
    36    22    18   ar
    37    25    26    1
    38    14    17    1
    39     5     6    1
@<TRIPOS>MOLECULE
*****
 36 39 0 0 0
SMALL
GASTEIGER

@<TRIPOS>ATOM
      1 C           2.5592    0.7474   20.0654 C.ar    1  UNL1        0.1471
      2 N           2.0360    1.8207   20.9734 N.ar    1  UNL1       -0.2109
      3 C           0.5864    1.5390   21.2370 C.ar    1  UNL1        0.1686
      4 C           0.2137    0.2916   20.4918 C.ar    1  UNL1        0.1113
      5 N           1.4329   -0.1976   19.7678 N.ar    1  UNL1       -0.3363
      6 H           1.4847   -0.9983   19.1974 H       1  UNL1        0.1673
      7 N          -0.3296    2.3604   22.0950 N.ar    1  UNL1       -0.2565
      8 C          -0.1659    2.3552   23.5859 C.ar    1  UNL1        0.0857
      9 C          -1.0818    3.1767   24.4439 C.ar    1  UNL1        0.0340
     10 C          -2.1616    4.0033   23.8110 C.ar    1  UNL1        0.0569
     11 C          -2.3254    4.0085   22.3199 C.ar    1  UNL1        0.0758
     12 C          -1.4094    3.1871   21.4619 C.ar    1  UNL1        0.2672
     13 O          -1.5732    3.1923   19.9709 O.2     1  UNL1       -0.2665
     14 N          -3.0776    4.8247   24.6690 N.am    1  UNL1       -0.2790
     15 C          -4.4569    4.3267   24.9845 C.2     1  UNL1        0.2678
     16 O          -4.9201    3.0073   24.4420 O.2     1  UNL1       -0.2681
     17 H          -2.7735    5.6908   25.0250 H       1  UNL1        0.1552
     18 C          -5.3729    5.1482   25.8425 C.ar    1  UNL1        0.1419
     19 C          -6.5758    5.9099   25.3705 C.ar    1  UNL1        0.0607
     20 S          -7.1931    6.5846   26.5595 S.2     1  UNL1       -0.0638
     21 C          -6.3717    6.2399   27.7663 C.ar    1  UNL1        0.1347
     22 N          -5.2467    5.3522   27.3232 N.ar    1  UNL1       -0.2317
     23 C           3.8329    1.9916   18.9124 C.3     1  UNL1        0.0417
     24 C           3.9622    0.6383   19.5462 C.3     1  UNL1        0.1567
     25 O           5.3652    0.5292   19.0270 O.3     1  UNL1       -0.3756
     26 H           5.3821   -0.0703   18.2646 H       1  UNL1        0.2112
     27 C           4.0914   -0.7151   20.1801 C.ar    1  UNL1        0.0084
     28 C           4.0512   -0.8508   21.6734 C.ar    1  UNL1       -0.0016
     29 C           4.1804   -2.2041   22.3072 C.ar    1  UNL1       -0.0003
     30 C           4.3499   -3.4217   21.4477 C.ar    1  UNL1        0.0038
     31 C           4.3902   -3.2860   19.9544 C.ar    1  UNL1        0.0712
     32 C           4.2609   -1.9327   19.3206 C.ar    1  UNL1        0.0022
     33 C           4.5597   -4.5036   19.0949 C.3     1  UNL1        0.4186
     34 F           4.7291   -5.7212   18.2355 F       1  UNL1       -0.1659
     35 F           3.6374   -5.2688   19.9971 F       1  UNL1       -0.1659
     36 F           5.4820   -3.7385   18.1928 F       1  UNL1       -0.1659
@<TRIPOS>BOND
     1    23    24    1
     2    24    25    1
     3    24    27    1
     4    27    28   ar
     5    28    29   ar
     6    29    30   ar
     7    30    31   ar
     8    31    33    1
     9    33    34    1
    10    33    35    1
    11    33    36    1
    12    31    32   ar
    13    24     1    1
    14     1     2   ar
    15     2     3   ar
    16     3     7    1
    17     7     8   ar
    18     8     9   ar
    19     9    10   ar
    20    10    14    1
    21    14    15   am
    22    15    16    2
    23    15    18    1
    24    18    19   ar
    25    19    20   ar
    26    20    21   ar
    27    21    22   ar
    28    10    11   ar
    29    11    12   ar
    30    12    13    2
    31     3     4   ar
    32     4     5   ar
    33    32    27   ar
    34     5     1   ar
    35    12     7   ar
    36    22    18   ar
    37    25    26    1
    38    14    17    1
    39     5     6    1
@<TRIPOS>MOLECULE
*****
 36 39 0 0 0
SMALL
GASTEIGER

@<TRIPOS>ATOM
      1 C           2.4030    0.8077   21.0564 C.ar    1  UNL1        0.1471
      2 N           1.9909    0.3044   22.4080 N.ar    1  UNL1       -0.2109
      3 C           3.1059    0.5916   23.3694 C.ar    1  UNL1        0.1686
      4 C           4.2072    1.2724   22.6120 C.ar    1  UNL1        0.1113
      5 N           3.7728    1.4060   21.1825 N.ar    1  UNL1       -0.3363
      6 H           4.2950    1.8146   20.4548 H       1  UNL1        0.1673
      7 N           3.1176    0.2567   24.8315 N.ar    1  UNL1       -0.2565
      8 C           2.5024    1.2003   25.8220 C.ar    1  UNL1        0.0857
      9 C           2.5141    0.8654   27.2840 C.ar    1  UNL1        0.0340
     10 C           3.1410   -0.4130   27.7557 C.ar    1  UNL1        0.0569
     11 C           3.7562   -1.3567   26.7652 C.ar    1  UNL1        0.0758
     12 C           3.7445   -1.0218   25.3031 C.ar    1  UNL1        0.2672
     13 O           4.3597   -1.9654   24.3126 O.2     1  UNL1       -0.2665
     14 N           3.1527   -0.7479   29.2177 N.am    1  UNL1       -0.2790
     15 C           4.3377   -0.3820   30.0615 C.2     1  UNL1        0.2678
     16 O           5.5109    0.3188   29.4432 O.2     1  UNL1       -0.2681
     17 H           2.3826   -1.2078   29.6236 H       1  UNL1        0.1552
     18 C           4.3493   -0.7169   31.5237 C.ar    1  UNL1        0.1419
     19 C           4.2139    0.2608   32.6532 C.ar    1  UNL1        0.0607
     20 S           4.2794   -0.5064   33.9405 S.2     1  UNL1       -0.0638
     21 C           4.4552   -1.9581   33.6066 C.ar    1  UNL1        0.1347
     22 N           4.4984   -2.0882   32.1129 N.ar    1  UNL1       -0.2317
     23 C           0.6240    1.7298   20.3600 C.3     1  UNL1        0.0417
     24 C           1.5885    0.7270   19.7994 C.3     1  UNL1        0.1567
     25 O           0.7739    0.6463   18.5425 O.3     1  UNL1       -0.3756
     26 H           0.2605   -0.1767   18.5422 H       1  UNL1        0.2112
     27 C           2.5530   -0.2758   19.2389 C.ar    1  UNL1        0.0084
     28 C           3.4470    0.1016   18.0951 C.ar    1  UNL1       -0.0016
     29 C           4.4114   -0.9012   17.5346 C.ar    1  UNL1       -0.0003
     30 C           4.4819   -2.2814   18.1179 C.ar    1  UNL1        0.0038
     31 C           3.5879   -2.6587   19.2616 C.ar    1  UNL1        0.0712
     32 C           2.6234   -1.6559   19.8222 C.ar    1  UNL1        0.0022
     33 C           3.6583   -4.0389   19.8449 C.3     1  UNL1        0.4186
     34 F           3.7288   -5.4190   20.4282 F       1  UNL1       -0.1659
     35 F           4.4600   -3.5108   20.9975 F       1  UNL1       -0.1659
     36 F           2.8566   -4.5669   18.6924 F       1  UNL1       -0.1659
@<TRIPOS>BOND
     1    23    24    1
     2    24    25    1
     3    24    27    1
     4    27    28   ar
     5    28    29   ar
     6    29    30   ar
     7    30    31   ar
     8    31    33    1
     9    33    34    1
    10    33    35    1
    11    33    36    1
    12    31    32   ar
    13    24     1    1
    14     1     2   ar
    15     2     3   ar
    16     3     7    1
    17     7     8   ar
    18     8     9   ar
    19     9    10   ar
    20    10    14    1
    21    14    15   am
    22    15    16    2
    23    15    18    1
    24    18    19   ar
    25    19    20   ar
    26    20    21   ar
    27    21    22   ar
    28    10    11   ar
    29    11    12   ar
    30    12    13    2
    31     3     4   ar
    32     4     5   ar
    33    32    27   ar
    34     5     1   ar
    35    12     7   ar
    36    22    18   ar
    37    25    26    1
    38    14    17    1
    39     5     6    1
@<TRIPOS>MOLECULE
*****
 36 39 0 0 0
SMALL
GASTEIGER

@<TRIPOS>ATOM
      1 C           5.3847   -0.1250   18.8873 C.ar    1  UNL1        0.1471
      2 N           3.8857   -0.0730   18.9076 N.ar    1  UNL1       -0.2109
      3 C           3.4741    1.1150   19.7259 C.ar    1  UNL1        0.1686
      4 C           4.7188    1.7971   20.2113 C.ar    1  UNL1        0.1113
      5 N           5.8996    1.0308   19.6930 N.ar    1  UNL1       -0.3363
      6 H           6.8462    1.2482   19.8536 H       1  UNL1        0.1673
      7 N           2.0654    1.5452   20.0090 N.ar    1  UNL1       -0.2565
      8 C           1.3474    2.4431   19.0456 C.ar    1  UNL1        0.0857
      9 C          -0.0614    2.8733   19.3287 C.ar    1  UNL1        0.0340
     10 C          -0.7522    2.4057   20.5753 C.ar    1  UNL1        0.0569
     11 C          -0.0342    1.5078   21.5387 C.ar    1  UNL1        0.0758
     12 C           1.3746    1.0775   21.2556 C.ar    1  UNL1        0.2672
     13 O           2.0925    0.1796   22.2191 O.2     1  UNL1       -0.2665
     14 N          -2.1610    2.8359   20.8584 N.am    1  UNL1       -0.2790
     15 C          -2.4511    3.7333   22.0248 C.2     1  UNL1        0.2678
     16 O          -1.3324    4.2004   22.9081 O.2     1  UNL1       -0.2681
     17 H          -2.8953    2.5293   20.2786 H       1  UNL1        0.1552
     18 C          -3.8600    4.1636   22.3079 C.ar    1  UNL1        0.1419
     19 C          -5.0694    3.2763   22.3092 C.ar    1  UNL1        0.0607
     20 S          -6.2636    4.1210   22.6415 S.2     1  UNL1       -0.0638
     21 C          -5.7921    5.5303   22.8457 C.ar    1  UNL1        0.1347
     22 N          -4.3066    5.5566   22.6395 N.ar    1  UNL1       -0.2317
     23 C           6.9103   -0.0647   17.4146 C.3     1  UNL1        0.0417
     24 C           6.2218   -1.1524   18.1846 C.3     1  UNL1        0.1567
     25 O           7.0589   -2.1797   17.4820 O.3     1  UNL1       -0.3756
     26 H           6.5247   -2.6243   16.8053 H       1  UNL1        0.2112
     27 C           5.5332   -2.2400   18.9547 C.ar    1  UNL1        0.0084
     28 C           4.6571   -3.2257   18.2400 C.ar    1  UNL1       -0.0016
     29 C           3.9686   -4.3133   19.0101 C.ar    1  UNL1       -0.0003
     30 C           4.1562   -4.4152   20.4948 C.ar    1  UNL1        0.0038
     31 C           5.0323   -3.4295   21.2095 C.ar    1  UNL1        0.0712
     32 C           5.7208   -2.3419   20.4394 C.ar    1  UNL1        0.0022
     33 C           5.2198   -3.5314   22.6942 C.3     1  UNL1        0.4186
     34 F           5.4074   -3.6333   24.1790 F       1  UNL1       -0.1659
     35 F           3.9426   -2.7743   22.9076 F       1  UNL1       -0.1659
     36 F           6.4971   -4.2885   22.4809 F       1  UNL1       -0.1659
@<TRIPOS>BOND
     1    23    24    1
     2    24    25    1
     3    24    27    1
     4    27    28   ar
     5    28    29   ar
     6    29    30   ar
     7    30    31   ar
     8    31    33    1
     9    33    34    1
    10    33    35    1
    11    33    36    1
    12    31    32   ar
    13    24     1    1
    14     1     2   ar
    15     2     3   ar
    16     3     7    1
    17     7     8   ar
    18     8     9   ar
    19     9    10   ar
    20    10    14    1
    21    14    15   am
    22    15    16    2
    23    15    18    1
    24    18    19   ar
    25    19    20   ar
    26    20    21   ar
    27    21    22   ar
    28    10    11   ar
    29    11    12   ar
    30    12    13    2
    31     3     4   ar
    32     4     5   ar
    33    32    27   ar
    34     5     1   ar
    35    12     7   ar
    36    22    18   ar
    37    25    26    1
    38    14    17    1
    39     5     6    1
@<TRIPOS>MOLECULE
*****
 36 39 0 0 0
SMALL
GASTEIGER

@<TRIPOS>ATOM
      1 C           4.6507   -2.6461   20.8569 C.ar    1  UNL1        0.1471
      2 N           4.2501   -2.6392   22.3024 N.ar    1  UNL1       -0.2109
      3 C           5.2225   -1.7745   23.0488 C.ar    1  UNL1        0.1686
      4 C           6.2240   -1.2471   22.0645 C.ar    1  UNL1        0.1113
      5 N           5.8707   -1.7857   20.7099 N.ar    1  UNL1       -0.3363
      6 H           6.3545   -1.6061   19.8715 H       1  UNL1        0.1673
      7 N           5.1976   -1.4877   24.5209 N.ar    1  UNL1       -0.2565
      8 C           4.5710   -0.2228   25.0280 C.ar    1  UNL1        0.0857
      9 C           4.5461    0.0640   26.5001 C.ar    1  UNL1        0.0340
     10 C           5.1480   -0.9140   27.4650 C.ar    1  UNL1        0.0569
     11 C           5.7746   -2.1790   26.9579 C.ar    1  UNL1        0.0758
     12 C           5.7995   -2.4658   25.4858 C.ar    1  UNL1        0.2672
     13 O           6.4262   -3.7308   24.9786 O.2     1  UNL1       -0.2665
     14 N           5.1231   -0.6272   28.9371 N.am    1  UNL1       -0.2790
     15 C           3.8236   -0.6590   29.6856 C.2     1  UNL1        0.2678
     16 O           2.5489   -0.9775   28.9620 O.2     1  UNL1       -0.2681
     17 H           5.9597   -0.4181   29.4121 H       1  UNL1        0.1552
     18 C           3.7988   -0.3721   31.1578 C.ar    1  UNL1        0.1419
     19 C           4.4845   -1.1740   32.2240 C.ar    1  UNL1        0.0607
     20 S           4.1934   -0.5304   33.5473 S.2     1  UNL1       -0.0638
     21 C           3.3277    0.6691   33.2989 C.ar    1  UNL1        0.1347
     22 N           3.0838    0.7670   31.8221 N.ar    1  UNL1       -0.2317
     23 C           4.4452   -4.6859   20.3119 C.3     1  UNL1        0.0417
     24 C           3.9538   -3.3839   19.7523 C.3     1  UNL1        0.1567
     25 O           3.2569   -4.1216   18.6478 O.3     1  UNL1       -0.3756
     26 H           3.7648   -4.0292   17.8266 H       1  UNL1        0.2112
     27 C           3.4624   -2.0817   19.1928 C.ar    1  UNL1        0.0084
     28 C           4.0786   -1.5212   17.9454 C.ar    1  UNL1       -0.0016
     29 C           3.5872   -0.2192   17.3859 C.ar    1  UNL1       -0.0003
     30 C           2.4796    0.5224   18.0737 C.ar    1  UNL1        0.0038
     31 C           1.8633   -0.0381   19.3211 C.ar    1  UNL1        0.0712
     32 C           2.3547   -1.3402   19.8806 C.ar    1  UNL1        0.0022
     33 C           0.7556    0.7034   20.0090 C.3     1  UNL1        0.4186
     34 F          -0.3520    1.4450   20.6968 F       1  UNL1       -0.1659
     35 F           1.2859    1.9979   19.4674 F       1  UNL1       -0.1659
     36 F           0.2254   -0.5910   20.5506 F       1  UNL1       -0.1659
@<TRIPOS>BOND
     1    23    24    1
     2    24    25    1
     3    24    27    1
     4    27    28   ar
     5    28    29   ar
     6    29    30   ar
     7    30    31   ar
     8    31    33    1
     9    33    34    1
    10    33    35    1
    11    33    36    1
    12    31    32   ar
    13    24     1    1
    14     1     2   ar
    15     2     3   ar
    16     3     7    1
    17     7     8   ar
    18     8     9   ar
    19     9    10   ar
    20    10    14    1
    21    14    15   am
    22    15    16    2
    23    15    18    1
    24    18    19   ar
    25    19    20   ar
    26    20    21   ar
    27    21    22   ar
    28    10    11   ar
    29    11    12   ar
    30    12    13    2
    31     3     4   ar
    32     4     5   ar
    33    32    27   ar
    34     5     1   ar
    35    12     7   ar
    36    22    18   ar
    37    25    26    1
    38    14    17    1
    39     5     6    1
@<TRIPOS>MOLECULE
*****
 36 39 0 0 0
SMALL
GASTEIGER

@<TRIPOS>ATOM
      1 C           5.4780    0.9037   19.1123 C.ar    1  UNL1        0.1471
      2 N           4.0192    1.2301   19.2360 N.ar    1  UNL1       -0.2109
      3 C           3.7871    1.8054   20.6018 C.ar    1  UNL1        0.1686
      4 C           5.1026    1.8345   21.3222 C.ar    1  UNL1        0.1113
      5 N           6.1476    1.2772   20.4016 N.ar    1  UNL1       -0.3363
      6 H           7.1049    1.1747   20.6075 H       1  UNL1        0.1673
      7 N           2.4708    2.2700   21.1509 N.ar    1  UNL1       -0.2565
      8 C           1.9194    3.6053   20.7477 C.ar    1  UNL1        0.0857
      9 C           0.6030    4.0699   21.2967 C.ar    1  UNL1        0.0340
     10 C          -0.1618    3.1992   22.2489 C.ar    1  UNL1        0.0569
     11 C           0.3897    1.8637   22.6520 C.ar    1  UNL1        0.0758
     12 C           1.7060    1.3992   22.1030 C.ar    1  UNL1        0.2672
     13 O           2.2575    0.0637   22.5062 O.2     1  UNL1       -0.2665
     14 N          -1.4781    3.6638   22.7979 N.am    1  UNL1       -0.2790
     15 C          -2.7321    3.4807   21.9954 C.2     1  UNL1        0.2678
     16 O          -2.6697    2.8332   20.6439 O.2     1  UNL1       -0.2681
     17 H          -1.5191    4.0888   23.6850 H       1  UNL1        0.1552
     18 C          -4.0485    3.9454   22.5444 C.ar    1  UNL1        0.1419
     19 C          -4.2577    5.1102   23.4660 C.ar    1  UNL1        0.0607
     20 S          -5.7252    5.2114   23.7594 S.2     1  UNL1       -0.0638
     21 C          -6.4230    4.1091   23.0192 C.ar    1  UNL1        0.1347
     22 N          -5.3867    3.3266   22.2683 N.ar    1  UNL1       -0.2317
     23 C           6.1795    1.6587   17.2582 C.3     1  UNL1        0.0417
     24 C           6.1494    0.3083   17.9103 C.3     1  UNL1        0.1567
     25 O           6.8208   -0.2871   16.7084 O.3     1  UNL1       -0.3756
     26 H           6.1676   -0.7721   16.1803 H       1  UNL1        0.2112
     27 C           6.1193   -1.0422   18.5626 C.ar    1  UNL1        0.0084
     28 C           7.3305   -1.5535   19.2847 C.ar    1  UNL1       -0.0016
     29 C           7.3004   -2.9039   19.9369 C.ar    1  UNL1       -0.0003
     30 C           6.0590   -3.7430   19.8669 C.ar    1  UNL1        0.0038
     31 C           4.8478   -3.2317   19.1448 C.ar    1  UNL1        0.0712
     32 C           4.8780   -1.8813   18.4926 C.ar    1  UNL1        0.0022
     33 C           3.6065   -4.0709   19.0749 C.3     1  UNL1        0.4186
     34 F           2.3651   -4.9100   19.0050 F       1  UNL1       -0.1659
     35 F           2.8006   -2.9231   19.6070 F       1  UNL1       -0.1659
     36 F           4.4123   -5.2187   18.5428 F       1  UNL1       -0.1659
@<TRIPOS>BOND
     1    23    24    1
     2    24    25    1
     3    24    27    1
     4    27    28   ar
     5    28    29   ar
     6    29    30   ar
     7    30    31   ar
     8    31    33    1
     9    33    34    1
    10    33    35    1
    11    33    36    1
    12    31    32   ar
    13    24     1    1
    14     1     2   ar
    15     2     3   ar
    16     3     7    1
    17     7     8   ar
    18     8     9   ar
    19     9    10   ar
    20    10    14    1
    21    14    15   am
    22    15    16    2
    23    15    18    1
    24    18    19   ar
    25    19    20   ar
    26    20    21   ar
    27    21    22   ar
    28    10    11   ar
    29    11    12   ar
    30    12    13    2
    31     3     4   ar
    32     4     5   ar
    33    32    27   ar
    34     5     1   ar
    35    12     7   ar
    36    22    18   ar
    37    25    26    1
    38    14    17    1
    39     5     6    1
@<TRIPOS>MOLECULE
*****
 36 39 0 0 0
SMALL
GASTEIGER

@<TRIPOS>ATOM
      1 C           5.5196   -1.2036   19.6550 C.ar    1  UNL1        0.1471
      2 N           5.6528   -2.1201   20.8349 N.ar    1  UNL1       -0.2109
      3 C           6.3850   -1.3811   21.9156 C.ar    1  UNL1        0.1686
      4 C           6.7044   -0.0078   21.4035 C.ar    1  UNL1        0.1113
      5 N           6.1696    0.1019   20.0064 N.ar    1  UNL1       -0.3363
      6 H           6.2339    0.8920   19.4226 H       1  UNL1        0.1673
      7 N           6.7362   -1.9206   23.2704 N.ar    1  UNL1       -0.2565
      8 C           8.1010   -2.4907   23.5200 C.ar    1  UNL1        0.0857
      9 C           8.4521   -3.0302   24.8748 C.ar    1  UNL1        0.0340
     10 C           7.4386   -2.9997   25.9801 C.ar    1  UNL1        0.0569
     11 C           6.0737   -2.4296   25.7305 C.ar    1  UNL1        0.0758
     12 C           5.7226   -1.8900   24.3757 C.ar    1  UNL1        0.2672
     13 O           4.3577   -1.3200   24.1261 O.2     1  UNL1       -0.2665
     14 N           7.7897   -3.5392   27.3349 N.am    1  UNL1       -0.2790
     15 C           7.3525   -4.9188   27.7292 C.2     1  UNL1        0.2678
     16 O           6.5641   -5.7588   26.7687 O.2     1  UNL1       -0.2681
     17 H           8.3072   -2.9878   27.9653 H       1  UNL1        0.1552
     18 C           7.7037   -5.4583   29.0842 C.ar    1  UNL1        0.1419
     19 C           6.8308   -5.4165   30.3032 C.ar    1  UNL1        0.0607
     20 S           7.5771   -6.0667   31.4302 S.2     1  UNL1       -0.0638
     21 C           8.9113   -6.5103   30.9077 C.ar    1  UNL1        0.1347
     22 N           8.9896   -6.1343   29.4577 N.ar    1  UNL1       -0.2317
     23 C           6.1107   -2.2015   17.8789 C.3     1  UNL1        0.0417
     24 C           4.8535   -1.5344   18.3524 C.3     1  UNL1        0.1567
     25 O           4.1874   -1.8652   17.0498 O.3     1  UNL1       -0.3756
     26 H           4.1403   -1.0681   16.4991 H       1  UNL1        0.2112
     27 C           3.5962   -0.8672   18.8260 C.ar    1  UNL1        0.0084
     28 C           2.6991   -1.5659   19.8042 C.ar    1  UNL1       -0.0016
     29 C           1.4419   -0.8988   20.2778 C.ar    1  UNL1       -0.0003
     30 C           1.0818    0.4671   19.7730 C.ar    1  UNL1        0.0038
     31 C           1.9788    1.1658   18.7947 C.ar    1  UNL1        0.0712
     32 C           3.2361    0.4986   18.3212 C.ar    1  UNL1        0.0022
     33 C           1.6187    2.5316   18.2900 C.3     1  UNL1        0.4186
     34 F           1.2585    3.8974   17.7852 F       1  UNL1       -0.1659
     35 F           3.0148    3.0032   18.5700 F       1  UNL1       -0.1659
     36 F           0.2226    2.0600   18.0099 F       1  UNL1       -0.1659
@<TRIPOS>BOND
     1    23    24    1
     2    24    25    1
     3    24    27    1
     4    27    28   ar
     5    28    29   ar
     6    29    30   ar
     7    30    31   ar
     8    31    33    1
     9    33    34    1
    10    33    35    1
    11    33    36    1
    12    31    32   ar
    13    24     1    1
    14     1     2   ar
    15     2     3   ar
    16     3     7    1
    17     7     8   ar
    18     8     9   ar
    19     9    10   ar
    20    10    14    1
    21    14    15   am
    22    15    16    2
    23    15    18    1
    24    18    19   ar
    25    19    20   ar
    26    20    21   ar
    27    21    22   ar
    28    10    11   ar
    29    11    12   ar
    30    12    13    2
    31     3     4   ar
    32     4     5   ar
    33    32    27   ar
    34     5     1   ar
    35    12     7   ar
    36    22    18   ar
    37    25    26    1
    38    14    17    1
    39     5     6    1
@<TRIPOS>MOLECULE
*****
 36 39 0 0 0
SMALL
GASTEIGER

@<TRIPOS>ATOM
      1 C           7.0387   -3.7876   29.8197 C.ar    1  UNL1        0.1471
      2 N           6.1272   -3.8587   28.6305 N.ar    1  UNL1       -0.2109
      3 C           6.7019   -2.9872   27.5532 C.ar    1  UNL1        0.1686
      4 C           7.9686   -2.3776   28.0766 C.ar    1  UNL1        0.1113
      5 N           8.1767   -2.8722   29.4773 N.ar    1  UNL1       -0.3363
      6 H           8.9283   -2.6374   30.0683 H       1  UNL1        0.1673
      7 N           6.1132   -2.7645   26.1916 N.ar    1  UNL1       -0.2565
      8 C           5.1332   -1.6507   25.9713 C.ar    1  UNL1        0.0857
      9 C           4.5445   -1.4280   24.6097 C.ar    1  UNL1        0.0340
     10 C           4.9359   -2.3192   23.4685 C.ar    1  UNL1        0.0569
     11 C           5.9160   -3.4331   23.6889 C.ar    1  UNL1        0.0758
     12 C           6.5047   -3.6558   25.0504 C.ar    1  UNL1        0.2672
     13 O           7.4848   -4.7698   25.2708 O.2     1  UNL1       -0.2665
     14 N           4.3473   -2.0965   22.1070 N.am    1  UNL1       -0.2790
     15 C           4.9703   -1.1005   21.1742 C.2     1  UNL1        0.2678
     16 O           6.1819   -0.3273   21.6031 O.2     1  UNL1       -0.2681
     17 H           3.5520   -2.6040   21.8255 H       1  UNL1        0.1552
     18 C           4.3816   -0.8778   19.8126 C.ar    1  UNL1        0.1419
     19 C           4.8019   -1.5649   18.5472 C.ar    1  UNL1        0.0607
     20 S           3.9493   -1.0407   17.4300 S.2     1  UNL1       -0.0638
     21 C           3.0021   -0.0297   18.0049 C.ar    1  UNL1        0.1347
     22 N           3.2692    0.0710   19.4775 N.ar    1  UNL1       -0.2317
     23 C           6.9498   -5.8226   30.4118 C.3     1  UNL1        0.0417
     24 C           6.8461   -4.5057   31.1224 C.3     1  UNL1        0.1567
     25 O           6.6534   -5.2239   32.4251 O.3     1  UNL1       -0.3756
     26 H           5.7185   -5.1847   32.6808 H       1  UNL1        0.2112
     27 C           6.7423   -3.1888   31.8330 C.ar    1  UNL1        0.0084
     28 C           7.9429   -2.6124   32.5232 C.ar    1  UNL1       -0.0016
     29 C           7.8391   -1.2955   33.2338 C.ar    1  UNL1       -0.0003
     30 C           6.5348   -0.5549   33.2541 C.ar    1  UNL1        0.0038
     31 C           5.3343   -1.1313   32.5639 C.ar    1  UNL1        0.0712
     32 C           5.4380   -2.4482   31.8534 C.ar    1  UNL1        0.0022
     33 C           4.0299   -0.3908   32.5843 C.3     1  UNL1        0.4186
     34 F           2.7256    0.3497   32.6046 F       1  UNL1       -0.1659
     35 F           3.4117   -1.4562   31.7282 F       1  UNL1       -0.1659
     36 F           4.6482    0.6746   33.4403 F       1  UNL1       -0.1659
@<TRIPOS>BOND
     1    23    24    1
     2    24    25    1
     3    24    27    1
     4    27    28   ar
     5    28    29   ar
     6    29    30   ar
     7    30    31   ar
     8    31    33    1
     9    33    34    1
    10    33    35    1
    11    33    36    1
    12    31    32   ar
    13    24     1    1
    14     1     2   ar
    15     2     3   ar
    16     3     7    1
    17     7     8   ar
    18     8     9   ar
    19     9    10   ar
    20    10    14    1
    21    14    15   am
    22    15    16    2
    23    15    18    1
    24    18    19   ar
    25    19    20   ar
    26    20    21   ar
    27    21    22   ar
    28    10    11   ar
    29    11    12   ar
    30    12    13    2
    31     3     4   ar
    32     4     5   ar
    33    32    27   ar
    34     5     1   ar
    35    12     7   ar
    36    22    18   ar
    37    25    26    1
    38    14    17    1
    39     5     6    1
@<TRIPOS>MOLECULE
*****
 36 39 0 0 0
SMALL
GASTEIGER

@<TRIPOS>ATOM
      1 C           5.5599   -1.4068   19.4539 C.ar    1  UNL1        0.1471
      2 N           5.3286   -2.3210   20.6204 N.ar    1  UNL1       -0.2109
      3 C           6.1688   -1.8349   21.7641 C.ar    1  UNL1        0.1686
      4 C           6.9194   -0.6202   21.3043 C.ar    1  UNL1        0.1113
      5 N           6.5431   -0.3557   19.8766 N.ar    1  UNL1       -0.3363
      6 H           6.8819    0.3789   19.3155 H       1  UNL1        0.1673
      7 N           6.2450   -2.4545   23.1280 N.ar    1  UNL1       -0.2565
      8 C           5.8781   -1.6494   24.3391 C.ar    1  UNL1        0.0857
      9 C           5.9543   -2.2691   25.7030 C.ar    1  UNL1        0.0340
     10 C           6.3974   -3.6939   25.8557 C.ar    1  UNL1        0.0569
     11 C           6.7643   -4.4991   24.6445 C.ar    1  UNL1        0.0758
     12 C           6.6881   -3.8794   23.2806 C.ar    1  UNL1        0.2672
     13 O           7.0550   -4.6846   22.0694 O.2     1  UNL1       -0.2665
     14 N           6.4736   -4.3136   27.2196 N.am    1  UNL1       -0.2790
     15 C           7.8045   -4.4974   27.8866 C.2     1  UNL1        0.2678
     16 O           9.0592   -4.0615   27.1897 O.2     1  UNL1       -0.2681
     17 H           5.6501   -4.5997   27.6770 H       1  UNL1        0.1552
     18 C           7.8807   -5.1171   29.2505 C.ar    1  UNL1        0.1419
     19 C           9.1080   -5.6984   29.8875 C.ar    1  UNL1        0.0607
     20 S           8.7287   -6.2049   31.2475 S.2     1  UNL1       -0.0638
     21 C           7.2670   -5.9366   31.4510 C.ar    1  UNL1        0.1347
     22 N           6.7429   -5.2643   30.2168 N.ar    1  UNL1       -0.2317
     23 C           5.6874   -2.7870   17.8481 C.3     1  UNL1        0.0417
     24 C           4.9204   -1.5233   18.1021 C.3     1  UNL1        0.1567
     25 O           4.2809   -1.6397   16.7503 O.3     1  UNL1       -0.3756
     26 H           4.6928   -1.0062   16.1421 H       1  UNL1        0.2112
     27 C           4.1534   -0.2594   18.3561 C.ar    1  UNL1        0.0084
     28 C           4.7441    1.0658   17.9754 C.ar    1  UNL1       -0.0016
     29 C           3.9771    2.3295   18.2294 C.ar    1  UNL1       -0.0003
     30 C           2.6194    2.2681   18.8642 C.ar    1  UNL1        0.0038
     31 C           2.0287    0.9430   19.2449 C.ar    1  UNL1        0.0712
     32 C           2.7957   -0.3208   18.9909 C.ar    1  UNL1        0.0022
     33 C           0.6710    0.8816   19.8796 C.3     1  UNL1        0.4186
     34 F          -0.6867    0.8202   20.5143 F       1  UNL1       -0.1659
     35 F           1.0256   -0.4320   20.5111 F       1  UNL1       -0.1659
     36 F           0.3164    2.1951   19.2481 F       1  UNL1       -0.1659
@<TRIPOS>BOND
     1    23    24    1
     2    24    25    1
     3    24    27    1
     4    27    28   ar
     5    28    29   ar
     6    29    30   ar
     7    30    31   ar
     8    31    33    1
     9    33    34    1
    10    33    35    1
    11    33    36    1
    12    31    32   ar
    13    24     1    1
    14     1     2   ar
    15     2     3   ar
    16     3     7    1
    17     7     8   ar
    18     8     9   ar
    19     9    10   ar
    20    10    14    1
    21    14    15   am
    22    15    16    2
    23    15    18    1
    24    18    19   ar
    25    19    20   ar
    26    20    21   ar
    27    21    22   ar
    28    10    11   ar
    29    11    12   ar
    30    12    13    2
    31     3     4   ar
    32     4     5   ar
    33    32    27   ar
    34     5     1   ar
    35    12     7   ar
    36    22    18   ar
    37    25    26    1
    38    14    17    1
    39     5     6    1
