@<TRIPOS>MOLECULE
*****
 21 21 0 0 0
SMALL
GASTEIGER

@<TRIPOS>ATOM
      1 C         -10.2468  -19.7053   22.1218 C.ar    1  UNL1        0.1382
      2 C         -11.0316  -19.7118   20.8435 C.ar    1  UNL1        0.0369
      3 C         -10.3252  -19.5600   19.5290 C.ar    1  UNL1        0.0028
      4 C          -8.8340  -19.4017   19.4927 C.ar    1  UNL1       -0.0040
      5 C          -8.0493  -19.3952   20.7710 C.ar    1  UNL1       -0.0178
      6 C          -8.7556  -19.5470   22.0855 C.ar    1  UNL1        0.0327
      7 O         -10.9532  -19.8571   23.4363 O.3     1  UNL1       -0.4755
      8 C         -11.5363  -18.6547   24.1176 C.3     1  UNL1        0.2054
      9 C         -12.8092  -18.0471   23.6071 C.3     1  UNL1        0.0473
     10 C         -11.4439  -16.2355   22.3404 C.3     1  UNL1        0.0001
     11 C         -12.7584  -16.8814   22.6643 C.3     1  UNL1        0.0038
     12 C          -6.5580  -19.2369   20.7348 C.3     1  UNL1        0.0435
     13 C          -5.7683  -19.2776   22.0094 C.3     1  UNL1        0.0737
     14 N          -4.8338  -18.1544   22.3489 N.3     1  UNL1       -0.2895
     15 H          -5.2667  -17.6310   23.1099 H       1  UNL1        0.1237
     16 C          -3.4265  -18.4521   22.7739 C.3     1  UNL1        0.1552
     17 C          -2.3786  -18.7490   21.7425 C.2     1  UNL1        0.2419
     18 O          -2.0970  -20.1681   21.3464 O.2     1  UNL1       -0.2734
     19 N          -1.6122  -17.6268   21.1073 N.am    1  UNL1       -0.2749
     20 C          -0.5643  -17.9238   20.0760 C.3     1  UNL1        0.1149
     21 C          -1.8938  -16.2078   21.5035 C.3     1  UNL1        0.1149
@<TRIPOS>BOND
     1    10    11    1
     2    11     9    1
     3     9     8    1
     4     8     7    1
     5     7     1    1
     6     1     2   ar
     7     2     3   ar
     8     3     4   ar
     9     4     5   ar
    10     5    12    1
    11    12    13    1
    12    13    14    1
    13    14    16    1
    14    16    17    1
    15    17    18    2
    16    17    19   am
    17    19    20    1
    18    19    21    1
    19     5     6   ar
    20     6     1   ar
    21    14    15    1
@<TRIPOS>MOLECULE
*****
 21 21 0 0 0
SMALL
GASTEIGER

@<TRIPOS>ATOM
      1 C         -10.3116  -17.7194   23.3900 C.ar    1  UNL1        0.1382
      2 C         -11.0068  -18.5976   24.3878 C.ar    1  UNL1        0.0369
      3 C         -10.4919  -19.9805   24.6569 C.ar    1  UNL1        0.0028
      4 C          -9.2819  -20.4853   23.9282 C.ar    1  UNL1       -0.0040
      5 C          -8.5868  -19.6071   22.9304 C.ar    1  UNL1       -0.0178
      6 C          -9.1016  -18.2242   22.6613 C.ar    1  UNL1        0.0327
      7 O         -10.8265  -16.3365   23.1209 O.3     1  UNL1       -0.4755
      8 C         -12.1640  -16.1479   22.4686 C.3     1  UNL1        0.2054
      9 C         -12.5102  -16.9205   21.2304 C.3     1  UNL1        0.0473
     10 C         -11.4956  -15.6313   19.2157 C.3     1  UNL1        0.0001
     11 C         -11.5969  -16.8797   20.0410 C.3     1  UNL1        0.0038
     12 C          -7.3767  -20.1119   22.2017 C.3     1  UNL1        0.0435
     13 C          -6.4271  -19.1422   21.5630 C.3     1  UNL1        0.0737
     14 N          -4.9467  -19.3468   21.6919 N.3     1  UNL1       -0.2895
     15 H          -4.8134  -20.2241   22.1947 H       1  UNL1        0.1237
     16 C          -4.0895  -19.4174   20.4630 C.3     1  UNL1        0.1552
     17 C          -2.5997  -19.2872   20.5793 C.2     1  UNL1        0.2419
     18 O          -1.8406  -20.1746   21.5208 O.2     1  UNL1       -0.2734
     19 N          -1.8690  -18.2698   19.7542 N.am    1  UNL1       -0.2749
     20 C          -0.3792  -18.1397   19.8705 C.3     1  UNL1        0.1149
     21 C          -2.6281  -17.3825   18.8127 C.3     1  UNL1        0.1149
@<TRIPOS>BOND
     1    10    11    1
     2    11     9    1
     3     9     8    1
     4     8     7    1
     5     7     1    1
     6     1     2   ar
     7     2     3   ar
     8     3     4   ar
     9     4     5   ar
    10     5    12    1
    11    12    13    1
    12    13    14    1
    13    14    16    1
    14    16    17    1
    15    17    18    2
    16    17    19   am
    17    19    20    1
    18    19    21    1
    19     5     6   ar
    20     6     1   ar
    21    14    15    1
@<TRIPOS>MOLECULE
*****
 21 21 0 0 0
SMALL
GASTEIGER

@<TRIPOS>ATOM
      1 C         -10.5576  -17.2327   21.0356 C.ar    1  UNL1        0.1382
      2 C         -11.0731  -17.9627   19.8309 C.ar    1  UNL1        0.0369
      3 C         -10.3498  -19.1741   19.3216 C.ar    1  UNL1        0.0028
      4 C          -9.1110  -19.6554   20.0170 C.ar    1  UNL1       -0.0040
      5 C          -8.5955  -18.9254   21.2217 C.ar    1  UNL1       -0.0178
      6 C          -9.3188  -17.7141   21.7310 C.ar    1  UNL1        0.0327
      7 O         -11.2809  -16.0213   21.5450 O.3     1  UNL1       -0.4755
      8 C         -12.3944  -16.1751   22.5382 C.3     1  UNL1        0.2054
      9 C         -12.9363  -17.5380   22.8524 C.3     1  UNL1        0.0473
     10 C         -11.3958  -19.1716   24.1595 C.3     1  UNL1        0.0001
     11 C         -12.5548  -18.2199   24.1329 C.3     1  UNL1        0.0038
     12 C          -7.3566  -19.4068   21.9171 C.3     1  UNL1        0.0435
     13 C          -6.2689  -20.0784   21.1324 C.3     1  UNL1        0.0737
     14 N          -4.8344  -19.7124   21.3739 N.3     1  UNL1       -0.2895
     15 H          -4.4344  -20.4533   21.9497 H       1  UNL1        0.1237
     16 C          -3.9047  -19.5165   20.2132 C.3     1  UNL1        0.1552
     17 C          -2.4385  -19.3106   20.4532 C.2     1  UNL1        0.2419
     18 O          -1.7166  -20.1584   21.4582 O.2     1  UNL1       -0.2734
     19 N          -1.6940  -18.2567   19.6881 N.am    1  UNL1       -0.2749
     20 C          -0.2278  -18.0508   19.9281 C.3     1  UNL1        0.1149
     21 C          -2.4159  -17.4089   18.6831 C.3     1  UNL1        0.1149
@<TRIPOS>BOND
     1    10    11    1
     2    11     9    1
     3     9     8    1
     4     8     7    1
     5     7     1    1
     6     1     2   ar
     7     2     3   ar
     8     3     4   ar
     9     4     5   ar
    10     5    12    1
    11    12    13    1
    12    13    14    1
    13    14    16    1
    14    16    17    1
    15    17    18    2
    16    17    19   am
    17    19    20    1
    18    19    21    1
    19     5     6   ar
    20     6     1   ar
    21    14    15    1
@<TRIPOS>MOLECULE
*****
 21 21 0 0 0
SMALL
GASTEIGER

@<TRIPOS>ATOM
      1 C          -4.0418  -18.3466   22.7723 C.ar    1  UNL1        0.1382
      2 C          -2.7208  -18.8646   22.2859 C.ar    1  UNL1        0.0369
      3 C          -2.6666  -19.7936   21.1094 C.ar    1  UNL1        0.0028
      4 C          -3.9335  -20.2045   20.4193 C.ar    1  UNL1       -0.0040
      5 C          -5.2544  -19.6865   20.9058 C.ar    1  UNL1       -0.0178
      6 C          -5.3086  -18.7576   22.0822 C.ar    1  UNL1        0.0327
      7 O          -4.0960  -17.4177   23.9488 O.3     1  UNL1       -0.4755
      8 C          -4.7359  -16.0682   23.8100 C.3     1  UNL1        0.2054
      9 C          -5.8685  -15.6787   24.7130 C.3     1  UNL1        0.0473
     10 C          -6.6843  -15.5388   27.1758 C.3     1  UNL1        0.0001
     11 C          -5.6022  -15.3551   26.1533 C.3     1  UNL1        0.0038
     12 C          -6.5213  -20.0975   20.2157 C.3     1  UNL1        0.0435
     13 C          -7.8284  -19.4812   20.6178 C.3     1  UNL1        0.0737
     14 N          -8.7750  -18.9785   19.5684 N.3     1  UNL1       -0.2895
     15 H          -8.4316  -19.3240   18.6722 H       1  UNL1        0.1237
     16 C         -10.2308  -19.3328   19.6399 C.3     1  UNL1        0.1552
     17 C         -11.1845  -18.4403   20.3774 C.2     1  UNL1        0.2419
     18 O         -11.7913  -17.2560   19.6851 O.2     1  UNL1       -0.2734
     19 N         -11.5314  -18.7321   21.8073 N.am    1  UNL1       -0.2749
     20 C         -12.4851  -17.8396   22.5448 C.3     1  UNL1        0.1149
     21 C         -10.9246  -19.9163   22.4996 C.3     1  UNL1        0.1149
@<TRIPOS>BOND
     1    10    11    1
     2    11     9    1
     3     9     8    1
     4     8     7    1
     5     7     1    1
     6     1     2   ar
     7     2     3   ar
     8     3     4   ar
     9     4     5   ar
    10     5    12    1
    11    12    13    1
    12    13    14    1
    13    14    16    1
    14    16    17    1
    15    17    18    2
    16    17    19   am
    17    19    20    1
    18    19    21    1
    19     5     6   ar
    20     6     1   ar
    21    14    15    1
@<TRIPOS>MOLECULE
*****
 21 21 0 0 0
SMALL
GASTEIGER

@<TRIPOS>ATOM
      1 C          -5.5169  -16.0135   24.2054 C.ar    1  UNL1        0.1382
      2 C          -5.2486  -15.5290   25.5994 C.ar    1  UNL1        0.0369
      3 C          -6.3884  -15.3100   26.5497 C.ar    1  UNL1        0.0028
      4 C          -7.7964  -15.5755   26.1060 C.ar    1  UNL1       -0.0040
      5 C          -8.0647  -16.0601   24.7121 C.ar    1  UNL1       -0.0178
      6 C          -6.9250  -16.2790   23.7618 C.ar    1  UNL1        0.0327
      7 O          -4.3772  -16.2324   23.2551 O.3     1  UNL1       -0.4755
      8 C          -3.6542  -17.5466   23.2412 C.3     1  UNL1        0.2054
      9 C          -4.3419  -18.7755   22.7246 C.3     1  UNL1        0.0473
     10 C          -2.2641  -19.3640   21.2801 C.3     1  UNL1        0.0001
     11 C          -3.7003  -19.5963   21.6453 C.3     1  UNL1        0.0038
     12 C          -9.4728  -16.3256   24.2683 C.3     1  UNL1        0.0435
     13 C         -10.0018  -17.7291   24.2517 C.3     1  UNL1        0.0737
     14 N          -9.7235  -18.6217   23.0786 N.3     1  UNL1       -0.2895
     15 H          -9.5272  -19.5494   23.4546 H       1  UNL1        0.1237
     16 C         -10.7593  -18.7985   22.0083 C.3     1  UNL1        0.1552
     17 C         -10.7274  -17.9330   20.7835 C.2     1  UNL1        0.2419
     18 O          -9.8947  -18.3351   19.6025 O.2     1  UNL1       -0.2734
     19 N         -11.5283  -16.6654   20.7398 N.am    1  UNL1       -0.2749
     20 C         -11.4964  -15.8000   19.5151 C.3     1  UNL1        0.1149
     21 C         -12.3611  -16.2633   21.9208 C.3     1  UNL1        0.1149
@<TRIPOS>BOND
     1    10    11    1
     2    11     9    1
     3     9     8    1
     4     8     7    1
     5     7     1    1
     6     1     2   ar
     7     2     3   ar
     8     3     4   ar
     9     4     5   ar
    10     5    12    1
    11    12    13    1
    12    13    14    1
    13    14    16    1
    14    16    17    1
    15    17    18    2
    16    17    19   am
    17    19    20    1
    18    19    21    1
    19     5     6   ar
    20     6     1   ar
    21    14    15    1
@<TRIPOS>MOLECULE
*****
 21 21 0 0 0
SMALL
GASTEIGER

@<TRIPOS>ATOM
      1 C          -3.5411  -19.2372   21.8178 C.ar    1  UNL1        0.1382
      2 C          -3.2082  -20.1252   20.6556 C.ar    1  UNL1        0.0369
      3 C          -4.3002  -20.8604   19.9366 C.ar    1  UNL1        0.0028
      4 C          -5.7251  -20.7076   20.3798 C.ar    1  UNL1       -0.0040
      5 C          -6.0579  -19.8196   21.5419 C.ar    1  UNL1       -0.0178
      6 C          -4.9659  -19.0844   22.2609 C.ar    1  UNL1        0.0327
      7 O          -2.4491  -18.5020   22.5368 O.3     1  UNL1       -0.4755
      8 C          -2.4182  -17.0024   22.5213 C.3     1  UNL1        0.2054
      9 C          -1.7228  -16.2780   21.4070 C.3     1  UNL1        0.0473
     10 C           0.0464  -17.6274   20.0656 C.3     1  UNL1        0.0001
     11 C          -1.3211  -17.0192   20.1663 C.3     1  UNL1        0.0038
     12 C          -7.4828  -19.6668   21.9851 C.3     1  UNL1        0.0435
     13 C          -8.3708  -18.6569   21.3206 C.3     1  UNL1        0.0737
     14 N          -9.1041  -19.0157   20.0622 N.3     1  UNL1       -0.2895
     15 H          -8.7156  -19.9010   19.7372 H       1  UNL1        0.1237
     16 C         -10.5950  -19.1791   20.0837 C.3     1  UNL1        0.1552
     17 C         -11.4571  -18.1172   20.6994 C.2     1  UNL1        0.2419
     18 O         -11.9392  -16.9663   19.8669 O.2     1  UNL1       -0.2734
     19 N         -11.8371  -18.2061   22.1478 N.am    1  UNL1       -0.2749
     20 C         -12.6991  -17.1442   22.7636 C.3     1  UNL1        0.1149
     21 C         -11.3550  -19.3569   22.9804 C.3     1  UNL1        0.1149
@<TRIPOS>BOND
     1    10    11    1
     2    11     9    1
     3     9     8    1
     4     8     7    1
     5     7     1    1
     6     1     2   ar
     7     2     3   ar
     8     3     4   ar
     9     4     5   ar
    10     5    12    1
    11    12    13    1
    12    13    14    1
    13    14    16    1
    14    16    17    1
    15    17    18    2
    16    17    19   am
    17    19    20    1
    18    19    21    1
    19     5     6   ar
    20     6     1   ar
    21    14    15    1
@<TRIPOS>MOLECULE
*****
 21 21 0 0 0
SMALL
GASTEIGER

@<TRIPOS>ATOM
      1 C          -9.4708  -18.0821   21.5447 C.ar    1  UNL1        0.1382
      2 C         -10.2437  -18.3954   20.2980 C.ar    1  UNL1        0.0369
      3 C          -9.6665  -19.3239   19.2710 C.ar    1  UNL1        0.0028
      4 C          -8.3162  -19.9391   19.4908 C.ar    1  UNL1       -0.0040
      5 C          -7.5433  -19.6259   20.7375 C.ar    1  UNL1       -0.0178
      6 C          -8.1206  -18.6973   21.7645 C.ar    1  UNL1        0.0327
      7 O         -10.0480  -17.1536   22.5717 O.3     1  UNL1       -0.4755
      8 C         -11.2493  -16.3196   22.2379 C.3     1  UNL1        0.2054
      9 C         -12.6239  -16.8147   22.5773 C.3     1  UNL1        0.0473
     10 C         -14.0705  -18.1364   24.2834 C.3     1  UNL1        0.0001
     11 C         -12.7934  -17.9745   23.5134 C.3     1  UNL1        0.0038
     12 C          -6.1930  -20.2411   20.9573 C.3     1  UNL1        0.0435
     13 C          -5.0123  -19.7608   20.1668 C.3     1  UNL1        0.0737
     14 N          -3.6884  -20.4535   20.3000 N.3     1  UNL1       -0.2895
     15 H          -3.2317  -20.3934   19.3900 H       1  UNL1        0.1237
     16 C          -2.6926  -19.9789   21.3164 C.3     1  UNL1        0.1552
     17 C          -2.0448  -18.6350   21.1610 C.2     1  UNL1        0.2419
     18 O          -0.8889  -18.4638   20.2204 O.2     1  UNL1       -0.2734
     19 N          -2.5529  -17.4621   21.9461 N.am    1  UNL1       -0.2749
     20 C          -1.9051  -16.1182   21.7907 C.3     1  UNL1        0.1149
     21 C          -3.7088  -17.6333   22.8866 C.3     1  UNL1        0.1149
@<TRIPOS>BOND
     1    10    11    1
     2    11     9    1
     3     9     8    1
     4     8     7    1
     5     7     1    1
     6     1     2   ar
     7     2     3   ar
     8     3     4   ar
     9     4     5   ar
    10     5    12    1
    11    12    13    1
    12    13    14    1
    13    14    16    1
    14    16    17    1
    15    17    18    2
    16    17    19   am
    17    19    20    1
    18    19    21    1
    19     5     6   ar
    20     6     1   ar
    21    14    15    1
@<TRIPOS>MOLECULE
*****
 21 21 0 0 0
SMALL
GASTEIGER

@<TRIPOS>ATOM
      1 C          -8.4119  -15.8569   24.9452 C.ar    1  UNL1        0.1382
      2 C          -8.2933  -15.5275   26.4037 C.ar    1  UNL1        0.0369
      3 C          -6.9391  -15.3718   27.0298 C.ar    1  UNL1        0.0028
      4 C          -5.7035  -15.5456   26.1973 C.ar    1  UNL1       -0.0040
      5 C          -5.8221  -15.8750   24.7387 C.ar    1  UNL1       -0.0178
      6 C          -7.1763  -16.0307   24.1127 C.ar    1  UNL1        0.0327
      7 O          -9.7661  -16.0125   24.3191 O.3     1  UNL1       -0.4755
      8 C         -10.2030  -17.3501   23.7997 C.3     1  UNL1        0.2054
      9 C         -10.1563  -18.5536   24.6937 C.3     1  UNL1        0.0473
     10 C         -10.6951  -20.0849   22.6652 C.3     1  UNL1        0.0001
     11 C         -10.3575  -19.9240   24.1178 C.3     1  UNL1        0.0038
     12 C          -4.5865  -16.0488   23.9062 C.3     1  UNL1        0.0435
     13 C          -4.2934  -17.3735   23.2665 C.3     1  UNL1        0.0737
     14 N          -2.8739  -17.7837   23.0077 N.3     1  UNL1       -0.2895
     15 H          -2.5226  -18.1915   23.8741 H       1  UNL1        0.1237
     16 C          -2.5632  -18.7603   21.9124 C.3     1  UNL1        0.1552
     17 C          -2.8531  -18.4032   20.4847 C.2     1  UNL1        0.2419
     18 O          -4.2519  -18.5108   19.9538 O.2     1  UNL1       -0.2734
     19 N          -1.7442  -17.9383   19.5878 N.am    1  UNL1       -0.2749
     20 C          -2.0342  -17.5812   18.1601 C.3     1  UNL1        0.1149
     21 C          -0.3455  -17.8307   20.1187 C.3     1  UNL1        0.1149
@<TRIPOS>BOND
     1    10    11    1
     2    11     9    1
     3     9     8    1
     4     8     7    1
     5     7     1    1
     6     1     2   ar
     7     2     3   ar
     8     3     4   ar
     9     4     5   ar
    10     5    12    1
    11    12    13    1
    12    13    14    1
    13    14    16    1
    14    16    17    1
    15    17    18    2
    16    17    19   am
    17    19    20    1
    18    19    21    1
    19     5     6   ar
    20     6     1   ar
    21    14    15    1
@<TRIPOS>MOLECULE
*****
 21 21 0 0 0
SMALL
GASTEIGER

@<TRIPOS>ATOM
      1 C          -6.0957  -19.9378   21.5481 C.ar    1  UNL1        0.1382
      2 C          -5.6057  -20.7018   20.3539 C.ar    1  UNL1        0.0369
      3 C          -4.1633  -20.6189   19.9507 C.ar    1  UNL1        0.0028
      4 C          -3.2108  -19.7721   20.7417 C.ar    1  UNL1       -0.0040
      5 C          -3.7008  -19.0082   21.9359 C.ar    1  UNL1       -0.0178
      6 C          -5.1432  -19.0910   22.3391 C.ar    1  UNL1        0.0327
      7 O          -7.5381  -20.0207   21.9513 O.3     1  UNL1       -0.4755
      8 C          -8.5564  -19.1496   21.2775 C.3     1  UNL1        0.2054
      9 C          -9.0160  -19.4716   19.8864 C.3     1  UNL1        0.0473
     10 C         -11.1410  -17.9941   20.1140 C.3     1  UNL1        0.0001
     11 C         -10.4137  -19.1319   19.4608 C.3     1  UNL1        0.0038
     12 C          -2.7484  -18.1613   22.7270 C.3     1  UNL1        0.0435
     13 C          -2.6647  -16.6860   22.4691 C.3     1  UNL1        0.0737
     14 N          -3.8505  -15.8085   22.7416 N.3     1  UNL1       -0.2895
     15 H          -4.4995  -15.9413   21.9660 H       1  UNL1        0.1237
     16 C          -4.6414  -15.9871   24.0035 C.3     1  UNL1        0.1552
     17 C          -6.1347  -15.8482   23.9786 C.2     1  UNL1        0.2419
     18 O          -6.8825  -16.0188   22.6895 O.2     1  UNL1       -0.2734
     19 N          -6.8804  -15.5386   25.2429 N.am    1  UNL1       -0.2749
     20 C          -8.3737  -15.3996   25.2180 C.3     1  UNL1        0.1149
     21 C          -6.1326  -15.3679   26.5320 C.3     1  UNL1        0.1149
@<TRIPOS>BOND
     1    10    11    1
     2    11     9    1
     3     9     8    1
     4     8     7    1
     5     7     1    1
     6     1     2   ar
     7     2     3   ar
     8     3     4   ar
     9     4     5   ar
    10     5    12    1
    11    12    13    1
    12    13    14    1
    13    14    16    1
    14    16    17    1
    15    17    18    2
    16    17    19   am
    17    19    20    1
    18    19    21    1
    19     5     6   ar
    20     6     1   ar
    21    14    15    1
