@<TRIPOS>MOLECULE
*****
 14 15 0 0 0
SMALL
GASTEIGER

@<TRIPOS>ATOM
      1 C         -10.9920  -18.7681   22.6292 C.ar    1  UNL1        0.0258
      2 C         -11.4729  -19.2464   21.2913 C.ar    1  UNL1        0.0077
      3 C         -10.4959  -19.4468   20.1709 C.ar    1  UNL1        0.0202
      4 C          -9.0381  -19.1690   20.3884 C.ar    1  UNL1        0.0893
      5 N          -7.8497  -19.2743   19.4792 N.ar    1  UNL1       -0.2245
      6 C          -6.6343  -18.8611   20.2552 C.ar    1  UNL1        0.1567
      7 N          -5.2284  -18.8164   19.7338 N.pl3   1  UNL1       -0.3375
      8 S          -7.0715  -18.5004   21.6440 S.2     1  UNL1       -0.0520
      9 C          -8.5572  -18.6907   21.7263 C.ar    1  UNL1        0.0502
     10 C          -9.5342  -18.4903   22.8467 C.ar    1  UNL1        0.0142
     11 H          -5.0405  -19.0736   18.8023 H       1  UNL1        0.1442
     12 H          -4.4937  -18.5299   20.3232 H       1  UNL1        0.1442
     13 C         -13.2833  -17.8941   23.4872 C.3     1  UNL1        0.0742
     14 S         -11.9690  -18.5677   23.7496 S.3     1  UNL1       -0.1127
@<TRIPOS>BOND
     1    13    14    1
     2    14     1    1
     3     1     2   ar
     4     2     3   ar
     5     3     4   ar
     6     4     5   ar
     7     5     6   ar
     8     6     7    1
     9     6     8   ar
    10     8     9   ar
    11     9    10   ar
    12    10     1   ar
    13     9     4   ar
    14     7    11    1
    15     7    12    1
@<TRIPOS>MOLECULE
*****
 14 15 0 0 0
SMALL
GASTEIGER

@<TRIPOS>ATOM
      1 C          -5.7424  -19.3960   20.5855 C.ar    1  UNL1        0.0258
      2 C          -5.4051  -19.6152   22.0306 C.ar    1  UNL1        0.0077
      3 C          -4.0135  -19.3512   22.5243 C.ar    1  UNL1        0.0202
      4 C          -2.9592  -18.8680   21.5730 C.ar    1  UNL1        0.0893
      5 N          -1.5120  -18.5254   21.7683 N.ar    1  UNL1       -0.2245
      6 C          -0.9549  -18.0945   20.4439 C.ar    1  UNL1        0.1567
      7 N           0.4573  -17.6631   20.1798 N.pl3   1  UNL1       -0.3375
      8 S          -2.0578  -18.1707   19.4302 S.2     1  UNL1       -0.0520
      9 C          -3.2966  -18.6488   20.1280 C.ar    1  UNL1        0.0502
     10 C          -4.6881  -18.9128   19.6343 C.ar    1  UNL1        0.0142
     11 H           1.1124  -17.6461   20.9145 H       1  UNL1        0.1442
     12 H           0.7290  -17.3969   19.2717 H       1  UNL1        0.1442
     13 C          -8.3145  -19.2502   20.9214 C.3     1  UNL1        0.0742
     14 S          -7.1340  -19.6600   20.0918 S.3     1  UNL1       -0.1127
@<TRIPOS>BOND
     1    13    14    1
     2    14     1    1
     3     1     2   ar
     4     2     3   ar
     5     3     4   ar
     6     4     5   ar
     7     5     6   ar
     8     6     7    1
     9     6     8   ar
    10     8     9   ar
    11     9    10   ar
    12    10     1   ar
    13     9     4   ar
    14     7    11    1
    15     7    12    1
@<TRIPOS>MOLECULE
*****
 14 15 0 0 0
SMALL
GASTEIGER

@<TRIPOS>ATOM
      1 C         -12.1300  -17.3570   22.6315 C.ar    1  UNL1        0.0258
      2 C         -12.0149  -16.7823   21.2508 C.ar    1  UNL1        0.0077
      3 C         -10.7508  -16.0947   20.8276 C.ar    1  UNL1        0.0202
      4 C          -9.6017  -15.9818   21.7850 C.ar    1  UNL1        0.0893
      5 N          -8.2411  -15.3647   21.6518 N.ar    1  UNL1       -0.2245
      6 C          -7.5152  -15.5580   22.9502 C.ar    1  UNL1        0.1567
      7 N          -6.1219  -15.0958   23.2586 N.pl3   1  UNL1       -0.3375
      8 S          -8.4272  -16.2946   23.8859 S.2     1  UNL1       -0.0520
      9 C          -9.7168  -16.5565   23.1658 C.ar    1  UNL1        0.0502
     10 C         -10.9809  -17.2441   23.5890 C.ar    1  UNL1        0.0142
     11 H          -5.5992  -14.6174   22.5750 H       1  UNL1        0.1442
     12 H          -5.7300  -15.2708   24.1447 H       1  UNL1        0.1442
     13 C         -13.7564  -18.1201   24.5084 C.3     1  UNL1        0.0742
     14 S         -13.3942  -18.0446   23.0547 S.3     1  UNL1       -0.1127
@<TRIPOS>BOND
     1    13    14    1
     2    14     1    1
     3     1     2   ar
     4     2     3   ar
     5     3     4   ar
     6     4     5   ar
     7     5     6   ar
     8     6     7    1
     9     6     8   ar
    10     8     9   ar
    11     9    10   ar
    12    10     1   ar
    13     9     4   ar
    14     7    11    1
    15     7    12    1
@<TRIPOS>MOLECULE
*****
 14 15 0 0 0
SMALL
GASTEIGER

@<TRIPOS>ATOM
      1 C         -10.0116  -18.5322   23.9170 C.ar    1  UNL1        0.0258
      2 C          -8.9378  -17.4902   23.8115 C.ar    1  UNL1        0.0077
      3 C          -9.0058  -16.4496   22.7333 C.ar    1  UNL1        0.0202
      4 C         -10.1476  -16.4510   21.7605 C.ar    1  UNL1        0.0893
      5 N         -10.4801  -15.5585   20.6017 N.ar    1  UNL1       -0.2245
      6 C         -11.7594  -16.0489   19.9910 C.ar    1  UNL1        0.1567
      7 N         -12.4579  -15.4489   18.8068 N.pl3   1  UNL1       -0.3375
      8 S         -12.2176  -17.2445   20.7724 S.2     1  UNL1       -0.0520
      9 C         -11.2214  -17.4930   21.8660 C.ar    1  UNL1        0.0502
     10 C         -11.1534  -18.5336   22.9443 C.ar    1  UNL1        0.0142
     11 H         -12.0767  -14.6598   18.3583 H       1  UNL1        0.1442
     12 H         -13.2974  -15.8443   18.4782 H       1  UNL1        0.1442
     13 C          -9.6402  -20.9989   24.6432 C.3     1  UNL1        0.0742
     14 S          -9.9436  -19.5727   24.9953 S.3     1  UNL1       -0.1127
@<TRIPOS>BOND
     1    13    14    1
     2    14     1    1
     3     1     2   ar
     4     2     3   ar
     5     3     4   ar
     6     4     5   ar
     7     5     6   ar
     8     6     7    1
     9     6     8   ar
    10     8     9   ar
    11     9    10   ar
    12    10     1   ar
    13     9     4   ar
    14     7    11    1
    15     7    12    1
@<TRIPOS>MOLECULE
*****
 14 15 0 0 0
SMALL
GASTEIGER

@<TRIPOS>ATOM
      1 C          -8.6663  -19.1902   21.1779 C.ar    1  UNL1        0.0258
      2 C          -9.5010  -18.9198   19.9614 C.ar    1  UNL1        0.0077
      3 C         -10.9430  -18.5348   20.1116 C.ar    1  UNL1        0.0202
      4 C         -11.5502  -18.4202   21.4783 C.ar    1  UNL1        0.0893
      5 N         -12.9333  -18.0624   21.9354 N.ar    1  UNL1       -0.2245
      6 C         -12.9534  -18.1117   23.4345 C.ar    1  UNL1        0.1567
      7 N         -14.1366  -17.8233   24.3103 N.pl3   1  UNL1       -0.3375
      8 S         -11.5827  -18.5000   23.9039 S.2     1  UNL1       -0.0520
      9 C         -10.7155  -18.6907   22.6949 C.ar    1  UNL1        0.0502
     10 C          -9.2735  -19.0757   22.5447 C.ar    1  UNL1        0.0142
     11 H         -14.9993  -17.5749   23.9062 H       1  UNL1        0.1442
     12 H         -14.0504  -17.8823   25.2893 H       1  UNL1        0.1442
     13 C          -6.1959  -19.0097   21.9617 C.3     1  UNL1        0.0742
     14 S          -7.2244  -19.5752   21.0277 S.3     1  UNL1       -0.1127
@<TRIPOS>BOND
     1    13    14    1
     2    14     1    1
     3     1     2   ar
     4     2     3   ar
     5     3     4   ar
     6     4     5   ar
     7     5     6   ar
     8     6     7    1
     9     6     8   ar
    10     8     9   ar
    11     9    10   ar
    12    10     1   ar
    13     9     4   ar
    14     7    11    1
    15     7    12    1
@<TRIPOS>MOLECULE
*****
 14 15 0 0 0
SMALL
GASTEIGER

@<TRIPOS>ATOM
      1 C          -7.9110  -15.7686   24.9085 C.ar    1  UNL1        0.0258
      2 C          -7.1748  -15.2613   23.7041 C.ar    1  UNL1        0.0077
      3 C          -7.7879  -15.3898   22.3412 C.ar    1  UNL1        0.0202
      4 C          -9.1372  -16.0257   22.1827 C.ar    1  UNL1        0.0893
      5 N          -9.9872  -16.2886   20.9751 N.ar    1  UNL1       -0.2245
      6 C         -11.2487  -16.9585   21.4331 C.ar    1  UNL1        0.1567
      7 N         -12.3817  -17.3998   20.5547 N.pl3   1  UNL1       -0.3375
      8 S         -11.1784  -17.1095   22.9239 S.2     1  UNL1       -0.0520
      9 C          -9.8733  -16.5330   23.3871 C.ar    1  UNL1        0.0502
     10 C          -9.2603  -16.4044   24.7500 C.ar    1  UNL1        0.0142
     11 H         -12.3351  -17.2563   19.5818 H       1  UNL1        0.1442
     12 H         -13.1720  -17.8330   20.9510 H       1  UNL1        0.1442
     13 C          -8.0934  -16.0063   27.4893 C.3     1  UNL1        0.0742
     14 S          -7.2979  -15.6400   26.2715 S.3     1  UNL1       -0.1127
@<TRIPOS>BOND
     1    13    14    1
     2    14     1    1
     3     1     2   ar
     4     2     3   ar
     5     3     4   ar
     6     4     5   ar
     7     5     6   ar
     8     6     7    1
     9     6     8   ar
    10     8     9   ar
    11     9    10   ar
    12    10     1   ar
    13     9     4   ar
    14     7    11    1
    15     7    12    1
@<TRIPOS>MOLECULE
*****
 14 15 0 0 0
SMALL
GASTEIGER

@<TRIPOS>ATOM
      1 C          -7.5993  -19.4734   20.4932 C.ar    1  UNL1        0.0258
      2 C          -8.6418  -19.8123   19.4694 C.ar    1  UNL1        0.0077
      3 C          -9.9856  -19.1477   19.5189 C.ar    1  UNL1        0.0202
      4 C         -10.2869  -18.1441   20.5921 C.ar    1  UNL1        0.0893
      5 N         -11.5123  -17.3328   20.8923 N.ar    1  UNL1       -0.2245
      6 C         -11.2272  -16.4924   22.1016 C.ar    1  UNL1        0.1567
      7 N         -12.1770  -15.5292   22.7498 N.pl3   1  UNL1       -0.3375
      8 S          -9.8255  -16.7843   22.5489 S.2     1  UNL1       -0.0520
      9 C          -9.2444  -17.8051   21.6159 C.ar    1  UNL1        0.0502
     10 C          -7.9006  -18.4698   21.5665 C.ar    1  UNL1        0.0142
     11 H         -13.0812  -15.4058   22.3806 H       1  UNL1        0.1442
     12 H         -11.8961  -15.0204   23.5445 H       1  UNL1        0.1442
     13 C          -5.0073  -19.3063   20.4325 C.3     1  UNL1        0.0742
     14 S          -6.2555  -20.1381   20.4438 S.3     1  UNL1       -0.1127
@<TRIPOS>BOND
     1    13    14    1
     2    14     1    1
     3     1     2   ar
     4     2     3   ar
     5     3     4   ar
     6     4     5   ar
     7     5     6   ar
     8     6     7    1
     9     6     8   ar
    10     8     9   ar
    11     9    10   ar
    12    10     1   ar
    13     9     4   ar
    14     7    11    1
    15     7    12    1
@<TRIPOS>MOLECULE
*****
 14 15 0 0 0
SMALL
GASTEIGER

@<TRIPOS>ATOM
      1 C          -8.5063  -19.2183   21.3021 C.ar    1  UNL1        0.0258
      2 C          -8.1858  -19.8937   22.6025 C.ar    1  UNL1        0.0077
      3 C          -9.1844  -19.8785   23.7217 C.ar    1  UNL1        0.0202
      4 C         -10.5036  -19.1879   23.5404 C.ar    1  UNL1        0.0893
      5 N         -11.6772  -19.0090   24.4572 N.ar    1  UNL1       -0.2245
      6 C         -12.7231  -18.2230   23.7234 C.ar    1  UNL1        0.1567
      7 N         -14.0613  -17.8155   24.2649 N.pl3   1  UNL1       -0.3375
      8 S         -12.1958  -17.9162   22.3531 S.2     1  UNL1       -0.0520
      9 C         -10.8241  -18.5125   22.2400 C.ar    1  UNL1        0.0502
     10 C          -9.8254  -18.5277   21.1209 C.ar    1  UNL1        0.0142
     11 H         -14.3183  -18.0657   25.1818 H       1  UNL1        0.1442
     12 H         -14.6827  -17.2979   23.7034 H       1  UNL1        0.1442
     13 C          -6.0391  -19.2154   20.4879 C.3     1  UNL1        0.0742
     14 S          -7.5076  -19.2336   20.1830 S.3     1  UNL1       -0.1127
@<TRIPOS>BOND
     1    13    14    1
     2    14     1    1
     3     1     2   ar
     4     2     3   ar
     5     3     4   ar
     6     4     5   ar
     7     5     6   ar
     8     6     7    1
     9     6     8   ar
    10     8     9   ar
    11     9    10   ar
    12    10     1   ar
    13     9     4   ar
    14     7    11    1
    15     7    12    1
@<TRIPOS>MOLECULE
*****
 14 15 0 0 0
SMALL
GASTEIGER

@<TRIPOS>ATOM
      1 C         -10.5453  -17.4946   22.5177 C.ar    1  UNL1        0.0258
      2 C          -9.3901  -17.8402   21.6255 C.ar    1  UNL1        0.0077
      3 C          -7.9986  -17.4303   22.0073 C.ar    1  UNL1        0.0202
      4 C          -7.7623  -16.6749   23.2814 C.ar    1  UNL1        0.0893
      5 N          -6.5116  -16.1418   23.9150 N.ar    1  UNL1       -0.2245
      6 C          -6.8937  -15.4668   25.1989 C.ar    1  UNL1        0.1567
      7 N          -5.9538  -14.7940   26.1550 N.pl3   1  UNL1       -0.3375
      8 S          -8.3806  -15.5827   25.3588 S.2     1  UNL1       -0.0520
      9 C          -8.9174  -16.3294   24.1737 C.ar    1  UNL1        0.0502
     10 C         -10.3089  -16.7392   23.7918 C.ar    1  UNL1        0.0142
     11 H          -4.9888  -14.7697   25.9616 H       1  UNL1        0.1442
     12 H          -6.3020  -14.3768   26.9760 H       1  UNL1        0.1442
     13 C         -13.0404  -17.8475   23.1501 C.3     1  UNL1        0.0742
     14 S         -11.9367  -17.9045   22.1359 S.3     1  UNL1       -0.1127
@<TRIPOS>BOND
     1    13    14    1
     2    14     1    1
     3     1     2   ar
     4     2     3   ar
     5     3     4   ar
     6     4     5   ar
     7     5     6   ar
     8     6     7    1
     9     6     8   ar
    10     8     9   ar
    11     9    10   ar
    12    10     1   ar
    13     9     4   ar
    14     7    11    1
    15     7    12    1
