@<TRIPOS>MOLECULE
*****
 43 47 0 0 0
SMALL
GASTEIGER

@<TRIPOS>ATOM
      1 C           6.6267   -4.1569   28.5121 C.ar    1  UNL1        0.2443
      2 N           6.2867   -3.7983   29.9284 N.ar    1  UNL1       -0.1953
      3 C           6.8611   -4.5948   31.0623 C.ar    1  UNL1        0.1354
      4 C           7.7756   -5.7498   30.7799 C.ar    1  UNL1        0.0359
      5 C           8.1155   -6.1084   29.3636 C.ar    1  UNL1        0.0221
      6 C           7.5411   -5.3119   28.2297 C.ar    1  UNL1        0.1023
      7 N           7.8811   -5.6705   26.8134 N.pl3   1  UNL1       -0.3039
      8 C           8.6485   -4.7056   25.9590 C.3     1  UNL1        0.0909
      9 C           8.9884   -5.0642   24.5428 C.3     1  UNL1        0.0215
     10 C           8.5610   -6.3877   23.9809 C.3     1  UNL1        0.0035
     11 C           7.7936   -7.3526   24.8354 C.3     1  UNL1        0.0215
     12 C           7.4537   -6.9940   26.2516 C.3     1  UNL1        0.0909
     13 N           6.5212   -4.2362   32.4786 N.pl3   1  UNL1       -0.2955
     14 H           6.6521   -4.8952   33.1982 H       1  UNL1        0.1537
     15 C           5.9817   -2.8736   32.7984 C.ar    1  UNL1        0.0839
     16 C           4.5236   -2.6966   33.1024 C.ar    1  UNL1        0.0190
     17 C           3.9841   -1.3340   33.4222 C.ar    1  UNL1        0.0160
     18 C           4.9029   -0.1484   33.4381 C.ar    1  UNL1        0.0510
     19 C           6.3610   -0.3254   33.1341 C.ar    1  UNL1        0.0527
     20 C           6.9005   -1.6880   32.8143 C.ar    1  UNL1        0.1532
     21 N           4.3634    1.2143   33.7580 N.pl3   1  UNL1       -0.3046
     22 C           2.9227    1.5328   33.4882 C.3     1  UNL1        0.1081
     23 C           2.3832    2.8954   33.8081 C.3     1  UNL1        0.0938
     24 N           3.2845    3.9394   34.3976 N.3     1  UNL1       -0.2686
     25 C           2.7451    5.3021   34.7174 C.3     1  UNL1        0.0897
     26 C           4.7253    3.6209   34.6673 C.3     1  UNL1        0.0938
     27 C           5.2647    2.2583   34.3475 C.3     1  UNL1        0.1081
     28 O           8.3587   -1.8650   32.5103 O.3     1  UNL1       -0.4701
     29 C           8.8990   -1.4660   31.1691 C.3     1  UNL1        0.2525
     30 O           6.0522   -3.3604   27.3782 O.3     1  UNL1       -0.4350
     31 C           3.5933   -0.2616   27.6961 C.ar    1  UNL1        0.0496
     32 C           4.0937   -1.6551   27.4560 C.ar    1  UNL1        0.0519
     33 C           5.5519   -1.9668   27.6185 C.ar    1  UNL1        0.1485
     34 C           6.5098   -0.8851   28.0211 C.ar    1  UNL1        0.0373
     35 C           6.0094    0.5084   28.2613 C.ar    1  UNL1        0.0001
     36 C           4.5512    0.8202   28.0988 C.ar    1  UNL1       -0.0082
     37 C           4.0509    2.2138   28.3390 C.3     1  UNL1        0.0323
     38 C           1.2190   -0.0082   28.7199 C.2     1  UNL1        0.2496
     39 O           1.7610   -0.3783   30.0687 O.2     1  UNL1       -0.2698
     40 N           2.1351    0.0501   27.5337 N.am    1  UNL1       -0.2805
     41 H           1.7793    0.2930   26.6484 H       1  UNL1        0.1552
     42 C          -1.2645   -0.7695   28.7757 C.2     1  UNL1        0.0048
     43 C          -0.2393    0.3036   28.5574 C.2     1  UNL1        0.0580
@<TRIPOS>BOND
     1    42    43    2
     2    43    38    1
     3    38    39    2
     4    38    40   am
     5    40    31    1
     6    31    32   ar
     7    32    33   ar
     8    33    30    1
     9    30     1    1
    10     1     2   ar
    11     2     3   ar
    12     3    13    1
    13    13    15    1
    14    15    16   ar
    15    16    17   ar
    16    17    18   ar
    17    18    21    1
    18    21    22    1
    19    22    23    1
    20    23    24    1
    21    24    25    1
    22    24    26    1
    23    26    27    1
    24    18    19   ar
    25    19    20   ar
    26    20    28    1
    27    28    29    1
    28     3     4   ar
    29     4     5   ar
    30     5     6   ar
    31     6     7    1
    32     7     8    1
    33     8     9    1
    34     9    10    1
    35    10    11    1
    36    11    12    1
    37    33    34   ar
    38    34    35   ar
    39    35    36   ar
    40    36    37    1
    41    36    31   ar
    42     6     1   ar
    43    12     7    1
    44    20    15   ar
    45    27    21    1
    46    40    41    1
    47    13    14    1
@<TRIPOS>MOLECULE
*****
 43 47 0 0 0
SMALL
GASTEIGER

@<TRIPOS>ATOM
      1 C           4.6642   -1.0188   32.2933 C.ar    1  UNL1        0.2443
      2 N           3.4826   -0.1145   32.1028 N.ar    1  UNL1       -0.1953
      3 C           3.1479    0.4042   30.7357 C.ar    1  UNL1        0.1354
      4 C           3.9947    0.0186   29.5591 C.ar    1  UNL1        0.0359
      5 C           5.1762   -0.8856   29.7497 C.ar    1  UNL1        0.0221
      6 C           5.5109   -1.4043   31.1167 C.ar    1  UNL1        0.1023
      7 N           6.6925   -2.3087   31.3072 N.pl3   1  UNL1       -0.3039
      8 C           8.0308   -1.7300   31.6593 C.3     1  UNL1        0.0909
      9 C           9.2122   -2.6343   31.8498 C.3     1  UNL1        0.0215
     10 C           9.0554   -4.1173   31.6881 C.3     1  UNL1        0.0035
     11 C           7.7171   -4.6960   31.3360 C.3     1  UNL1        0.0215
     12 C           6.5357   -3.7917   31.1455 C.3     1  UNL1        0.0909
     13 N           1.9664    1.3085   30.5452 N.pl3   1  UNL1       -0.2955
     14 H           1.5235    1.7110   31.3269 H       1  UNL1        0.1537
     15 C           1.4598    1.5995   29.1637 C.ar    1  UNL1        0.0839
     16 C           2.1470    2.6268   28.3137 C.ar    1  UNL1        0.0190
     17 C           1.6403    2.9178   26.9322 C.ar    1  UNL1        0.0160
     18 C           0.4465    2.1814   26.4006 C.ar    1  UNL1        0.0510
     19 C          -0.2407    1.1542   27.2506 C.ar    1  UNL1        0.0527
     20 C           0.2659    0.8632   28.6321 C.ar    1  UNL1        0.1532
     21 N          -0.0602    2.4724   25.0190 N.pl3   1  UNL1       -0.3046
     22 C           0.6782    1.9478   23.8234 C.3     1  UNL1        0.1081
     23 C           0.1716    2.2387   22.4419 C.3     1  UNL1        0.0938
     24 N          -1.0735    3.0543   22.2560 N.3     1  UNL1       -0.2686
     25 C          -1.5802    3.3452   20.8744 C.3     1  UNL1        0.0897
     26 C          -1.8119    3.5789   23.4516 C.3     1  UNL1        0.0938
     27 C          -1.3053    3.2880   24.8331 C.3     1  UNL1        0.1081
     28 O          -0.4213   -0.1641   29.4820 O.3     1  UNL1       -0.4701
     29 C          -1.7135   -0.7732   29.0247 C.3     1  UNL1        0.2525
     30 O           4.9989   -1.5375   33.6604 O.3     1  UNL1       -0.4350
     31 C           4.5623    0.4852   37.0468 C.ar    1  UNL1        0.0496
     32 C           4.2973   -0.4743   35.9247 C.ar    1  UNL1        0.0519
     33 C           5.2640   -0.5779   34.7825 C.ar    1  UNL1        0.1485
     34 C           6.4956    0.2779   34.7623 C.ar    1  UNL1        0.0373
     35 C           6.7606    1.2374   35.8844 C.ar    1  UNL1        0.0001
     36 C           5.7939    1.3411   37.0266 C.ar    1  UNL1       -0.0082
     37 C           6.0590    2.3006   38.1487 C.3     1  UNL1        0.0323
     38 C           2.4005    1.4889   38.0809 C.2     1  UNL1        0.2496
     39 O           2.1721    2.2853   36.8304 O.2     1  UNL1       -0.2698
     40 N           3.5956    0.5889   38.1891 N.am    1  UNL1       -0.2805
     41 H           3.7455    0.0662   39.0098 H       1  UNL1        0.1552
     42 C           0.9098    0.3486   39.8775 C.2     1  UNL1        0.0048
     43 C           1.4338    1.5926   39.2232 C.2     1  UNL1        0.0580
@<TRIPOS>BOND
     1    42    43    2
     2    43    38    1
     3    38    39    2
     4    38    40   am
     5    40    31    1
     6    31    32   ar
     7    32    33   ar
     8    33    30    1
     9    30     1    1
    10     1     2   ar
    11     2     3   ar
    12     3    13    1
    13    13    15    1
    14    15    16   ar
    15    16    17   ar
    16    17    18   ar
    17    18    21    1
    18    21    22    1
    19    22    23    1
    20    23    24    1
    21    24    25    1
    22    24    26    1
    23    26    27    1
    24    18    19   ar
    25    19    20   ar
    26    20    28    1
    27    28    29    1
    28     3     4   ar
    29     4     5   ar
    30     5     6   ar
    31     6     7    1
    32     7     8    1
    33     8     9    1
    34     9    10    1
    35    10    11    1
    36    11    12    1
    37    33    34   ar
    38    34    35   ar
    39    35    36   ar
    40    36    37    1
    41    36    31   ar
    42     6     1   ar
    43    12     7    1
    44    20    15   ar
    45    27    21    1
    46    40    41    1
    47    13    14    1
@<TRIPOS>MOLECULE
*****
 43 47 0 0 0
SMALL
GASTEIGER

@<TRIPOS>ATOM
      1 C           3.7660    0.0624   23.2052 C.ar    1  UNL1        0.2443
      2 N           4.3481   -0.4327   24.4960 N.ar    1  UNL1       -0.1953
      3 C           4.7984   -1.8584   24.6176 C.ar    1  UNL1        0.1354
      4 C           4.6666   -2.7889   23.4485 C.ar    1  UNL1        0.0359
      5 C           4.0845   -2.2938   22.1578 C.ar    1  UNL1        0.0221
      6 C           3.6342   -0.8681   22.0361 C.ar    1  UNL1        0.1023
      7 N           3.0521   -0.3730   20.7453 N.pl3   1  UNL1       -0.3039
      8 C           3.9567   -0.0072   19.6061 C.3     1  UNL1        0.0909
      9 C           3.3746    0.4878   18.3154 C.3     1  UNL1        0.0215
     10 C           1.8879    0.6172   18.1639 C.3     1  UNL1        0.0035
     11 C           0.9833    0.2514   19.3031 C.3     1  UNL1        0.0215
     12 C           1.5654   -0.2437   20.5938 C.3     1  UNL1        0.0909
     13 N           5.3805   -2.3535   25.9083 N.pl3   1  UNL1       -0.2955
     14 H           6.0133   -3.1077   25.9057 H       1  UNL1        0.1537
     15 C           4.9984   -1.6995   27.2031 C.ar    1  UNL1        0.0839
     16 C           3.5683   -1.3291   27.4629 C.ar    1  UNL1        0.0190
     17 C           3.1863   -0.6751   28.7577 C.ar    1  UNL1        0.0160
     18 C           4.2344   -0.3916   29.7926 C.ar    1  UNL1        0.0510
     19 C           5.6645   -0.7620   29.5328 C.ar    1  UNL1        0.0527
     20 C           6.0466   -1.4160   28.2380 C.ar    1  UNL1        0.1532
     21 N           3.8524    0.2624   31.0874 N.pl3   1  UNL1       -0.3046
     22 C           2.5259    0.9507   31.2172 C.3     1  UNL1        0.1081
     23 C           2.1439    1.6047   32.5119 C.3     1  UNL1        0.0938
     24 N           3.0883    1.5704   33.6768 N.3     1  UNL1       -0.2686
     25 C           2.7063    2.2244   34.9716 C.3     1  UNL1        0.0897
     26 C           4.4147    0.8822   33.5469 C.3     1  UNL1        0.0938
     27 C           4.7968    0.2282   32.2522 C.3     1  UNL1        0.1081
     28 O           7.4767   -1.7864   27.9782 O.3     1  UNL1       -0.4701
     29 C           8.4446   -1.8871   29.1197 C.3     1  UNL1        0.2525
     30 O           3.3158    1.4880   23.0835 O.3     1  UNL1       -0.4350
     31 C           0.0978    1.6072   25.4032 C.ar    1  UNL1        0.0496
     32 C           1.4219    1.1880   24.8367 C.ar    1  UNL1        0.0519
     33 C           1.9915    1.9072   23.6500 C.ar    1  UNL1        0.1485
     34 C           1.2370    3.0456   23.0297 C.ar    1  UNL1        0.0373
     35 C          -0.0871    3.4648   23.5962 C.ar    1  UNL1        0.0001
     36 C          -0.6567    2.7455   24.7829 C.ar    1  UNL1       -0.0082
     37 C          -1.9810    3.1648   25.3494 C.3     1  UNL1        0.0323
     38 C          -0.0291    1.2578   27.9745 C.2     1  UNL1        0.2496
     39 O           0.9833    2.3469   28.1724 O.2     1  UNL1       -0.2698
     40 N          -0.4718    0.8880   26.5899 N.am    1  UNL1       -0.2805
     41 H          -1.1362    0.1732   26.4600 H       1  UNL1        0.1552
     42 C          -1.5442   -0.6085   28.9602 C.2     1  UNL1        0.0048
     43 C          -0.5987    0.5386   29.1612 C.2     1  UNL1        0.0580
@<TRIPOS>BOND
     1    42    43    2
     2    43    38    1
     3    38    39    2
     4    38    40   am
     5    40    31    1
     6    31    32   ar
     7    32    33   ar
     8    33    30    1
     9    30     1    1
    10     1     2   ar
    11     2     3   ar
    12     3    13    1
    13    13    15    1
    14    15    16   ar
    15    16    17   ar
    16    17    18   ar
    17    18    21    1
    18    21    22    1
    19    22    23    1
    20    23    24    1
    21    24    25    1
    22    24    26    1
    23    26    27    1
    24    18    19   ar
    25    19    20   ar
    26    20    28    1
    27    28    29    1
    28     3     4   ar
    29     4     5   ar
    30     5     6   ar
    31     6     7    1
    32     7     8    1
    33     8     9    1
    34     9    10    1
    35    10    11    1
    36    11    12    1
    37    33    34   ar
    38    34    35   ar
    39    35    36   ar
    40    36    37    1
    41    36    31   ar
    42     6     1   ar
    43    12     7    1
    44    20    15   ar
    45    27    21    1
    46    40    41    1
    47    13    14    1
@<TRIPOS>MOLECULE
*****
 43 47 0 0 0
SMALL
GASTEIGER

@<TRIPOS>ATOM
      1 C          -1.9212    4.5013   22.0303 C.ar    1  UNL1        0.2443
      2 N          -0.8855    4.1567   21.0013 N.ar    1  UNL1       -0.1953
      3 C          -1.3073    3.7234   19.6286 C.ar    1  UNL1        0.1354
      4 C          -2.7647    3.6346   19.2849 C.ar    1  UNL1        0.0359
      5 C          -3.8003    3.9792   20.3138 C.ar    1  UNL1        0.0221
      6 C          -3.3786    4.4125   21.6865 C.ar    1  UNL1        0.1023
      7 N          -4.4142    4.7571   22.7155 N.pl3   1  UNL1       -0.3039
      8 C          -4.9858    6.1428   22.7695 C.3     1  UNL1        0.0909
      9 C          -6.0215    6.4873   23.7984 C.3     1  UNL1        0.0215
     10 C          -6.4855    5.4461   24.7734 C.3     1  UNL1        0.0035
     11 C          -5.9139    4.0603   24.7194 C.3     1  UNL1        0.0215
     12 C          -4.8783    3.7158   23.6904 C.3     1  UNL1        0.0909
     13 N          -0.2717    3.3788   18.5997 N.pl3   1  UNL1       -0.2955
     14 H          -0.2666    3.8433   17.7316 H       1  UNL1        0.1537
     15 C           0.7563    2.3267   18.8933 C.ar    1  UNL1        0.0839
     16 C           0.3469    1.0397   19.5462 C.ar    1  UNL1        0.0190
     17 C           1.3750   -0.0125   19.8398 C.ar    1  UNL1        0.0160
     18 C           2.8122    0.2224   19.4806 C.ar    1  UNL1        0.0510
     19 C           3.2216    1.5093   18.8278 C.ar    1  UNL1        0.0527
     20 C           2.1936    2.5615   18.5342 C.ar    1  UNL1        0.1532
     21 N           3.8403   -0.8298   19.7743 N.pl3   1  UNL1       -0.3046
     22 C           5.2682   -0.4373   20.0131 C.3     1  UNL1        0.1081
     23 C           6.2962   -1.4893   20.3068 C.3     1  UNL1        0.0938
     24 N           5.8963   -2.9340   20.3616 N.3     1  UNL1       -0.2686
     25 C           6.9243   -3.9862   20.6552 C.3     1  UNL1        0.0897
     26 C           4.4684   -3.3266   20.1227 C.3     1  UNL1        0.0938
     27 C           3.4404   -2.2745   19.8291 C.3     1  UNL1        0.1081
     28 O           2.6030    3.8484   17.8814 O.3     1  UNL1       -0.4701
     29 C           3.9502    4.4410   18.1709 C.3     1  UNL1        0.2525
     30 O          -1.4995    4.9346   23.4030 O.3     1  UNL1       -0.4350
     31 C          -0.1059    1.7112   25.2517 C.ar    1  UNL1        0.0496
     32 C          -0.3573    2.7363   24.1859 C.ar    1  UNL1        0.0519
     33 C          -1.2480    3.9096   24.4689 C.ar    1  UNL1        0.1485
     34 C          -1.8872    4.0578   25.8178 C.ar    1  UNL1        0.0373
     35 C          -1.6357    3.0327   26.8836 C.ar    1  UNL1        0.0001
     36 C          -0.7451    1.8594   26.6005 C.ar    1  UNL1       -0.0082
     37 C          -0.4936    0.8344   27.6664 C.3     1  UNL1        0.0323
     38 C           2.2753    0.6993   25.0154 C.2     1  UNL1        0.2496
     39 O           2.8753    2.0340   25.3452 O.2     1  UNL1       -0.2698
     40 N           0.7848    0.5379   24.9686 N.am    1  UNL1       -0.2805
     41 H           0.3911   -0.3381   24.7522 H       1  UNL1        0.1552
     42 C           3.3824   -0.9276   23.3190 C.2     1  UNL1        0.0048
     43 C           3.1660   -0.4740   24.7324 C.2     1  UNL1        0.0580
@<TRIPOS>BOND
     1    42    43    2
     2    43    38    1
     3    38    39    2
     4    38    40   am
     5    40    31    1
     6    31    32   ar
     7    32    33   ar
     8    33    30    1
     9    30     1    1
    10     1     2   ar
    11     2     3   ar
    12     3    13    1
    13    13    15    1
    14    15    16   ar
    15    16    17   ar
    16    17    18   ar
    17    18    21    1
    18    21    22    1
    19    22    23    1
    20    23    24    1
    21    24    25    1
    22    24    26    1
    23    26    27    1
    24    18    19   ar
    25    19    20   ar
    26    20    28    1
    27    28    29    1
    28     3     4   ar
    29     4     5   ar
    30     5     6   ar
    31     6     7    1
    32     7     8    1
    33     8     9    1
    34     9    10    1
    35    10    11    1
    36    11    12    1
    37    33    34   ar
    38    34    35   ar
    39    35    36   ar
    40    36    37    1
    41    36    31   ar
    42     6     1   ar
    43    12     7    1
    44    20    15   ar
    45    27    21    1
    46    40    41    1
    47    13    14    1
@<TRIPOS>MOLECULE
*****
 43 47 0 0 0
SMALL
GASTEIGER

@<TRIPOS>ATOM
      1 C           2.1020    0.8190   18.5114 C.ar    1  UNL1        0.2443
      2 N           0.6927    1.3312   18.4682 N.ar    1  UNL1       -0.1953
      3 C           0.4332    2.8017   18.3257 C.ar    1  UNL1        0.1354
      4 C           1.5830    3.7600   18.2264 C.ar    1  UNL1        0.0359
      5 C           2.9921    3.2478   18.2696 C.ar    1  UNL1        0.0221
      6 C           3.2516    1.7773   18.4121 C.ar    1  UNL1        0.1023
      7 N           4.6609    1.2651   18.4552 N.pl3   1  UNL1       -0.3039
      8 C           5.2358    0.5505   17.2684 C.3     1  UNL1        0.0909
      9 C           6.6450    0.0384   17.3116 C.3     1  UNL1        0.0215
     10 C           7.4792    0.2408   18.5417 C.3     1  UNL1        0.0035
     11 C           6.9042    0.9554   19.7285 C.3     1  UNL1        0.0215
     12 C           5.4951    1.4676   19.6853 C.3     1  UNL1        0.0909
     13 N          -0.9759    3.3139   18.2826 N.pl3   1  UNL1       -0.2955
     14 H          -1.4330    3.4250   17.4177 H       1  UNL1        0.1537
     15 C          -1.6887    3.6567   19.5571 C.ar    1  UNL1        0.0839
     16 C          -0.9168    3.7852   20.8368 C.ar    1  UNL1        0.0190
     17 C          -1.6296    4.1281   22.1114 C.ar    1  UNL1        0.0160
     18 C          -3.1142    4.3423   22.1062 C.ar    1  UNL1        0.0510
     19 C          -3.8860    4.2137   20.8264 C.ar    1  UNL1        0.0527
     20 C          -3.1733    3.8709   19.5519 C.ar    1  UNL1        0.1532
     21 N          -3.8270    4.6851   23.3807 N.pl3   1  UNL1       -0.3046
     22 C          -4.1679    6.1131   23.6887 C.3     1  UNL1        0.1081
     23 C          -4.8807    6.4559   24.9632 C.3     1  UNL1        0.0938
     24 N          -5.2526    5.3709   25.9297 N.3     1  UNL1       -0.2686
     25 C          -5.9654    5.7137   27.2043 C.3     1  UNL1        0.0897
     26 C          -4.9117    3.9429   25.6218 C.3     1  UNL1        0.0938
     27 C          -4.1989    3.6001   24.3473 C.3     1  UNL1        0.1081
     28 O          -3.9452    3.7424   18.2722 O.3     1  UNL1       -0.4701
     29 C          -5.4301    3.5339   18.3096 C.3     1  UNL1        0.2525
     30 O           2.3615   -0.6515   18.6539 O.3     1  UNL1       -0.4350
     31 C           4.6248   -2.7988   21.1067 C.ar    1  UNL1        0.0496
     32 C           4.0139   -2.2638   19.8456 C.ar    1  UNL1        0.0519
     33 C           2.9724   -1.1865   19.9151 C.ar    1  UNL1        0.1485
     34 C           2.5419   -0.6443   21.2457 C.ar    1  UNL1        0.0373
     35 C           3.1529   -1.1793   22.5068 C.ar    1  UNL1        0.0001
     36 C           4.1943   -2.2566   22.4373 C.ar    1  UNL1       -0.0082
     37 C           4.8053   -2.7916   23.6985 C.3     1  UNL1        0.0323
     38 C           7.1214   -3.5178   21.1019 C.2     1  UNL1        0.2496
     39 O           7.5351   -2.0822   21.2362 O.2     1  UNL1       -0.2698
     40 N           5.6663   -3.8761   21.0372 N.am    1  UNL1       -0.2805
     41 H           5.3948   -4.8183   20.9491 H       1  UNL1        0.1552
     42 C           9.4963   -4.3100   20.4071 C.2     1  UNL1        0.0048
     43 C           8.1629   -4.5951   21.0324 C.2     1  UNL1        0.0580
@<TRIPOS>BOND
     1    42    43    2
     2    43    38    1
     3    38    39    2
     4    38    40   am
     5    40    31    1
     6    31    32   ar
     7    32    33   ar
     8    33    30    1
     9    30     1    1
    10     1     2   ar
    11     2     3   ar
    12     3    13    1
    13    13    15    1
    14    15    16   ar
    15    16    17   ar
    16    17    18   ar
    17    18    21    1
    18    21    22    1
    19    22    23    1
    20    23    24    1
    21    24    25    1
    22    24    26    1
    23    26    27    1
    24    18    19   ar
    25    19    20   ar
    26    20    28    1
    27    28    29    1
    28     3     4   ar
    29     4     5   ar
    30     5     6   ar
    31     6     7    1
    32     7     8    1
    33     8     9    1
    34     9    10    1
    35    10    11    1
    36    11    12    1
    37    33    34   ar
    38    34    35   ar
    39    35    36   ar
    40    36    37    1
    41    36    31   ar
    42     6     1   ar
    43    12     7    1
    44    20    15   ar
    45    27    21    1
    46    40    41    1
    47    13    14    1
@<TRIPOS>MOLECULE
*****
 43 47 0 0 0
SMALL
GASTEIGER

@<TRIPOS>ATOM
      1 C           7.6090   -3.5018   26.2491 C.ar    1  UNL1        0.2443
      2 N           7.4660   -3.3996   24.7594 N.ar    1  UNL1       -0.1953
      3 C           7.5083   -4.6388   23.9151 C.ar    1  UNL1        0.1354
      4 C           7.6935   -5.9801   24.5606 C.ar    1  UNL1        0.0359
      5 C           7.8365   -6.0823   26.0503 C.ar    1  UNL1        0.0221
      6 C           7.7942   -4.8431   26.8945 C.ar    1  UNL1        0.1023
      7 N           7.9372   -4.9453   28.3842 N.pl3   1  UNL1       -0.3039
      8 C           6.7844   -5.4216   29.2174 C.3     1  UNL1        0.0909
      9 C           6.9274   -5.5238   30.7070 C.3     1  UNL1        0.0215
     10 C           8.2232   -5.1497   31.3635 C.3     1  UNL1        0.0035
     11 C           9.3760   -4.6734   30.5303 C.3     1  UNL1        0.0215
     12 C           9.2330   -4.5712   29.0407 C.3     1  UNL1        0.0909
     13 N           7.3653   -4.5366   22.4255 N.pl3   1  UNL1       -0.2955
     14 H           7.9209   -5.0983   21.8380 H       1  UNL1        0.1537
     15 C           6.3759   -3.5787   21.8310 C.ar    1  UNL1        0.0839
     16 C           4.9675   -3.5397   22.3455 C.ar    1  UNL1        0.0190
     17 C           3.9780   -2.5818   21.7509 C.ar    1  UNL1        0.0160
     18 C           4.3971   -1.6629   20.6419 C.ar    1  UNL1        0.0510
     19 C           5.8056   -1.7019   20.1274 C.ar    1  UNL1        0.0527
     20 C           6.7950   -2.6598   20.7219 C.ar    1  UNL1        0.1532
     21 N           3.4077   -0.7049   20.0473 N.pl3   1  UNL1       -0.3046
     22 C           3.8863    0.4448   19.2112 C.3     1  UNL1        0.1081
     23 C           2.8969    1.4027   18.6166 C.3     1  UNL1        0.0938
     24 N           1.4290    1.2109   18.8582 N.3     1  UNL1       -0.2686
     25 C           0.4396    2.1689   18.2636 C.3     1  UNL1        0.0897
     26 C           0.9504    0.0612   19.6943 C.3     1  UNL1        0.0938
     27 C           1.9398   -0.8967   20.2889 C.3     1  UNL1        0.1081
     28 O           8.2034   -2.6987   20.2074 O.3     1  UNL1       -0.4701
     29 C           8.6093   -1.8154   19.0651 C.3     1  UNL1        0.2525
     30 O           7.5667   -2.2627   27.0933 O.3     1  UNL1       -0.4350
     31 C           3.8552   -0.8640   27.2289 C.ar    1  UNL1        0.0496
     32 C           5.1641   -1.3599   26.6898 C.ar    1  UNL1        0.0519
     33 C           6.2576   -1.7668   27.6325 C.ar    1  UNL1        0.1485
     34 C           6.0422   -1.6778   29.1142 C.ar    1  UNL1        0.0373
     35 C           4.7332   -1.1820   29.6533 C.ar    1  UNL1        0.0001
     36 C           3.6397   -0.7750   28.7106 C.ar    1  UNL1       -0.0082
     37 C           2.3307   -0.2792   29.2498 C.3     1  UNL1        0.0323
     38 C           2.7540    0.9223   25.6971 C.2     1  UNL1        0.2496
     39 O           3.8400    1.8949   26.0506 O.2     1  UNL1       -0.2698
     40 N           2.7616   -0.4571   26.2862 N.am    1  UNL1       -0.2805
     41 H           2.0489   -1.0954   26.0542 H       1  UNL1        0.1552
     42 C           0.2246    1.1394   25.1447 C.2     1  UNL1        0.0048
     43 C           1.6605    1.3292   24.7544 C.2     1  UNL1        0.0580
@<TRIPOS>BOND
     1    42    43    2
     2    43    38    1
     3    38    39    2
     4    38    40   am
     5    40    31    1
     6    31    32   ar
     7    32    33   ar
     8    33    30    1
     9    30     1    1
    10     1     2   ar
    11     2     3   ar
    12     3    13    1
    13    13    15    1
    14    15    16   ar
    15    16    17   ar
    16    17    18   ar
    17    18    21    1
    18    21    22    1
    19    22    23    1
    20    23    24    1
    21    24    25    1
    22    24    26    1
    23    26    27    1
    24    18    19   ar
    25    19    20   ar
    26    20    28    1
    27    28    29    1
    28     3     4   ar
    29     4     5   ar
    30     5     6   ar
    31     6     7    1
    32     7     8    1
    33     8     9    1
    34     9    10    1
    35    10    11    1
    36    11    12    1
    37    33    34   ar
    38    34    35   ar
    39    35    36   ar
    40    36    37    1
    41    36    31   ar
    42     6     1   ar
    43    12     7    1
    44    20    15   ar
    45    27    21    1
    46    40    41    1
    47    13    14    1
@<TRIPOS>MOLECULE
*****
 43 47 0 0 0
SMALL
GASTEIGER

@<TRIPOS>ATOM
      1 C           6.5742   -3.4544   26.5838 C.ar    1  UNL1        0.2443
      2 N           6.1807   -3.0815   25.1852 N.ar    1  UNL1       -0.1953
      3 C           6.5118   -3.9967   24.0437 C.ar    1  UNL1        0.1354
      4 C           7.2365   -5.2846   24.3009 C.ar    1  UNL1        0.0359
      5 C           7.6301   -5.6574   25.6995 C.ar    1  UNL1        0.0221
      6 C           7.2989   -4.7422   26.8410 C.ar    1  UNL1        0.1023
      7 N           7.6925   -5.1151   28.2396 N.pl3   1  UNL1       -0.3039
      8 C           9.1424   -5.1826   28.6180 C.3     1  UNL1        0.0909
      9 C           9.5359   -5.5554   30.0166 C.3     1  UNL1        0.0215
     10 C           8.4795   -5.8607   31.0368 C.3     1  UNL1        0.0035
     11 C           7.0296   -5.7931   30.6585 C.3     1  UNL1        0.0215
     12 C           6.6361   -5.4203   29.2599 C.3     1  UNL1        0.0909
     13 N           6.1183   -3.6239   22.6451 N.pl3   1  UNL1       -0.2955
     14 H           6.5925   -4.0193   21.8783 H       1  UNL1        0.1537
     15 C           5.0022   -2.6486   22.4148 C.ar    1  UNL1        0.0839
     16 C           4.4609   -1.8442   23.5593 C.ar    1  UNL1        0.0190
     17 C           3.3447   -0.8689   23.3289 C.ar    1  UNL1        0.0160
     18 C           2.7699   -0.6981   21.9541 C.ar    1  UNL1        0.0510
     19 C           3.3111   -1.5025   20.8095 C.ar    1  UNL1        0.0527
     20 C           4.4272   -2.4778   21.0399 C.ar    1  UNL1        0.1532
     21 N           1.6537    0.2773   21.7237 N.pl3   1  UNL1       -0.3046
     22 C           1.2677    1.2441   22.8036 C.3     1  UNL1        0.1081
     23 C           0.1516    2.2194   22.5733 C.3     1  UNL1        0.0938
     24 N          -0.5785    2.2278   21.2630 N.3     1  UNL1       -0.2686
     25 C          -1.6947    3.2031   21.0327 C.3     1  UNL1        0.0897
     26 C          -0.1926    1.2609   20.1831 C.3     1  UNL1        0.0938
     27 C           0.9235    0.2857   20.4134 C.3     1  UNL1        0.1081
     28 O           4.9684   -3.2822   19.8953 O.3     1  UNL1       -0.4701
     29 C           6.0949   -2.7418   19.0652 C.3     1  UNL1        0.2525
     30 O           6.2431   -2.5393   27.7253 O.3     1  UNL1       -0.4350
     31 C           3.0933   -0.1453   27.4119 C.ar    1  UNL1        0.0496
     32 C           3.9233   -1.3718   27.6504 C.ar    1  UNL1        0.0519
     33 C           5.4131   -1.3127   27.4867 C.ar    1  UNL1        0.1485
     34 C           6.0731   -0.0271   27.0846 C.ar    1  UNL1        0.0373
     35 C           5.2432    1.1993   26.8461 C.ar    1  UNL1        0.0001
     36 C           3.7533    1.1403   27.0097 C.ar    1  UNL1       -0.0082
     37 C           2.9234    2.3668   26.7712 C.3     1  UNL1        0.0323
     38 C           1.0003   -0.2319   28.9485 C.2     1  UNL1        0.2496
     39 O           1.8869   -0.2003   30.1581 O.2     1  UNL1       -0.2698
     40 N           1.6035   -0.2044   27.5755 N.am    1  UNL1       -0.2805
     41 H           1.0215   -0.2251   26.7817 H       1  UNL1        0.1552
     42 C          -1.3607    0.7144   28.4190 C.2     1  UNL1        0.0048
     43 C          -0.4896   -0.2910   29.1122 C.2     1  UNL1        0.0580
@<TRIPOS>BOND
     1    42    43    2
     2    43    38    1
     3    38    39    2
     4    38    40   am
     5    40    31    1
     6    31    32   ar
     7    32    33   ar
     8    33    30    1
     9    30     1    1
    10     1     2   ar
    11     2     3   ar
    12     3    13    1
    13    13    15    1
    14    15    16   ar
    15    16    17   ar
    16    17    18   ar
    17    18    21    1
    18    21    22    1
    19    22    23    1
    20    23    24    1
    21    24    25    1
    22    24    26    1
    23    26    27    1
    24    18    19   ar
    25    19    20   ar
    26    20    28    1
    27    28    29    1
    28     3     4   ar
    29     4     5   ar
    30     5     6   ar
    31     6     7    1
    32     7     8    1
    33     8     9    1
    34     9    10    1
    35    10    11    1
    36    11    12    1
    37    33    34   ar
    38    34    35   ar
    39    35    36   ar
    40    36    37    1
    41    36    31   ar
    42     6     1   ar
    43    12     7    1
    44    20    15   ar
    45    27    21    1
    46    40    41    1
    47    13    14    1
@<TRIPOS>MOLECULE
*****
 43 47 0 0 0
SMALL
GASTEIGER

@<TRIPOS>ATOM
      1 C           7.0228   -4.1958   23.3547 C.ar    1  UNL1        0.2443
      2 N           6.7100   -3.4487   22.0921 N.ar    1  UNL1       -0.1953
      3 C           7.5340   -3.6797   20.8602 C.ar    1  UNL1        0.1354
      4 C           8.6709   -4.6579   20.8909 C.ar    1  UNL1        0.0359
      5 C           8.9837   -5.4049   22.1535 C.ar    1  UNL1        0.0221
      6 C           8.1596   -5.1738   23.3854 C.ar    1  UNL1        0.1023
      7 N           8.4724   -5.9209   24.6480 N.pl3   1  UNL1       -0.3039
      8 C           9.2230   -5.2418   25.7549 C.3     1  UNL1        0.0909
      9 C           9.5358   -5.9889   27.0174 C.3     1  UNL1        0.0215
     10 C           9.0980   -7.4151   27.1730 C.3     1  UNL1        0.0035
     11 C           8.3474   -8.0942   26.0661 C.3     1  UNL1        0.0215
     12 C           8.0346   -7.3471   24.8035 C.3     1  UNL1        0.0909
     13 N           7.2213   -2.9327   19.5977 N.pl3   1  UNL1       -0.2955
     14 H           7.7891   -3.0510   18.8022 H       1  UNL1        0.1537
     15 C           6.0433   -2.0054   19.5471 C.ar    1  UNL1        0.0839
     16 C           6.2064   -0.5642   19.9298 C.ar    1  UNL1        0.0190
     17 C           5.0284    0.3631   19.8793 C.ar    1  UNL1        0.0160
     18 C           3.6874   -0.1508   19.4461 C.ar    1  UNL1        0.0510
     19 C           3.5244   -1.5920   19.0634 C.ar    1  UNL1        0.0527
     20 C           4.7023   -2.5193   19.1139 C.ar    1  UNL1        0.1532
     21 N           2.5094    0.7765   19.3955 N.pl3   1  UNL1       -0.3046
     22 C           2.5902    2.0493   18.6059 C.3     1  UNL1        0.1081
     23 C           1.4123    2.9765   18.5554 C.3     1  UNL1        0.0938
     24 N           0.1535    2.6310   19.2944 N.3     1  UNL1       -0.2686
     25 C          -1.0245    3.5583   19.2439 C.3     1  UNL1        0.0897
     26 C           0.0728    1.3582   20.0840 C.3     1  UNL1        0.0938
     27 C           1.2507    0.4310   20.1346 C.3     1  UNL1        0.1081
     28 O           4.5393   -3.9605   18.7312 O.3     1  UNL1       -0.4701
     29 C           3.5144   -4.8090   19.4236 C.3     1  UNL1        0.2525
     30 O           6.1988   -3.9647   24.5866 O.3     1  UNL1       -0.4350
     31 C           4.1541   -0.6538   25.3659 C.ar    1  UNL1        0.0496
     32 C           4.4733   -2.0527   24.9286 C.ar    1  UNL1        0.0519
     33 C           5.8796   -2.5658   25.0239 C.ar    1  UNL1        0.1485
     34 C           6.9667   -1.6800   25.5565 C.ar    1  UNL1        0.0373
     35 C           6.6474   -0.2812   25.9938 C.ar    1  UNL1        0.0001
     36 C           5.2412    0.2319   25.8985 C.ar    1  UNL1       -0.0082
     37 C           4.9220    1.6309   26.3359 C.3     1  UNL1        0.0323
     38 C           2.3095    0.6251   24.0577 C.2     1  UNL1        0.2496
     39 O           3.2774    0.8779   22.9400 O.2     1  UNL1       -0.2698
     40 N           2.7478   -0.1407   25.2706 N.am    1  UNL1       -0.2805
     41 H           2.1125   -0.3066   26.0042 H       1  UNL1        0.1552
     42 C           0.0595    1.2480   25.1979 C.2     1  UNL1        0.0048
     43 C           0.9032    1.1383   23.9624 C.2     1  UNL1        0.0580
@<TRIPOS>BOND
     1    42    43    2
     2    43    38    1
     3    38    39    2
     4    38    40   am
     5    40    31    1
     6    31    32   ar
     7    32    33   ar
     8    33    30    1
     9    30     1    1
    10     1     2   ar
    11     2     3   ar
    12     3    13    1
    13    13    15    1
    14    15    16   ar
    15    16    17   ar
    16    17    18   ar
    17    18    21    1
    18    21    22    1
    19    22    23    1
    20    23    24    1
    21    24    25    1
    22    24    26    1
    23    26    27    1
    24    18    19   ar
    25    19    20   ar
    26    20    28    1
    27    28    29    1
    28     3     4   ar
    29     4     5   ar
    30     5     6   ar
    31     6     7    1
    32     7     8    1
    33     8     9    1
    34     9    10    1
    35    10    11    1
    36    11    12    1
    37    33    34   ar
    38    34    35   ar
    39    35    36   ar
    40    36    37    1
    41    36    31   ar
    42     6     1   ar
    43    12     7    1
    44    20    15   ar
    45    27    21    1
    46    40    41    1
    47    13    14    1
@<TRIPOS>MOLECULE
*****
 43 47 0 0 0
SMALL
GASTEIGER

@<TRIPOS>ATOM
      1 C          -0.4309    2.5016   21.8692 C.ar    1  UNL1        0.2443
      2 N           0.7010    2.4789   22.8533 N.ar    1  UNL1       -0.1953
      3 C           0.8365    3.5771   23.8660 C.ar    1  UNL1        0.1354
      4 C          -0.1599    4.6981   23.8945 C.ar    1  UNL1        0.0359
      5 C          -1.2917    4.7208   22.9105 C.ar    1  UNL1        0.0221
      6 C          -1.4272    3.6226   21.8978 C.ar    1  UNL1        0.1023
      7 N          -2.5591    3.6453   20.9137 N.pl3   1  UNL1       -0.3039
      8 C          -2.3021    4.0175   19.4835 C.3     1  UNL1        0.0909
      9 C          -3.4339    4.0403   18.4995 C.3     1  UNL1        0.0215
     10 C          -4.8228    3.6908   18.9456 C.3     1  UNL1        0.0035
     11 C          -5.0798    3.3186   20.3758 C.3     1  UNL1        0.0215
     12 C          -3.9479    3.2958   21.3598 C.3     1  UNL1        0.0909
     13 N           1.9683    3.5544   24.8501 N.pl3   1  UNL1       -0.2955
     14 H           2.1959    4.3669   25.3573 H       1  UNL1        0.1537
     15 C           2.7532    2.2938   25.0613 C.ar    1  UNL1        0.0839
     16 C           3.9334    1.9898   24.1869 C.ar    1  UNL1        0.0190
     17 C           4.7184    0.7291   24.3982 C.ar    1  UNL1        0.0160
     18 C           4.3231   -0.2275   25.4839 C.ar    1  UNL1        0.0510
     19 C           3.1429    0.0766   26.3583 C.ar    1  UNL1        0.0527
     20 C           2.3579    1.3372   26.1470 C.ar    1  UNL1        0.1532
     21 N           5.1081   -1.4882   25.6952 N.pl3   1  UNL1       -0.3046
     22 C           5.4401   -1.9407   27.0862 C.3     1  UNL1        0.1081
     23 C           6.2250   -3.2013   27.2976 C.3     1  UNL1        0.0938
     24 N           6.6779   -4.0094   26.1179 N.3     1  UNL1       -0.2686
     25 C           7.4628   -5.2701   26.3292 C.3     1  UNL1        0.0897
     26 C           6.3459   -3.5569   24.7268 C.3     1  UNL1        0.0938
     27 C           5.5610   -2.2963   24.5155 C.3     1  UNL1        0.1081
     28 O           1.1777    1.6412   27.0214 O.3     1  UNL1       -0.4701
     29 C          -0.1997    1.2317   26.5913 C.3     1  UNL1        0.2525
     30 O          -0.5664    1.4034   20.8565 O.3     1  UNL1       -0.4350
     31 C           2.3247   -0.8226   19.2956 C.ar    1  UNL1        0.0496
     32 C           1.1403   -0.4113   20.1189 C.ar    1  UNL1        0.0519
     33 C           0.6180    0.9922   20.0331 C.ar    1  UNL1        0.1485
     34 C           1.2802    1.9845   19.1238 C.ar    1  UNL1        0.0373
     35 C           2.4647    1.5732   18.3004 C.ar    1  UNL1        0.0001
     36 C           2.9869    0.1697   18.3863 C.ar    1  UNL1       -0.0082
     37 C           4.1713   -0.2415   17.5629 C.3     1  UNL1        0.0323
     38 C           3.9510   -2.5582   20.3410 C.2     1  UNL1        0.2496
     39 O           4.5329   -1.4867   21.2147 O.2     1  UNL1       -0.2698
     40 N           2.8469   -2.2261   19.3815 N.am    1  UNL1       -0.2805
     41 H           2.4650   -2.9294   18.8080 H       1  UNL1        0.1552
     42 C           4.3145   -4.8936   19.2621 C.2     1  UNL1        0.0048
     43 C           4.4732   -3.9617   20.4269 C.2     1  UNL1        0.0580
@<TRIPOS>BOND
     1    42    43    2
     2    43    38    1
     3    38    39    2
     4    38    40   am
     5    40    31    1
     6    31    32   ar
     7    32    33   ar
     8    33    30    1
     9    30     1    1
    10     1     2   ar
    11     2     3   ar
    12     3    13    1
    13    13    15    1
    14    15    16   ar
    15    16    17   ar
    16    17    18   ar
    17    18    21    1
    18    21    22    1
    19    22    23    1
    20    23    24    1
    21    24    25    1
    22    24    26    1
    23    26    27    1
    24    18    19   ar
    25    19    20   ar
    26    20    28    1
    27    28    29    1
    28     3     4   ar
    29     4     5   ar
    30     5     6   ar
    31     6     7    1
    32     7     8    1
    33     8     9    1
    34     9    10    1
    35    10    11    1
    36    11    12    1
    37    33    34   ar
    38    34    35   ar
    39    35    36   ar
    40    36    37    1
    41    36    31   ar
    42     6     1   ar
    43    12     7    1
    44    20    15   ar
    45    27    21    1
    46    40    41    1
    47    13    14    1
