@<TRIPOS>MOLECULE
*****
 30 35 0 0 0
SMALL
GASTEIGER

@<TRIPOS>ATOM
      1 C           8.1988   -7.6090   25.9036 C.3     1  UNL1        0.0493
      2 C           9.3558   -8.3429   26.5141 C.3     1  UNL1        0.0238
      3 C           9.1129   -9.5691   27.3433 C.3     1  UNL1        0.0730
      4 N           7.7129  -10.0615   27.5618 N.3     1  UNL1       -0.2623
      5 C           6.5559   -9.3276   26.9512 C.3     1  UNL1        0.0730
      6 C           6.7988   -8.1014   26.1221 C.3     1  UNL1        0.0238
      7 C           8.2855   -4.7170   23.3163 C.ar    1  UNL1        0.1224
      8 C           9.3458   -4.2749   24.2808 C.ar    1  UNL1        0.0587
      9 S           9.4424   -5.3045   25.3674 S.2     1  UNL1       -0.0701
     10 C           8.4418   -6.3829   25.0745 C.ar    1  UNL1        0.0880
     11 N           7.7267   -6.0197   23.8067 N.ar    1  UNL1       -0.2396
     12 C           7.0610   -1.1415   18.0894 C.ar    1  UNL1        0.0002
     13 C           5.8650   -2.0390   17.9709 C.ar    1  UNL1        0.0031
     14 C           5.6366   -3.1217   18.9835 C.ar    1  UNL1        0.0375
     15 C           6.6041   -3.3070   20.1147 C.ar    1  UNL1        0.1454
     16 O           6.6404   -4.2806   21.2552 O.2     1  UNL1       -0.4520
     17 C           7.8588   -3.9849   22.0786 C.ar    1  UNL1        0.1633
     18 C           8.5756   -2.8285   21.4470 C.ar    1  UNL1        0.0421
     19 C           7.8001   -2.4095   20.2332 C.ar    1  UNL1        0.0376
     20 C           8.0285   -1.3268   19.2206 C.ar    1  UNL1        0.0031
     21 C           7.4699  -11.2876   28.3909 C.3     1  UNL1        0.1976
     22 C           6.1386  -11.9767   28.3386 C.2     1  UNL1        0.3676
     23 N           5.7111  -12.9928   27.3214 N.2     1  UNL1       -0.0320
     24 C           4.3092  -13.4146   27.6484 C.2     1  UNL1        0.2508
     25 C           3.3757  -14.3890   26.9935 C.2     1  UNL1        0.1485
     26 N           2.0032  -14.6080   27.5578 N.2     1  UNL1       -0.2425
     27 C           1.5645  -13.8526   28.7771 C.2     1  UNL1        0.0815
     28 C           2.4980  -12.8782   29.4321 C.3     1  UNL1        0.1247
     29 C           3.8704  -12.6592   28.8678 C.2     1  UNL1        0.2207
     30 N           5.0010  -11.7705   29.2943 N.2     1  UNL1       -0.0374
@<TRIPOS>BOND
     1    12    13   ar
     2    13    14   ar
     3    14    15   ar
     4    15    16   ar
     5    16    17   ar
     6    17     7    1
     7     7     8   ar
     8     8     9   ar
     9     9    10   ar
    10    10     1    1
    11     1     2    1
    12     2     3    1
    13     3     4    1
    14     4    21    1
    15    21    22    1
    16    22    23    2
    17    23    24    1
    18    24    25    2
    19    25    26    1
    20    26    27    2
    21    27    28    1
    22    28    29    1
    23    29    30    2
    24     4     5    1
    25     5     6    1
    26    10    11   ar
    27    17    18   ar
    28    18    19   ar
    29    19    20   ar
    30    20    12   ar
    31    19    15   ar
    32    11     7   ar
    33     6     1    1
    34    30    22    1
    35    29    24    1
@<TRIPOS>MOLECULE
*****
 30 35 0 0 0
SMALL
GASTEIGER

@<TRIPOS>ATOM
      1 C           7.5662   -2.6279   32.3579 C.3     1  UNL1        0.0493
      2 C           6.5342   -3.6662   32.0310 C.3     1  UNL1        0.0238
      3 C           6.9335   -4.9195   31.3098 C.3     1  UNL1        0.0730
      4 N           8.3648   -5.1343   30.9157 N.3     1  UNL1       -0.2623
      5 C           9.3968   -4.0959   31.2426 C.3     1  UNL1        0.0730
      6 C           8.9974   -2.8427   31.9637 C.3     1  UNL1        0.0238
      7 C           5.9714    0.1921   34.4956 C.ar    1  UNL1        0.1224
      8 C           7.1333    0.9156   33.8818 C.ar    1  UNL1        0.0587
      9 S           7.8721   -0.0528   33.0063 S.2     1  UNL1       -0.0701
     10 C           7.1668   -1.3747   33.0790 C.ar    1  UNL1        0.0880
     11 N           5.9920   -1.2233   33.9995 N.ar    1  UNL1       -0.2396
     12 C           1.7768    2.1294   38.9963 C.ar    1  UNL1        0.0002
     13 C           1.5726    3.2829   38.0595 C.ar    1  UNL1        0.0031
     14 C           2.3417    3.3499   36.7734 C.ar    1  UNL1        0.0375
     15 C           3.3150    2.2634   36.4242 C.ar    1  UNL1        0.1454
     16 O           4.2087    2.0600   35.2368 O.2     1  UNL1       -0.4520
     17 C           4.9653    0.7807   35.4397 C.ar    1  UNL1        0.1633
     18 C           4.5392    0.1935   36.7526 C.ar    1  UNL1        0.0421
     19 C           3.5193    1.1099   37.3610 C.ar    1  UNL1        0.0376
     20 C           2.7502    1.0429   38.6471 C.ar    1  UNL1        0.0031
     21 C           8.7641   -6.3875   30.1946 C.3     1  UNL1        0.1976
     22 C           8.6342   -6.4679   28.7024 C.2     1  UNL1        0.3676
     23 N           7.8607   -5.5220   27.8324 N.2     1  UNL1       -0.0320
     24 C           8.0035   -5.9779   26.4105 C.2     1  UNL1        0.2508
     25 C           7.4601   -5.4337   25.1227 C.2     1  UNL1        0.1485
     26 N           7.7786   -6.1172   23.8259 N.2     1  UNL1       -0.2425
     27 C           8.6403   -7.3449   23.8172 C.2     1  UNL1        0.0815
     28 C           9.1837   -7.8891   25.1050 C.3     1  UNL1        0.1247
     29 C           8.8653   -7.2056   26.4017 C.2     1  UNL1        0.2207
     30 N           9.2551   -7.5084   27.8181 N.2     1  UNL1       -0.0374
@<TRIPOS>BOND
     1    12    13   ar
     2    13    14   ar
     3    14    15   ar
     4    15    16   ar
     5    16    17   ar
     6    17     7    1
     7     7     8   ar
     8     8     9   ar
     9     9    10   ar
    10    10     1    1
    11     1     2    1
    12     2     3    1
    13     3     4    1
    14     4    21    1
    15    21    22    1
    16    22    23    2
    17    23    24    1
    18    24    25    2
    19    25    26    1
    20    26    27    2
    21    27    28    1
    22    28    29    1
    23    29    30    2
    24     4     5    1
    25     5     6    1
    26    10    11   ar
    27    17    18   ar
    28    18    19   ar
    29    19    20   ar
    30    20    12   ar
    31    19    15   ar
    32    11     7   ar
    33     6     1    1
    34    30    22    1
    35    29    24    1
@<TRIPOS>MOLECULE
*****
 30 35 0 0 0
SMALL
GASTEIGER

@<TRIPOS>ATOM
      1 C           1.5547    0.5397   19.3644 C.3     1  UNL1        0.0493
      2 C           1.6762   -0.5954   20.3374 C.3     1  UNL1        0.0238
      3 C           2.6979   -1.6704   20.1121 C.3     1  UNL1        0.0730
      4 N           3.5981   -1.6102   18.9137 N.3     1  UNL1       -0.2623
      5 C           3.4766   -0.4750   17.9407 C.3     1  UNL1        0.0730
      6 C           2.4549    0.5999   18.1661 C.3     1  UNL1        0.0238
      7 C          -1.3567    2.8539   20.4747 C.ar    1  UNL1        0.1224
      8 C          -0.7215    3.6835   19.3984 C.ar    1  UNL1        0.0587
      9 S           0.4465    2.9174   18.8515 S.2     1  UNL1       -0.0701
     10 C           0.5331    1.6146   19.5898 C.ar    1  UNL1        0.0880
     11 N          -0.5815    1.5754   20.5931 N.ar    1  UNL1       -0.2396
     12 C          -6.9163    4.4148   23.3486 C.ar    1  UNL1        0.0002
     13 C          -6.0467    4.5564   24.5625 C.ar    1  UNL1        0.0031
     14 C          -4.5727    4.2964   24.4637 C.ar    1  UNL1        0.0375
     15 C          -3.9683    3.8947   23.1509 C.ar    1  UNL1        0.1454
     16 O          -2.5584    3.5751   22.7509 O.2     1  UNL1       -0.4520
     17 C          -2.5567    3.2360   21.2897 C.ar    1  UNL1        0.1633
     18 C          -3.9655    3.3460   20.7867 C.ar    1  UNL1        0.0421
     19 C          -4.8380    3.7531   21.9370 C.ar    1  UNL1        0.0376
     20 C          -6.3119    4.0132   22.0358 C.ar    1  UNL1        0.0031
     21 C           4.6197   -2.6851   18.6883 C.3     1  UNL1        0.1976
     22 C           5.7358   -2.8770   19.6719 C.2     1  UNL1        0.3676
     23 N           6.6142   -1.7971   20.2306 N.2     1  UNL1       -0.0320
     24 C           7.5907   -2.4353   21.1735 C.2     1  UNL1        0.2508
     25 C           8.6947   -1.8644   22.0132 C.2     1  UNL1        0.1485
     26 N           9.5239   -2.7678   22.8771 N.2     1  UNL1       -0.2425
     27 C           9.2490   -4.2422   22.9011 C.2     1  UNL1        0.0815
     28 C           8.1450   -4.8131   22.0614 C.3     1  UNL1        0.1247
     29 C           7.3159   -3.9097   21.1976 C.2     1  UNL1        0.2207
     30 N           6.1695   -4.1827   20.2696 N.2     1  UNL1       -0.0374
@<TRIPOS>BOND
     1    12    13   ar
     2    13    14   ar
     3    14    15   ar
     4    15    16   ar
     5    16    17   ar
     6    17     7    1
     7     7     8   ar
     8     8     9   ar
     9     9    10   ar
    10    10     1    1
    11     1     2    1
    12     2     3    1
    13     3     4    1
    14     4    21    1
    15    21    22    1
    16    22    23    2
    17    23    24    1
    18    24    25    2
    19    25    26    1
    20    26    27    2
    21    27    28    1
    22    28    29    1
    23    29    30    2
    24     4     5    1
    25     5     6    1
    26    10    11   ar
    27    17    18   ar
    28    18    19   ar
    29    19    20   ar
    30    20    12   ar
    31    19    15   ar
    32    11     7   ar
    33     6     1    1
    34    30    22    1
    35    29    24    1
@<TRIPOS>MOLECULE
*****
 30 35 0 0 0
SMALL
GASTEIGER

@<TRIPOS>ATOM
      1 C           7.6611   -4.7107   26.8593 C.3     1  UNL1        0.0493
      2 C           7.3962   -5.9639   26.0786 C.3     1  UNL1        0.0238
      3 C           7.7017   -6.0118   24.6108 C.3     1  UNL1        0.0730
      4 N           8.2721   -4.8066   23.9236 N.3     1  UNL1       -0.2623
      5 C           8.5370   -3.5534   24.7044 C.3     1  UNL1        0.0730
      6 C           8.2315   -3.5055   26.1721 C.3     1  UNL1        0.0238
      7 C           6.8173   -3.8431   30.5471 C.ar    1  UNL1        0.1224
      8 C           6.9539   -5.3349   30.6243 C.ar    1  UNL1        0.0587
      9 S           7.2866   -5.8415   29.2521 S.2     1  UNL1       -0.0701
     10 C           7.3557   -4.6628   28.3270 C.ar    1  UNL1        0.0880
     11 N           7.0656   -3.4277   29.1274 N.ar    1  UNL1       -0.2396
     12 C           6.1270    0.3146   35.4299 C.ar    1  UNL1        0.0002
     13 C           4.7108   -0.1796   35.4201 C.ar    1  UNL1        0.0031
     14 C           4.2863   -1.2197   34.4261 C.ar    1  UNL1        0.0375
     15 C           5.2779   -1.7656   33.4419 C.ar    1  UNL1        0.1454
     16 O           5.1517   -2.7891   32.3527 O.2     1  UNL1       -0.4520
     17 C           6.4899   -2.9275   31.6892 C.ar    1  UNL1        0.1633
     18 C           7.4432   -1.9894   32.3685 C.ar    1  UNL1        0.0421
     19 C           6.6941   -1.2713   33.4517 C.ar    1  UNL1        0.0376
     20 C           7.1186   -0.2313   34.4457 C.ar    1  UNL1        0.0031
     21 C           8.5775   -4.8545   22.4559 C.3     1  UNL1        0.1976
     22 C           7.6196   -4.2534   21.4705 C.2     1  UNL1        0.3676
     23 N           7.9903   -3.5112   20.2208 N.2     1  UNL1       -0.0320
     24 C           6.7226   -3.0881   19.5397 C.2     1  UNL1        0.2508
     25 C           6.4700   -2.3272   18.2720 C.2     1  UNL1        0.1485
     26 N           5.0633   -2.0470   17.8330 N.2     1  UNL1       -0.2425
     27 C           3.9093   -2.5277   18.6617 C.2     1  UNL1        0.0815
     28 C           4.1618   -3.2886   19.9294 C.3     1  UNL1        0.1247
     29 C           5.5684   -3.5688   20.3684 C.2     1  UNL1        0.2207
     30 N           6.1228   -4.2890   21.5617 N.2     1  UNL1       -0.0374
@<TRIPOS>BOND
     1    12    13   ar
     2    13    14   ar
     3    14    15   ar
     4    15    16   ar
     5    16    17   ar
     6    17     7    1
     7     7     8   ar
     8     8     9   ar
     9     9    10   ar
    10    10     1    1
    11     1     2    1
    12     2     3    1
    13     3     4    1
    14     4    21    1
    15    21    22    1
    16    22    23    2
    17    23    24    1
    18    24    25    2
    19    25    26    1
    20    26    27    2
    21    27    28    1
    22    28    29    1
    23    29    30    2
    24     4     5    1
    25     5     6    1
    26    10    11   ar
    27    17    18   ar
    28    18    19   ar
    29    19    20   ar
    30    20    12   ar
    31    19    15   ar
    32    11     7   ar
    33     6     1    1
    34    30    22    1
    35    29    24    1
@<TRIPOS>MOLECULE
*****
 30 35 0 0 0
SMALL
GASTEIGER

@<TRIPOS>ATOM
      1 C           2.1216   -0.4231   20.1744 C.3     1  UNL1        0.0493
      2 C           1.3072    0.0979   21.3213 C.3     1  UNL1        0.0238
      3 C           0.3301    1.2146   21.1011 C.3     1  UNL1        0.0730
      4 N           0.1675    1.8103   19.7341 N.3     1  UNL1       -0.2623
      5 C           0.9820    1.2893   18.5872 C.3     1  UNL1        0.0730
      6 C           1.9591    0.1726   18.8074 C.3     1  UNL1        0.0238
      7 C           4.7052   -3.0285   21.4400 C.ar    1  UNL1        0.1224
      8 C           4.4991   -3.4876   20.0269 C.ar    1  UNL1        0.0587
      9 S           3.5061   -2.5674   19.3809 S.2     1  UNL1       -0.0701
     10 C           3.0986   -1.5397   20.3946 C.ar    1  UNL1        0.0880
     11 N           3.8398   -1.8247   21.6673 N.ar    1  UNL1       -0.2396
     12 C           8.2549   -5.3557   26.2967 C.ar    1  UNL1        0.0002
     13 C           8.9423   -6.1133   25.1997 C.ar    1  UNL1        0.0031
     14 C           8.4965   -5.9434   23.7776 C.ar    1  UNL1        0.0375
     15 C           7.3634   -5.0159   23.4525 C.ar    1  UNL1        0.1454
     16 O           6.7088   -4.6475   22.1542 O.2     1  UNL1       -0.4520
     17 C           5.6168   -3.6621   22.4488 C.ar    1  UNL1        0.1633
     18 C           5.5965   -3.4216   23.9292 C.ar    1  UNL1        0.0421
     19 C           6.6760   -4.2584   24.5496 C.ar    1  UNL1        0.0376
     20 C           7.1218   -4.4282   25.9717 C.ar    1  UNL1        0.0031
     21 C          -0.8095    2.9269   19.5139 C.3     1  UNL1        0.1976
     22 C          -1.7737    3.3047   20.5991 C.2     1  UNL1        0.3676
     23 N          -3.1897    2.8264   20.7263 N.2     1  UNL1       -0.0320
     24 C          -3.7822    3.4533   21.9535 C.2     1  UNL1        0.2508
     25 C          -5.1420    3.3477   22.5777 C.2     1  UNL1        0.1485
     26 N          -5.4521    4.1078   23.8331 N.2     1  UNL1       -0.2425
     27 C          -4.4023    4.9735   24.4643 C.2     1  UNL1        0.0815
     28 C          -3.0425    5.0791   23.8401 C.3     1  UNL1        0.1247
     29 C          -2.7324    4.3191   22.5847 C.2     1  UNL1        0.2207
     30 N          -1.4911    4.2272   21.7476 N.2     1  UNL1       -0.0374
@<TRIPOS>BOND
     1    12    13   ar
     2    13    14   ar
     3    14    15   ar
     4    15    16   ar
     5    16    17   ar
     6    17     7    1
     7     7     8   ar
     8     8     9   ar
     9     9    10   ar
    10    10     1    1
    11     1     2    1
    12     2     3    1
    13     3     4    1
    14     4    21    1
    15    21    22    1
    16    22    23    2
    17    23    24    1
    18    24    25    2
    19    25    26    1
    20    26    27    2
    21    27    28    1
    22    28    29    1
    23    29    30    2
    24     4     5    1
    25     5     6    1
    26    10    11   ar
    27    17    18   ar
    28    18    19   ar
    29    19    20   ar
    30    20    12   ar
    31    19    15   ar
    32    11     7   ar
    33     6     1    1
    34    30    22    1
    35    29    24    1
@<TRIPOS>MOLECULE
*****
 30 35 0 0 0
SMALL
GASTEIGER

@<TRIPOS>ATOM
      1 C         -15.3769    0.5634   19.0888 C.3     1  UNL1        0.0493
      2 C         -16.3785    0.0920   20.1010 C.3     1  UNL1        0.0238
      3 C         -17.1996    1.0888   20.8643 C.3     1  UNL1        0.0730
      4 N         -17.0190    2.5569   20.6153 N.3     1  UNL1       -0.2623
      5 C         -16.0173    3.0283   19.6030 C.3     1  UNL1        0.0730
      6 C         -15.1963    2.0316   18.8398 C.3     1  UNL1        0.0238
      7 C         -13.1840   -2.3598   17.7809 C.ar    1  UNL1        0.1224
      8 C         -13.4010   -1.5744   16.5215 C.ar    1  UNL1        0.0587
      9 S         -14.2490   -0.3836   16.8583 S.2     1  UNL1       -0.0701
     10 C         -14.5559   -0.4333   18.3256 C.ar    1  UNL1        0.0880
     11 N         -13.8977   -1.6547   18.8959 N.ar    1  UNL1       -0.2396
     12 C          -9.3833   -7.4620   18.8423 C.ar    1  UNL1        0.0002
     13 C         -10.2215   -8.0893   17.7682 C.ar    1  UNL1        0.0031
     14 C         -11.3263   -7.3048   17.1248 C.ar    1  UNL1        0.0375
     15 C         -11.5929   -5.8930   17.5555 C.ar    1  UNL1        0.1454
     16 O         -12.6050   -4.8808   17.1068 O.2     1  UNL1       -0.4520
     17 C         -12.3922   -3.6279   17.9037 C.ar    1  UNL1        0.1633
     18 C         -11.2487   -3.8657   18.8448 C.ar    1  UNL1        0.0421
     19 C         -10.7547   -5.2656   18.6296 C.ar    1  UNL1        0.0376
     20 C          -9.6499   -6.0501   19.2730 C.ar    1  UNL1        0.0031
     21 C         -17.8400    3.5536   21.3785 C.3     1  UNL1        0.1976
     22 C         -17.3693    4.0469   22.7146 C.2     1  UNL1        0.3676
     23 N         -18.1977    4.7859   23.7234 N.2     1  UNL1       -0.0320
     24 C         -17.3279    5.0834   24.9088 C.2     1  UNL1        0.2508
     25 C         -17.6032    5.7881   26.2039 C.2     1  UNL1        0.1485
     26 N         -16.5127    5.9377   27.2230 N.2     1  UNL1       -0.2425
     27 C         -15.1470    5.3825   26.9467 C.2     1  UNL1        0.0815
     28 C         -14.8717    4.6778   25.6515 C.3     1  UNL1        0.1247
     29 C         -15.9621    4.5283   24.6326 C.2     1  UNL1        0.2207
     30 N         -15.9877    3.8876   23.2765 N.2     1  UNL1       -0.0374
@<TRIPOS>BOND
     1    12    13   ar
     2    13    14   ar
     3    14    15   ar
     4    15    16   ar
     5    16    17   ar
     6    17     7    1
     7     7     8   ar
     8     8     9   ar
     9     9    10   ar
    10    10     1    1
    11     1     2    1
    12     2     3    1
    13     3     4    1
    14     4    21    1
    15    21    22    1
    16    22    23    2
    17    23    24    1
    18    24    25    2
    19    25    26    1
    20    26    27    2
    21    27    28    1
    22    28    29    1
    23    29    30    2
    24     4     5    1
    25     5     6    1
    26    10    11   ar
    27    17    18   ar
    28    18    19   ar
    29    19    20   ar
    30    20    12   ar
    31    19    15   ar
    32    11     7   ar
    33     6     1    1
    34    30    22    1
    35    29    24    1
@<TRIPOS>MOLECULE
*****
 30 35 0 0 0
SMALL
GASTEIGER

@<TRIPOS>ATOM
      1 C           6.9169   -4.5200   27.0717 C.3     1  UNL1        0.0493
      2 C           7.2516   -5.7749   27.8221 C.3     1  UNL1        0.0238
      3 C           7.2357   -5.7788   29.3221 C.3     1  UNL1        0.0730
      4 N           6.8851   -4.5276   30.0716 N.3     1  UNL1       -0.2623
      5 C           6.5504   -3.2727   29.3211 C.3     1  UNL1        0.0730
      6 C           6.5662   -3.2689   27.8212 C.3     1  UNL1        0.0238
      7 C           6.4340   -3.9730   23.2596 C.ar    1  UNL1        0.1224
      8 C           7.4803   -5.0477   23.2678 C.ar    1  UNL1        0.0587
      9 S           7.7886   -5.3834   24.6970 S.2     1  UNL1       -0.0701
     10 C           6.9327   -4.5162   25.5718 C.ar    1  UNL1        0.0880
     11 N           6.0955   -3.6444   24.6834 N.ar    1  UNL1       -0.2396
     12 C           3.2869   -1.0147   18.4691 C.ar    1  UNL1        0.0002
     13 C           4.4373   -1.5089   17.6430 C.ar    1  UNL1        0.0031
     14 C           5.5340   -2.3057   18.2851 C.ar    1  UNL1        0.0375
     15 C           5.4803   -2.6084   19.7533 C.ar    1  UNL1        0.1454
     16 O           6.4085   -3.3648   20.6567 O.2     1  UNL1       -0.4520
     17 C           5.8318   -3.3381   22.0412 C.ar    1  UNL1        0.1633
     18 C           4.5471   -2.5652   21.9934 C.ar    1  UNL1        0.0421
     19 C           4.3300   -2.1142   20.5793 C.ar    1  UNL1        0.0376
     20 C           3.2333   -1.3173   19.9372 C.ar    1  UNL1        0.0031
     21 C           6.8692   -4.5314   31.5715 C.3     1  UNL1        0.1976
     22 C           6.5566   -3.2705   32.3214 C.2     1  UNL1        0.3676
     23 N           7.5238   -2.1671   32.6329 N.2     1  UNL1       -0.0320
     24 C           6.7868   -1.1063   33.3955 C.2     1  UNL1        0.2508
     25 C           7.2274    0.2095   33.9651 C.2     1  UNL1        0.1485
     26 N           6.2453    1.0777   34.6944 N.2     1  UNL1       -0.2425
     27 C           4.8227    0.6299   34.8541 C.2     1  UNL1        0.0815
     28 C           4.3821   -0.6860   34.2845 C.3     1  UNL1        0.1247
     29 C           5.3642   -1.5540   33.5553 C.2     1  UNL1        0.2207
     30 N           5.2219   -2.8916   32.8914 N.2     1  UNL1       -0.0374
@<TRIPOS>BOND
     1    12    13   ar
     2    13    14   ar
     3    14    15   ar
     4    15    16   ar
     5    16    17   ar
     6    17     7    1
     7     7     8   ar
     8     8     9   ar
     9     9    10   ar
    10    10     1    1
    11     1     2    1
    12     2     3    1
    13     3     4    1
    14     4    21    1
    15    21    22    1
    16    22    23    2
    17    23    24    1
    18    24    25    2
    19    25    26    1
    20    26    27    2
    21    27    28    1
    22    28    29    1
    23    29    30    2
    24     4     5    1
    25     5     6    1
    26    10    11   ar
    27    17    18   ar
    28    18    19   ar
    29    19    20   ar
    30    20    12   ar
    31    19    15   ar
    32    11     7   ar
    33     6     1    1
    34    30    22    1
    35    29    24    1
@<TRIPOS>MOLECULE
*****
 30 35 0 0 0
SMALL
GASTEIGER

@<TRIPOS>ATOM
      1 C           1.2241    1.0408   25.7193 C.3     1  UNL1        0.0493
      2 C           0.1791    1.7202   24.8848 C.3     1  UNL1        0.0238
      3 C           0.3349    1.7851   23.3943 C.3     1  UNL1        0.0730
      4 N           1.5358    1.1706   22.7383 N.3     1  UNL1       -0.2623
      5 C           2.5809    0.4912   23.5729 C.3     1  UNL1        0.0730
      6 C           2.4250    0.4263   25.0633 C.3     1  UNL1        0.0238
      7 C           1.5617    0.7355   29.5738 C.ar    1  UNL1        0.1224
      8 C           0.0950    1.0167   29.4328 C.ar    1  UNL1        0.0587
      9 S          -0.2099    1.1653   27.9716 S.2     1  UNL1       -0.0701
     10 C           1.0682    0.9759   27.2097 C.ar    1  UNL1        0.0880
     11 N           2.1632    0.7103   28.2001 N.ar    1  UNL1       -0.2396
     12 C           4.5937    0.5235   35.2630 C.ar    1  UNL1        0.0002
     13 C           4.8165   -0.9130   34.8930 C.ar    1  UNL1        0.0031
     14 C           4.2905   -1.4426   33.5919 C.ar    1  UNL1        0.0375
     15 C           3.5417   -0.5357   32.6608 C.ar    1  UNL1        0.1454
     16 O           2.9106   -0.7725   31.3208 O.2     1  UNL1       -0.4520
     17 C           2.2977    0.5177   30.8627 C.ar    1  UNL1        0.1633
     18 C           2.5501    1.5518   31.9195 C.ar    1  UNL1        0.0421
     19 C           3.3189    0.9007   33.0308 C.ar    1  UNL1        0.0376
     20 C           3.8449    1.4303   34.3319 C.ar    1  UNL1        0.0031
     21 C           1.6917    1.2354   21.2478 C.3     1  UNL1        0.1976
     22 C           2.4940    0.1899   20.5315 C.2     1  UNL1        0.3676
     23 N           3.6792    0.4405   19.6469 N.2     1  UNL1       -0.0320
     24 C           4.1696   -0.8844   19.1427 C.2     1  UNL1        0.2508
     25 C           5.3054   -1.2552   18.2358 C.2     1  UNL1        0.1485
     26 N           5.5591   -2.6954   17.9019 N.2     1  UNL1       -0.2425
     27 C           4.6770   -3.7647   18.4748 C.2     1  UNL1        0.0815
     28 C           3.5412   -3.3939   19.3816 C.3     1  UNL1        0.1247
     29 C           3.2875   -1.9538   19.7156 C.2     1  UNL1        0.2207
     30 N           2.2519   -1.2898   20.5739 N.2     1  UNL1       -0.0374
@<TRIPOS>BOND
     1    12    13   ar
     2    13    14   ar
     3    14    15   ar
     4    15    16   ar
     5    16    17   ar
     6    17     7    1
     7     7     8   ar
     8     8     9   ar
     9     9    10   ar
    10    10     1    1
    11     1     2    1
    12     2     3    1
    13     3     4    1
    14     4    21    1
    15    21    22    1
    16    22    23    2
    17    23    24    1
    18    24    25    2
    19    25    26    1
    20    26    27    2
    21    27    28    1
    22    28    29    1
    23    29    30    2
    24     4     5    1
    25     5     6    1
    26    10    11   ar
    27    17    18   ar
    28    18    19   ar
    29    19    20   ar
    30    20    12   ar
    31    19    15   ar
    32    11     7   ar
    33     6     1    1
    34    30    22    1
    35    29    24    1
@<TRIPOS>MOLECULE
*****
 30 35 0 0 0
SMALL
GASTEIGER

@<TRIPOS>ATOM
      1 C           0.6673    1.9491   26.4640 C.3     1  UNL1        0.0493
      2 C           1.6196    2.8642   27.1751 C.3     1  UNL1        0.0238
      3 C           1.6005    2.9499   28.6726 C.3     1  UNL1        0.0730
      4 N           0.6291    2.1204   29.4589 N.3     1  UNL1       -0.2623
      5 C          -0.3233    1.2053   28.7478 C.3     1  UNL1        0.0730
      6 C          -0.3041    1.1196   27.2503 C.3     1  UNL1        0.0238
      7 C           1.2643    1.2213   22.6985 C.ar    1  UNL1        0.1224
      8 C           0.1675    2.2420   22.6260 C.ar    1  UNL1        0.0587
      9 S          -0.1896    2.6388   24.0279 S.2     1  UNL1       -0.0701
     10 C           0.6864    1.8634   24.9666 C.ar    1  UNL1        0.0880
     11 N           1.5850    0.9873   24.1449 N.ar    1  UNL1       -0.2396
     12 C           4.2415   -2.2313   18.1356 C.ar    1  UNL1        0.0002
     13 C           3.9261   -1.0426   17.2769 C.ar    1  UNL1        0.0031
     14 C           3.1966    0.1313   17.8598 C.ar    1  UNL1        0.0375
     15 C           2.7826    0.1165   19.3015 C.ar    1  UNL1        0.1454
     16 O           2.0573    1.1203   20.1478 O.2     1  UNL1       -0.4520
     17 C           1.9245    0.5520   21.5296 C.ar    1  UNL1        0.1633
     18 C           2.5677   -0.8031   21.5373 C.ar    1  UNL1        0.0421
     19 C           3.0981   -1.0722   20.1602 C.ar    1  UNL1        0.0376
     20 C           3.8275   -2.2461   19.5773 C.ar    1  UNL1        0.0031
     21 C           0.6100    2.2061   30.9563 C.3     1  UNL1        0.1976
     22 C           1.6786    1.5265   31.7601 C.2     1  UNL1        0.3676
     23 N           2.2216    1.9931   33.0782 N.2     1  UNL1       -0.0320
     24 C           3.2705    1.0159   33.5196 C.2     1  UNL1        0.2508
     25 C           4.1433    0.9626   34.7383 C.2     1  UNL1        0.1485
     26 N           5.1215   -0.1613   34.9117 N.2     1  UNL1       -0.2425
     27 C           5.2267   -1.2319   33.8665 C.2     1  UNL1        0.0815
     28 C           4.3539   -1.1786   32.6477 C.3     1  UNL1        0.1247
     29 C           3.3758   -0.0548   32.4743 C.2     1  UNL1        0.2207
     30 N           2.3920    0.2608   31.3869 N.2     1  UNL1       -0.0374
@<TRIPOS>BOND
     1    12    13   ar
     2    13    14   ar
     3    14    15   ar
     4    15    16   ar
     5    16    17   ar
     6    17     7    1
     7     7     8   ar
     8     8     9   ar
     9     9    10   ar
    10    10     1    1
    11     1     2    1
    12     2     3    1
    13     3     4    1
    14     4    21    1
    15    21    22    1
    16    22    23    2
    17    23    24    1
    18    24    25    2
    19    25    26    1
    20    26    27    2
    21    27    28    1
    22    28    29    1
    23    29    30    2
    24     4     5    1
    25     5     6    1
    26    10    11   ar
    27    17    18   ar
    28    18    19   ar
    29    19    20   ar
    30    20    12   ar
    31    19    15   ar
    32    11     7   ar
    33     6     1    1
    34    30    22    1
    35    29    24    1
