@<TRIPOS>MOLECULE
*****
 33 34 0 0 0
SMALL
GASTEIGER

@<TRIPOS>ATOM
      1 C          -8.2308  -17.0143   23.8692 C.3     1  UNL1        0.0197
      2 C          -8.5730  -15.5748   24.1155 C.3     1  UNL1        0.0187
      3 C          -7.4964  -14.6027   24.4975 C.3     1  UNL1        0.0722
      4 N          -6.2273  -15.0977   25.1255 N.3     1  UNL1       -0.2712
      5 C          -6.1500  -15.2868   26.6116 C.3     1  UNL1        0.0896
      6 C          -5.0356  -15.4035   24.2675 C.3     1  UNL1        0.0768
      7 C          -4.5058  -16.8047   24.1916 C.3     1  UNL1        0.0438
      8 C          -1.9982  -18.0750   20.6776 C.ar    1  UNL1        0.1724
      9 C          -1.9149  -16.6672   21.1886 C.ar    1  UNL1        0.0397
     10 C          -2.7508  -16.2438   22.3599 C.ar    1  UNL1       -0.0009
     11 C          -3.6700  -17.2282   23.0203 C.ar    1  UNL1       -0.0176
     12 C          -3.7533  -18.6359   22.5093 C.ar    1  UNL1        0.0358
     13 C          -2.9174  -19.0594   21.3379 C.ar    1  UNL1        0.1721
     14 C          -1.4357  -17.9300   18.1453 C.3     1  UNL1        0.2526
     15 O          -1.1624  -18.4984   19.5062 O.3     1  UNL1       -0.4684
     16 O          -3.0008  -20.4672   20.8269 O.3     1  UNL1       -0.4684
     17 C          -4.0004  -20.8222   19.7664 C.3     1  UNL1        0.2526
     18 C          -9.2332  -18.0869   24.1771 C.3     1  UNL1        0.0981
     19 C          -9.2751  -18.4643   22.7260 C.ar    1  UNL1       -0.0065
     20 C          -8.2464  -19.4005   22.1645 C.ar    1  UNL1        0.0000
     21 C          -8.2883  -19.7779   20.7134 C.ar    1  UNL1        0.0398
     22 C          -9.3589  -19.2190   19.8237 C.ar    1  UNL1        0.1724
     23 C         -10.3875  -18.2828   20.3851 C.ar    1  UNL1        0.1721
     24 C         -10.3456  -17.9054   21.8363 C.ar    1  UNL1        0.0367
     25 O          -9.4007  -19.5964   18.3725 O.3     1  UNL1       -0.4684
     26 C          -9.0667  -20.9969   17.9519 C.3     1  UNL1        0.2526
     27 O         -11.4581  -17.7239   19.4954 O.3     1  UNL1       -0.4684
     28 C         -11.7793  -16.2593   19.5373 C.3     1  UNL1        0.2526
     29 C         -10.2357  -19.1594   24.4850 C.3     1  UNL1        0.0169
     30 C          -9.7869  -20.5816   24.6454 C.3     1  UNL1        0.0014
     31 C         -11.6869  -18.8096   24.6324 C.3     1  UNL1        0.0014
     32 C          -9.1914  -17.7095   25.6282 C.1     1  UNL1        0.0752
     33 N          -9.1495  -17.3321   27.0794 N.1     1  UNL1       -0.1956
@<TRIPOS>BOND
     1    14    15    1
     2    15     8    1
     3     8     9   ar
     4     9    10   ar
     5    10    11   ar
     6    11     7    1
     7     7     6    1
     8     6     4    1
     9     4     5    1
    10     4     3    1
    11     3     2    1
    12     2     1    1
    13     1    18    1
    14    18    32    1
    15    32    33    3
    16    18    19    1
    17    19    20   ar
    18    20    21   ar
    19    21    22   ar
    20    22    25    1
    21    25    26    1
    22    22    23   ar
    23    23    27    1
    24    27    28    1
    25    23    24   ar
    26    18    29    1
    27    29    30    1
    28    29    31    1
    29    11    12   ar
    30    12    13   ar
    31    13    16    1
    32    16    17    1
    33    13     8   ar
    34    24    19   ar
@<TRIPOS>MOLECULE
*****
 33 34 0 0 0
SMALL
GASTEIGER

@<TRIPOS>ATOM
      1 C          -8.2949  -17.0925   23.6799 C.3     1  UNL1        0.0197
      2 C          -8.5315  -15.6984   24.1801 C.3     1  UNL1        0.0187
      3 C          -7.3701  -14.7790   24.4162 C.3     1  UNL1        0.0722
      4 N          -6.2469  -15.2049   25.3145 N.3     1  UNL1       -0.2712
      5 C          -6.4294  -15.1874   26.8033 C.3     1  UNL1        0.0896
      6 C          -4.9412  -15.6484   24.7242 C.3     1  UNL1        0.0768
      7 C          -4.8170  -17.0159   24.1206 C.3     1  UNL1        0.0438
      8 C          -1.7076  -17.8089   20.9658 C.ar    1  UNL1        0.1724
      9 C          -1.9667  -16.4055   21.4274 C.ar    1  UNL1        0.0397
     10 C          -3.0032  -16.1411   22.4790 C.ar    1  UNL1       -0.0009
     11 C          -3.7805  -17.2802   23.0690 C.ar    1  UNL1       -0.0176
     12 C          -3.5214  -18.6837   22.6074 C.ar    1  UNL1        0.0358
     13 C          -2.4849  -18.9480   21.5558 C.ar    1  UNL1        0.1721
     14 C           0.7081  -17.5019   20.0601 C.3     1  UNL1        0.2526
     15 O          -0.6711  -18.0733   19.9142 O.3     1  UNL1       -0.4684
     16 O          -2.2258  -20.3516   21.0942 O.3     1  UNL1       -0.4684
     17 C          -3.0383  -20.9356   19.9767 C.3     1  UNL1        0.2526
     18 C          -9.2757  -18.1811   24.0009 C.3     1  UNL1        0.0981
     19 C          -9.2723  -18.6082   22.5630 C.ar    1  UNL1       -0.0065
     20 C         -10.5500  -18.6069   21.7773 C.ar    1  UNL1        0.0000
     21 C         -10.5467  -19.0340   20.3394 C.ar    1  UNL1        0.0398
     22 C          -9.2657  -19.4623   19.6872 C.ar    1  UNL1        0.1724
     23 C          -7.9880  -19.4636   20.4729 C.ar    1  UNL1        0.1721
     24 C          -7.9913  -19.0365   21.9108 C.ar    1  UNL1        0.0367
     25 O          -9.2623  -19.8894   18.2492 O.3     1  UNL1       -0.4684
     26 C          -9.0183  -21.3261   17.8941 C.3     1  UNL1        0.2526
     27 O          -6.7068  -19.8920   19.8207 O.3     1  UNL1       -0.4684
     28 C          -5.6064  -18.8961   19.6032 C.3     1  UNL1        0.2526
     29 C         -10.2564  -19.2697   24.3220 C.3     1  UNL1        0.0169
     30 C         -11.6966  -18.9323   24.5706 C.3     1  UNL1        0.0014
     31 C          -9.7969  -20.6958   24.3944 C.3     1  UNL1        0.0014
     32 C          -9.2790  -17.7541   25.4388 C.1     1  UNL1        0.0752
     33 N          -9.2823  -17.3270   26.8768 N.1     1  UNL1       -0.1956
@<TRIPOS>BOND
     1    14    15    1
     2    15     8    1
     3     8     9   ar
     4     9    10   ar
     5    10    11   ar
     6    11     7    1
     7     7     6    1
     8     6     4    1
     9     4     5    1
    10     4     3    1
    11     3     2    1
    12     2     1    1
    13     1    18    1
    14    18    32    1
    15    32    33    3
    16    18    19    1
    17    19    20   ar
    18    20    21   ar
    19    21    22   ar
    20    22    25    1
    21    25    26    1
    22    22    23   ar
    23    23    27    1
    24    27    28    1
    25    23    24   ar
    26    18    29    1
    27    29    30    1
    28    29    31    1
    29    11    12   ar
    30    12    13   ar
    31    13    16    1
    32    16    17    1
    33    13     8   ar
    34    24    19   ar
@<TRIPOS>MOLECULE
*****
 33 34 0 0 0
SMALL
GASTEIGER

@<TRIPOS>ATOM
      1 C         -12.7142   -5.7658   19.7435 C.3     1  UNL1        0.0197
      2 C         -13.6786   -4.6294   19.9115 C.3     1  UNL1        0.0187
      3 C         -13.1663   -3.2403   20.1525 C.3     1  UNL1        0.0722
      4 N         -13.0151   -2.2870   19.0044 N.3     1  UNL1       -0.2712
      5 C         -11.6907   -1.6333   18.7418 C.3     1  UNL1        0.0896
      6 C         -14.1881   -1.9873   18.1189 C.3     1  UNL1        0.0768
      7 C         -15.4589   -1.4552   18.7120 C.3     1  UNL1        0.0438
      8 C         -18.8132   -4.2723   19.7428 C.ar    1  UNL1        0.1724
      9 C         -17.7433   -4.6997   18.7823 C.ar    1  UNL1        0.0397
     10 C         -16.6252   -3.7606   18.4387 C.ar    1  UNL1       -0.0009
     11 C         -16.5770   -2.3942   19.0556 C.ar    1  UNL1       -0.0176
     12 C         -17.6469   -1.9669   20.0162 C.ar    1  UNL1        0.0358
     13 C         -18.7650   -2.9060   20.3598 C.ar    1  UNL1        0.1721
     14 C         -19.8332   -6.6617   19.7163 C.3     1  UNL1        0.2526
     15 O         -19.9313   -5.2114   20.0864 O.3     1  UNL1       -0.4684
     16 O         -19.8349   -2.4786   21.3204 O.3     1  UNL1       -0.4684
     17 C         -20.4638   -1.1232   21.1881 C.3     1  UNL1        0.2526
     18 C         -12.1168   -6.0497   18.3972 C.3     1  UNL1        0.0981
     19 C         -13.4201   -6.6372   17.9428 C.ar    1  UNL1       -0.0065
     20 C         -14.1930   -5.9821   16.8367 C.ar    1  UNL1        0.0000
     21 C         -15.4962   -6.5695   16.3823 C.ar    1  UNL1        0.0398
     22 C         -16.0265   -7.8121   17.0340 C.ar    1  UNL1        0.1724
     23 C         -15.2537   -8.4672   18.1400 C.ar    1  UNL1        0.1721
     24 C         -13.9504   -7.8798   18.5944 C.ar    1  UNL1        0.0367
     25 O         -17.3298   -8.3996   16.5796 O.3     1  UNL1       -0.4684
     26 C         -18.4819   -7.4994   16.2444 C.3     1  UNL1        0.2526
     27 O         -15.7840   -9.7098   18.7918 O.3     1  UNL1       -0.4684
     28 C         -16.8816   -9.6130   19.8095 C.3     1  UNL1        0.2526
     29 C         -11.5195   -6.3336   17.0508 C.3     1  UNL1        0.0169
     30 C         -11.2014   -5.2030   16.1179 C.3     1  UNL1        0.0014
     31 C         -11.2401   -7.7483   16.6375 C.3     1  UNL1        0.0014
     32 C         -10.8136   -5.4623   18.8515 C.1     1  UNL1        0.0752
     33 N          -9.5104   -4.8748   19.3059 N.1     1  UNL1       -0.1956
@<TRIPOS>BOND
     1    14    15    1
     2    15     8    1
     3     8     9   ar
     4     9    10   ar
     5    10    11   ar
     6    11     7    1
     7     7     6    1
     8     6     4    1
     9     4     5    1
    10     4     3    1
    11     3     2    1
    12     2     1    1
    13     1    18    1
    14    18    32    1
    15    32    33    3
    16    18    19    1
    17    19    20   ar
    18    20    21   ar
    19    21    22   ar
    20    22    25    1
    21    25    26    1
    22    22    23   ar
    23    23    27    1
    24    27    28    1
    25    23    24   ar
    26    18    29    1
    27    29    30    1
    28    29    31    1
    29    11    12   ar
    30    12    13   ar
    31    13    16    1
    32    16    17    1
    33    13     8   ar
    34    24    19   ar
@<TRIPOS>MOLECULE
*****
 33 34 0 0 0
SMALL
GASTEIGER

@<TRIPOS>ATOM
      1 C           6.3108   -1.5638   19.0158 C.3     1  UNL1        0.0197
      2 C           6.6617   -0.2029   19.5400 C.3     1  UNL1        0.0187
      3 C           7.2902    0.8117   18.6314 C.3     1  UNL1        0.0722
      4 N           6.4307    1.6377   17.7211 N.3     1  UNL1       -0.2712
      5 C           6.6319    1.5724   16.2360 C.3     1  UNL1        0.0896
      6 C           5.3699    2.5291   18.2957 C.3     1  UNL1        0.0768
      7 C           3.9267    2.1292   18.2095 C.3     1  UNL1        0.0438
      8 C           1.5945    1.2967   21.9669 C.ar    1  UNL1        0.1724
      9 C           3.0940    1.2756   21.9948 C.ar    1  UNL1        0.0397
     10 C           3.8714    1.5531   20.7423 C.ar    1  UNL1       -0.0009
     11 C           3.1493    1.8517   19.4620 C.ar    1  UNL1       -0.0176
     12 C           1.6497    1.8729   19.4341 C.ar    1  UNL1        0.0358
     13 C           0.8723    1.5954   20.6865 C.ar    1  UNL1        0.1721
     14 C           1.5033    1.0597   24.5525 C.3     1  UNL1        0.2526
     15 O           0.8171    1.0192   23.2193 O.3     1  UNL1       -0.4684
     16 O          -0.6273    1.6165   20.6586 O.3     1  UNL1       -0.4684
     17 C          -1.3594    2.9255   20.6774 C.3     1  UNL1        0.2526
     18 C           4.9220   -2.1014   19.1951 C.3     1  UNL1        0.0981
     19 C           5.3031   -2.6362   20.5438 C.ar    1  UNL1       -0.0065
     20 C           4.5985   -2.1430   21.7726 C.ar    1  UNL1        0.0000
     21 C           4.9796   -2.6778   23.1213 C.ar    1  UNL1        0.0398
     22 C           6.0654   -3.7057   23.2410 C.ar    1  UNL1        0.1724
     23 C           6.7701   -4.1988   22.0122 C.ar    1  UNL1        0.1721
     24 C           6.3890   -3.6641   20.6635 C.ar    1  UNL1        0.0367
     25 O           6.4465   -4.2404   24.5897 O.3     1  UNL1       -0.4684
     26 C           7.6207   -3.6613   25.3216 C.3     1  UNL1        0.2526
     27 O           7.8559   -5.2268   22.1319 O.3     1  UNL1       -0.4684
     28 C           9.1955   -4.9793   21.5040 C.3     1  UNL1        0.2526
     29 C           3.5332   -2.6391   19.3744 C.3     1  UNL1        0.0169
     30 C           2.4172   -1.7175   19.7680 C.3     1  UNL1        0.0014
     31 C           3.2605   -4.0985   19.1601 C.3     1  UNL1        0.0014
     32 C           4.5409   -1.5667   17.8465 C.1     1  UNL1        0.0752
     33 N           4.1598   -1.0320   16.4979 N.1     1  UNL1       -0.1956
@<TRIPOS>BOND
     1    14    15    1
     2    15     8    1
     3     8     9   ar
     4     9    10   ar
     5    10    11   ar
     6    11     7    1
     7     7     6    1
     8     6     4    1
     9     4     5    1
    10     4     3    1
    11     3     2    1
    12     2     1    1
    13     1    18    1
    14    18    32    1
    15    32    33    3
    16    18    19    1
    17    19    20   ar
    18    20    21   ar
    19    21    22   ar
    20    22    25    1
    21    25    26    1
    22    22    23   ar
    23    23    27    1
    24    27    28    1
    25    23    24   ar
    26    18    29    1
    27    29    30    1
    28    29    31    1
    29    11    12   ar
    30    12    13   ar
    31    13    16    1
    32    16    17    1
    33    13     8   ar
    34    24    19   ar
@<TRIPOS>MOLECULE
*****
 33 34 0 0 0
SMALL
GASTEIGER

@<TRIPOS>ATOM
      1 C         -12.8313   -5.7686   19.7071 C.3     1  UNL1        0.0197
      2 C         -13.6799   -4.5371   19.8223 C.3     1  UNL1        0.0187
      3 C         -13.0338   -3.1947   19.9972 C.3     1  UNL1        0.0722
      4 N         -12.5905   -2.4135   18.7959 N.3     1  UNL1       -0.2712
      5 C         -11.4682   -1.4255   18.9160 C.3     1  UNL1        0.0896
      6 C         -13.2694   -2.6203   17.4744 C.3     1  UNL1        0.0768
      7 C         -14.4694   -1.7971   17.1108 C.3     1  UNL1        0.0438
      8 C         -17.9458   -1.5093   19.9535 C.ar    1  UNL1        0.1724
      9 C         -16.8200   -0.5222   20.0431 C.ar    1  UNL1        0.0397
     10 C         -15.6612   -0.6181   19.0955 C.ar    1  UNL1       -0.0009
     11 C         -15.6282   -1.7012   18.0583 C.ar    1  UNL1       -0.0176
     12 C         -16.7540   -2.6883   17.9687 C.ar    1  UNL1        0.0358
     13 C         -17.9128   -2.5924   18.9163 C.ar    1  UNL1        0.1721
     14 C         -20.0856   -0.2857   20.7746 C.3     1  UNL1        0.2526
     15 O         -19.1047   -1.4134   20.9011 O.3     1  UNL1       -0.4684
     16 O         -19.0387   -3.5796   18.8266 O.3     1  UNL1       -0.4684
     17 C         -18.9468   -4.8898   19.5511 C.3     1  UNL1        0.2526
     18 C         -12.2091   -6.1303   18.3910 C.3     1  UNL1        0.0981
     19 C         -13.5167   -6.7030   17.9303 C.ar    1  UNL1       -0.0065
     20 C         -14.3131   -5.9981   16.8726 C.ar    1  UNL1        0.0000
     21 C         -15.6207   -6.5708   16.4118 C.ar    1  UNL1        0.0398
     22 C         -16.1319   -7.8484   17.0089 C.ar    1  UNL1        0.1724
     23 C         -15.3355   -8.5532   18.0666 C.ar    1  UNL1        0.1721
     24 C         -14.0279   -7.9805   18.5273 C.ar    1  UNL1        0.0367
     25 O         -17.4395   -8.4210   16.5481 O.3     1  UNL1       -0.4684
     26 C         -18.6799   -7.5783   16.5793 C.3     1  UNL1        0.2526
     27 O         -15.8467   -9.8308   18.6637 O.3     1  UNL1       -0.4684
     28 C         -16.9767   -9.7985   19.6496 C.3     1  UNL1        0.2526
     29 C         -11.5870   -6.4921   17.0750 C.3     1  UNL1        0.0169
     30 C         -11.2885   -5.4220   16.0671 C.3     1  UNL1        0.0014
     31 C         -11.2633   -7.9240   16.7667 C.3     1  UNL1        0.0014
     32 C         -10.9016   -5.5576   18.8518 C.1     1  UNL1        0.0752
     33 N          -9.5940   -4.9850   19.3125 N.1     1  UNL1       -0.1956
@<TRIPOS>BOND
     1    14    15    1
     2    15     8    1
     3     8     9   ar
     4     9    10   ar
     5    10    11   ar
     6    11     7    1
     7     7     6    1
     8     6     4    1
     9     4     5    1
    10     4     3    1
    11     3     2    1
    12     2     1    1
    13     1    18    1
    14    18    32    1
    15    32    33    3
    16    18    19    1
    17    19    20   ar
    18    20    21   ar
    19    21    22   ar
    20    22    25    1
    21    25    26    1
    22    22    23   ar
    23    23    27    1
    24    27    28    1
    25    23    24   ar
    26    18    29    1
    27    29    30    1
    28    29    31    1
    29    11    12   ar
    30    12    13   ar
    31    13    16    1
    32    16    17    1
    33    13     8   ar
    34    24    19   ar
@<TRIPOS>MOLECULE
*****
 33 34 0 0 0
SMALL
GASTEIGER

@<TRIPOS>ATOM
      1 C         -16.2641   -6.4893   16.6968 C.3     1  UNL1        0.0197
      2 C         -17.3388   -5.4574   16.8700 C.3     1  UNL1        0.0187
      3 C         -16.9920   -4.0928   17.3873 C.3     1  UNL1        0.0722
      4 N         -17.2922   -3.7321   18.8120 N.3     1  UNL1       -0.2712
      5 C         -18.2661   -4.5531   19.6043 C.3     1  UNL1        0.0896
      6 C         -16.6185   -2.5506   19.4445 C.3     1  UNL1        0.0768
      7 C         -15.1248   -2.5214   19.5778 C.3     1  UNL1        0.0438
      8 C         -12.7781    0.9082   17.8512 C.ar    1  UNL1        0.1724
      9 C         -14.2027    1.1119   18.2744 C.ar    1  UNL1        0.0397
     10 C         -14.9849   -0.0314   18.8500 C.ar    1  UNL1       -0.0009
     11 C         -14.3425   -1.3782   19.0023 C.ar    1  UNL1       -0.0176
     12 C         -12.9180   -1.5819   18.5791 C.ar    1  UNL1        0.0358
     13 C         -12.1358   -0.4387   18.0035 C.ar    1  UNL1        0.1721
     14 C         -12.7130    3.2160   16.6597 C.3     1  UNL1        0.2526
     15 O         -11.9959    2.0514   17.2757 O.3     1  UNL1       -0.4684
     16 O         -10.7112   -0.6425   17.5803 O.3     1  UNL1       -0.4684
     17 C         -10.3985   -1.4889   16.3821 C.3     1  UNL1        0.2526
     18 C         -16.1524   -7.6263   17.6687 C.3     1  UNL1        0.0981
     19 C         -14.8092   -7.1212   18.1054 C.ar    1  UNL1       -0.0065
     20 C         -14.6982   -6.2244   19.3026 C.ar    1  UNL1        0.0000
     21 C         -13.3550   -5.7193   19.7393 C.ar    1  UNL1        0.0398
     22 C         -12.1229   -6.1109   18.9787 C.ar    1  UNL1        0.1724
     23 C         -12.2340   -7.0076   17.7815 C.ar    1  UNL1        0.1721
     24 C         -13.5771   -7.5128   17.3448 C.ar    1  UNL1        0.0367
     25 O         -10.7797   -5.6057   19.4154 O.3     1  UNL1       -0.4684
     26 C         -10.1841   -4.3954   18.7595 C.3     1  UNL1        0.2526
     27 O         -11.0018   -7.3993   17.0208 O.3     1  UNL1       -0.4684
     28 C          -9.9574   -8.2549   17.6742 C.3     1  UNL1        0.2526
     29 C         -16.0407   -8.7634   18.6406 C.3     1  UNL1        0.0169
     30 C         -15.3383  -10.0266   18.2396 C.3     1  UNL1        0.0014
     31 C         -16.6315   -8.6372   20.0136 C.3     1  UNL1        0.0014
     32 C         -17.4956   -8.1315   17.2320 C.1     1  UNL1        0.0752
     33 N         -18.8388   -8.6366   16.7954 N.1     1  UNL1       -0.1956
@<TRIPOS>BOND
     1    14    15    1
     2    15     8    1
     3     8     9   ar
     4     9    10   ar
     5    10    11   ar
     6    11     7    1
     7     7     6    1
     8     6     4    1
     9     4     5    1
    10     4     3    1
    11     3     2    1
    12     2     1    1
    13     1    18    1
    14    18    32    1
    15    32    33    3
    16    18    19    1
    17    19    20   ar
    18    20    21   ar
    19    21    22   ar
    20    22    25    1
    21    25    26    1
    22    22    23   ar
    23    23    27    1
    24    27    28    1
    25    23    24   ar
    26    18    29    1
    27    29    30    1
    28    29    31    1
    29    11    12   ar
    30    12    13   ar
    31    13    16    1
    32    16    17    1
    33    13     8   ar
    34    24    19   ar
@<TRIPOS>MOLECULE
*****
 33 34 0 0 0
SMALL
GASTEIGER

@<TRIPOS>ATOM
      1 C           4.5282   -1.5890   21.7502 C.3     1  UNL1        0.0197
      2 C           4.2323   -2.1620   23.1044 C.3     1  UNL1        0.0187
      3 C           4.2308   -1.2716   24.3116 C.3     1  UNL1        0.0722
      4 N           5.4242   -1.2369   25.2194 N.3     1  UNL1       -0.2712
      5 C           6.4718   -2.3062   25.1225 C.3     1  UNL1        0.0896
      6 C           5.5703   -0.1329   26.2244 C.3     1  UNL1        0.0768
      7 C           5.2117   -0.3739   27.6608 C.3     1  UNL1        0.0438
      8 C           0.9855    0.2743   29.0640 C.ar    1  UNL1        0.1724
      9 C           1.9813   -0.3927   29.9660 C.ar    1  UNL1        0.0397
     10 C           3.3900   -0.6087   29.4982 C.ar    1  UNL1       -0.0009
     11 C           3.8030   -0.1578   28.1285 C.ar    1  UNL1       -0.0176
     12 C           2.8072    0.5091   27.2266 C.ar    1  UNL1        0.0358
     13 C           1.3985    0.7252   27.6943 C.ar    1  UNL1        0.1721
     14 C          -1.5199   -0.4133   29.0515 C.3     1  UNL1        0.2526
     15 O          -0.4232    0.4904   29.5318 O.3     1  UNL1       -0.4684
     16 O           0.4027    1.3922   26.7923 O.3     1  UNL1       -0.4684
     17 C           0.5780    1.3279   25.3040 C.3     1  UNL1        0.2526
     18 C           4.4165   -2.4533   20.5293 C.3     1  UNL1        0.0981
     19 C           3.4563   -1.4732   19.9233 C.ar    1  UNL1       -0.0065
     20 C           3.7448   -0.8740   18.5789 C.ar    1  UNL1        0.0000
     21 C           2.7846    0.1062   17.9728 C.ar    1  UNL1        0.0398
     22 C           1.5358    0.4871   18.7113 C.ar    1  UNL1        0.1724
     23 C           1.2473   -0.1121   20.0557 C.ar    1  UNL1        0.1721
     24 C           2.2075   -1.0922   20.6617 C.ar    1  UNL1        0.0367
     25 O           0.5756    1.4673   18.1052 O.3     1  UNL1       -0.4684
     26 C           0.7937    2.9403   18.2858 C.3     1  UNL1        0.2526
     27 O          -0.0016    0.2689   20.7942 O.3     1  UNL1       -0.4684
     28 C          -0.0367    1.5279   21.6089 C.3     1  UNL1        0.2526
     29 C           4.3047   -3.3177   19.3085 C.3     1  UNL1        0.0169
     30 C           5.3585   -3.2507   18.2431 C.3     1  UNL1        0.0014
     31 C           3.1392   -4.2490   19.1531 C.3     1  UNL1        0.0014
     32 C           5.3767   -3.4335   21.1354 C.1     1  UNL1        0.0752
     33 N           6.3369   -4.4137   21.7414 N.1     1  UNL1       -0.1956
@<TRIPOS>BOND
     1    14    15    1
     2    15     8    1
     3     8     9   ar
     4     9    10   ar
     5    10    11   ar
     6    11     7    1
     7     7     6    1
     8     6     4    1
     9     4     5    1
    10     4     3    1
    11     3     2    1
    12     2     1    1
    13     1    18    1
    14    18    32    1
    15    32    33    3
    16    18    19    1
    17    19    20   ar
    18    20    21   ar
    19    21    22   ar
    20    22    25    1
    21    25    26    1
    22    22    23   ar
    23    23    27    1
    24    27    28    1
    25    23    24   ar
    26    18    29    1
    27    29    30    1
    28    29    31    1
    29    11    12   ar
    30    12    13   ar
    31    13    16    1
    32    16    17    1
    33    13     8   ar
    34    24    19   ar
@<TRIPOS>MOLECULE
*****
 33 34 0 0 0
SMALL
GASTEIGER

@<TRIPOS>ATOM
      1 C           4.5333   -1.5124   21.7235 C.3     1  UNL1        0.0197
      2 C           5.7765   -0.7072   21.9602 C.3     1  UNL1        0.0187
      3 C           6.3134   -0.5480   23.3517 C.3     1  UNL1        0.0722
      4 N           6.8666   -1.7353   24.0826 N.3     1  UNL1       -0.2712
      5 C           8.3080   -2.1150   23.9142 C.3     1  UNL1        0.0896
      6 C           5.9784   -2.5431   24.9818 C.3     1  UNL1        0.0768
      7 C           6.5557   -3.6597   25.8002 C.3     1  UNL1        0.0438
      8 C           6.4937   -3.4215   30.2934 C.ar    1  UNL1        0.1724
      9 C           6.2324   -2.1929   29.4735 C.ar    1  UNL1        0.0397
     10 C           6.2531   -2.2723   27.9758 C.ar    1  UNL1       -0.0009
     11 C           6.5351   -3.5803   27.2979 C.ar    1  UNL1       -0.0176
     12 C           6.7964   -4.8089   28.1178 C.ar    1  UNL1        0.0358
     13 C           6.7757   -4.7295   29.6155 C.ar    1  UNL1        0.1721
     14 C           7.5316   -2.5646   32.5157 C.3     1  UNL1        0.2526
     15 O           6.4731   -3.3420   31.7912 O.3     1  UNL1       -0.4684
     16 O           7.0371   -5.9581   30.4354 O.3     1  UNL1       -0.4684
     17 C           8.3920   -6.1833   31.0383 C.3     1  UNL1        0.2526
     18 C           4.4300   -2.3950   20.5151 C.3     1  UNL1        0.0981
     19 C           3.4504   -1.4395   19.9009 C.ar    1  UNL1       -0.0065
     20 C           3.6849   -0.9117   18.5165 C.ar    1  UNL1        0.0000
     21 C           2.7053    0.0439   17.9023 C.ar    1  UNL1        0.0398
     22 C           1.4913    0.4716   18.6723 C.ar    1  UNL1        0.1724
     23 C           1.2568   -0.0562   20.0566 C.ar    1  UNL1        0.1721
     24 C           2.2364   -1.0117   20.6709 C.ar    1  UNL1        0.0367
     25 O           0.5117    1.4272   18.0580 O.3     1  UNL1       -0.4684
     26 C           0.5712    2.8861   18.4012 C.3     1  UNL1        0.2526
     27 O           0.0427    0.3716   20.8267 O.3     1  UNL1       -0.4684
     28 C           0.1664    1.4004   21.9112 C.3     1  UNL1        0.2526
     29 C           4.3268   -3.2777   19.3067 C.3     1  UNL1        0.0169
     30 C           3.1568   -4.2035   19.1520 C.3     1  UNL1        0.0014
     31 C           5.3936   -3.2345   18.2531 C.3     1  UNL1        0.0014
     32 C           5.4096   -3.3506   21.1294 C.1     1  UNL1        0.0752
     33 N           6.3892   -4.3061   21.7437 N.1     1  UNL1       -0.1956
@<TRIPOS>BOND
     1    14    15    1
     2    15     8    1
     3     8     9   ar
     4     9    10   ar
     5    10    11   ar
     6    11     7    1
     7     7     6    1
     8     6     4    1
     9     4     5    1
    10     4     3    1
    11     3     2    1
    12     2     1    1
    13     1    18    1
    14    18    32    1
    15    32    33    3
    16    18    19    1
    17    19    20   ar
    18    20    21   ar
    19    21    22   ar
    20    22    25    1
    21    25    26    1
    22    22    23   ar
    23    23    27    1
    24    27    28    1
    25    23    24   ar
    26    18    29    1
    27    29    30    1
    28    29    31    1
    29    11    12   ar
    30    12    13   ar
    31    13    16    1
    32    16    17    1
    33    13     8   ar
    34    24    19   ar
@<TRIPOS>MOLECULE
*****
 33 34 0 0 0
SMALL
GASTEIGER

@<TRIPOS>ATOM
      1 C           1.8869   -0.6913   20.4381 C.3     1  UNL1        0.0197
      2 C           1.6935    0.2532   21.5872 C.3     1  UNL1        0.0187
      3 C           2.3993    0.0066   22.8876 C.3     1  UNL1        0.0722
      4 N           3.3565    1.0278   23.4269 N.3     1  UNL1       -0.2712
      5 C           3.7904    2.1772   22.5662 C.3     1  UNL1        0.0896
      6 C           3.8797    0.8998   24.8268 C.3     1  UNL1        0.0768
      7 C           3.3554   -0.1788   25.7277 C.3     1  UNL1        0.0438
      8 C           0.9031    0.9034   29.3423 C.ar    1  UNL1        0.1724
      9 C           0.7035    1.6419   28.0520 C.ar    1  UNL1        0.0397
     10 C           1.5209    1.2811   26.8472 C.ar    1  UNL1       -0.0009
     11 C           2.5380    0.1819   26.9326 C.ar    1  UNL1       -0.0176
     12 C           2.7376   -0.5565   28.2228 C.ar    1  UNL1        0.0358
     13 C           1.9202   -0.1958   29.4277 C.ar    1  UNL1        0.1721
     14 C           0.6137    2.2540   31.5428 C.3     1  UNL1        0.2526
     15 O           0.0857    1.2642   30.5471 O.3     1  UNL1       -0.4684
     16 O           2.1198   -0.9343   30.7180 O.3     1  UNL1       -0.4684
     17 C           3.4104   -0.7954   31.4696 C.3     1  UNL1        0.2526
     18 C           2.7268   -0.2826   19.2644 C.3     1  UNL1        0.0981
     19 C           3.8408   -1.1583   19.7568 C.ar    1  UNL1       -0.0065
     20 C           5.1021   -0.5416   20.2847 C.ar    1  UNL1        0.0000
     21 C           6.2161   -1.4172   20.7770 C.ar    1  UNL1        0.0398
     22 C           6.0687   -2.9095   20.7415 C.ar    1  UNL1        0.1724
     23 C           4.8073   -3.5262   20.2137 C.ar    1  UNL1        0.1721
     24 C           3.6934   -2.6505   19.7213 C.ar    1  UNL1        0.0367
     25 O           7.1826   -3.7851   21.2339 O.3     1  UNL1       -0.4684
     26 C           7.2581   -4.1581   22.6848 C.3     1  UNL1        0.2526
     27 O           4.6599   -5.0185   20.1782 O.3     1  UNL1       -0.4684
     28 C           3.3128   -5.6336   19.9395 C.3     1  UNL1        0.2526
     29 C           3.5668    0.1260   18.0908 C.3     1  UNL1        0.0169
     30 C           3.7610   -0.8189   16.9422 C.3     1  UNL1        0.0014
     31 C           4.2126    1.4797   18.0659 C.3     1  UNL1        0.0014
     32 C           1.6129    0.5930   18.7721 C.1     1  UNL1        0.0752
     33 N           0.4990    1.4686   18.2797 N.1     1  UNL1       -0.1956
@<TRIPOS>BOND
     1    14    15    1
     2    15     8    1
     3     8     9   ar
     4     9    10   ar
     5    10    11   ar
     6    11     7    1
     7     7     6    1
     8     6     4    1
     9     4     5    1
    10     4     3    1
    11     3     2    1
    12     2     1    1
    13     1    18    1
    14    18    32    1
    15    32    33    3
    16    18    19    1
    17    19    20   ar
    18    20    21   ar
    19    21    22   ar
    20    22    25    1
    21    25    26    1
    22    22    23   ar
    23    23    27    1
    24    27    28    1
    25    23    24   ar
    26    18    29    1
    27    29    30    1
    28    29    31    1
    29    11    12   ar
    30    12    13   ar
    31    13    16    1
    32    16    17    1
    33    13     8   ar
    34    24    19   ar
