@<TRIPOS>MOLECULE
*****
 32 34 0 0 0
SMALL
GASTEIGER

@<TRIPOS>ATOM
      1 C           7.9016   -5.8941   26.0509 C.ar    1  UNL1        0.1508
      2 C           8.2165   -7.2975   25.6254 C.ar    1  UNL1        0.0778
      3 CL          8.2515   -8.3996   26.6424 Cl      1  UNL1       -0.0808
      4 C           8.4963   -7.5989   24.1829 C.ar    1  UNL1        0.0142
      5 C           8.4613   -6.4969   23.1660 C.ar    1  UNL1        0.0187
      6 C           8.1464   -5.0934   23.5915 C.ar    1  UNL1        0.0870
      7 C           7.8666   -4.7920   25.0340 C.ar    1  UNL1        0.1650
      8 O           7.5517   -3.3885   25.4596 O.3     1  UNL1       -0.5032
      9 H           7.5298   -2.7000   24.8243 H       1  UNL1        0.2923
     10 N           8.1114   -3.9913   22.5745 N.am    1  UNL1       -0.2656
     11 C           6.7990   -3.5293   22.0142 C.2     1  UNL1        0.3083
     12 O           5.5215   -4.1693   22.4709 O.2     1  UNL1       -0.2521
     13 N           6.7639   -2.4272   20.9972 N.am    1  UNL1       -0.2673
     14 H           8.9498   -3.5713   22.2748 H       1  UNL1        0.1565
     15 H           7.6023   -2.0072   20.6975 H       1  UNL1        0.1564
     16 C           5.4514   -1.9652   20.4369 C.ar    1  UNL1        0.0630
     17 C           4.2901   -1.7177   21.3535 C.ar    1  UNL1        0.0156
     18 C           2.9776   -1.2557   20.7931 C.ar    1  UNL1        0.0022
     19 C           2.8264   -1.0412   19.3163 C.ar    1  UNL1        0.0123
     20 C           3.9878   -1.2887   18.3997 C.ar    1  UNL1        0.0694
     21 CL          3.8367   -1.0741   16.9229 Cl      1  UNL1       -0.0813
     22 C           5.3003   -1.7507   18.9601 C.ar    1  UNL1        0.0816
     23 CL          6.4616   -1.9982   18.0435 Cl      1  UNL1       -0.0801
     24 S           7.6218   -5.5926   27.4935 S.O2    1  UNL1        0.0121
     25 O           6.1604   -5.8385   27.2615 O.2     1  UNL1       -0.1685
     26 O           9.0831   -5.3467   27.7255 O.2     1  UNL1       -0.1685
     27 C           6.0670   -3.1336   31.8999 C.3     1  UNL1        0.0897
     28 N           6.6274   -4.1609   30.9614 N.3     1  UNL1       -0.2700
     29 C           7.1955   -5.4936   31.3502 C.3     1  UNL1        0.0740
     30 C           7.6372   -6.1921   30.0984 C.3     1  UNL1        0.0427
     31 C           7.3420   -5.2911   28.9360 C.3     1  UNL1        0.1512
     32 C           6.7179   -4.0358   29.4694 C.3     1  UNL1        0.0964
@<TRIPOS>BOND
     1    27    28    1
     2    28    29    1
     3    29    30    1
     4    30    31    1
     5    31    24    1
     6    24    25    2
     7    24    26    2
     8    24     1    1
     9     1     2   ar
    10     2     3    1
    11     2     4   ar
    12     4     5   ar
    13     5     6   ar
    14     6    10    1
    15    10    11   am
    16    11    12    2
    17    11    13   am
    18    13    16    1
    19    16    17   ar
    20    17    18   ar
    21    18    19   ar
    22    19    20   ar
    23    20    21    1
    24    20    22   ar
    25    22    23    1
    26     6     7   ar
    27     7     8    1
    28    31    32    1
    29    32    28    1
    30     7     1   ar
    31    22    16   ar
    32    10    14    1
    33    13    15    1
    34     8     9    1
@<TRIPOS>MOLECULE
*****
 32 34 0 0 0
SMALL
GASTEIGER

@<TRIPOS>ATOM
      1 C           4.6113   -1.0392   19.6254 C.ar    1  UNL1        0.1508
      2 C           4.8909   -1.3430   18.1834 C.ar    1  UNL1        0.0778
      3 CL          3.9226   -0.9076   17.1237 Cl      1  UNL1       -0.0808
      4 C           6.1388   -2.0823   17.8010 C.ar    1  UNL1        0.0142
      5 C           7.1071   -2.5177   18.8606 C.ar    1  UNL1        0.0187
      6 C           6.8275   -2.2139   20.3027 C.ar    1  UNL1        0.0870
      7 C           5.5796   -1.4747   20.6850 C.ar    1  UNL1        0.1650
      8 O           5.2999   -1.1708   22.1271 O.3     1  UNL1       -0.5032
      9 H           5.9048   -1.4428   22.7891 H       1  UNL1        0.2923
     10 N           7.7957   -2.6493   21.3623 N.am    1  UNL1       -0.2656
     11 C           7.4078   -3.7200   22.3385 C.2     1  UNL1        0.3083
     12 O           6.0515   -4.3554   22.2551 O.2     1  UNL1       -0.2521
     13 N           8.3761   -4.1555   23.3981 N.am    1  UNL1       -0.2673
     14 H           8.6859   -2.2324   21.4170 H       1  UNL1        0.1565
     15 H           9.2662   -3.7385   23.4529 H       1  UNL1        0.1564
     16 C           7.9880   -5.2262   24.3744 C.ar    1  UNL1        0.0630
     17 C           8.3599   -6.6547   24.1078 C.ar    1  UNL1        0.0156
     18 C           7.9718   -7.7255   25.0841 C.ar    1  UNL1        0.0022
     19 C           7.2120   -7.3677   26.3269 C.ar    1  UNL1        0.0123
     20 C           6.8401   -5.9391   26.5934 C.ar    1  UNL1        0.0694
     21 CL          6.0802   -5.5813   27.8362 Cl      1  UNL1       -0.0813
     22 C           7.2281   -4.8684   25.6172 C.ar    1  UNL1        0.0816
     23 CL          6.8563   -3.4398   25.8837 Cl      1  UNL1       -0.0801
     24 S           3.3634   -0.2999   20.0078 S.O2    1  UNL1        0.0121
     25 O           2.5976   -1.5897   20.0023 O.2     1  UNL1       -0.1685
     26 O           4.1292    0.9898   20.0134 O.2     1  UNL1       -0.1685
     27 C          -0.1188    2.6212   22.6953 C.3     1  UNL1        0.0897
     28 N           0.5150    1.7820   21.6255 N.3     1  UNL1       -0.2700
     29 C          -0.1244    1.3720   20.3320 C.3     1  UNL1        0.0740
     30 C           0.8648    0.5422   19.5686 C.3     1  UNL1        0.0427
     31 C           2.1155    0.4394   20.3903 C.3     1  UNL1        0.1512
     32 C           1.8993    1.2056   21.6615 C.3     1  UNL1        0.0964
@<TRIPOS>BOND
     1    27    28    1
     2    28    29    1
     3    29    30    1
     4    30    31    1
     5    31    24    1
     6    24    25    2
     7    24    26    2
     8    24     1    1
     9     1     2   ar
    10     2     3    1
    11     2     4   ar
    12     4     5   ar
    13     5     6   ar
    14     6    10    1
    15    10    11   am
    16    11    12    2
    17    11    13   am
    18    13    16    1
    19    16    17   ar
    20    17    18   ar
    21    18    19   ar
    22    19    20   ar
    23    20    21    1
    24    20    22   ar
    25    22    23    1
    26     6     7   ar
    27     7     8    1
    28    31    32    1
    29    32    28    1
    30     7     1   ar
    31    22    16   ar
    32    10    14    1
    33    13    15    1
    34     8     9    1
@<TRIPOS>MOLECULE
*****
 32 34 0 0 0
SMALL
GASTEIGER

@<TRIPOS>ATOM
      1 C           2.1209    1.2589   19.2870 C.ar    1  UNL1        0.1508
      2 C           2.6416    2.6095   18.8939 C.ar    1  UNL1        0.0778
      3 CL          3.9903    2.7349   18.2494 Cl      1  UNL1       -0.0808
      4 C           1.8137    3.8348   19.1453 C.ar    1  UNL1        0.0142
      5 C           0.4651    3.7094   19.7898 C.ar    1  UNL1        0.0187
      6 C          -0.0557    2.3588   20.1829 C.ar    1  UNL1        0.0870
      7 C           0.7722    1.1336   19.9315 C.ar    1  UNL1        0.1650
      8 O           0.2514   -0.2172   20.3246 O.3     1  UNL1       -0.5032
      9 H          -0.5911   -0.2955   20.7272 H       1  UNL1        0.2923
     10 N          -1.4044    2.2335   20.8274 N.am    1  UNL1       -0.2656
     11 C          -2.5720    2.9983   20.2782 C.2     1  UNL1        0.3083
     12 O          -2.3911    3.8885   19.0845 O.2     1  UNL1       -0.2521
     13 N          -3.9207    2.8729   20.9227 N.am    1  UNL1       -0.2673
     14 H          -1.5232    1.6492   21.6108 H       1  UNL1        0.1565
     15 H          -4.0395    2.2887   21.7061 H       1  UNL1        0.1564
     16 C          -5.0884    3.6378   20.3735 C.ar    1  UNL1        0.0630
     17 C          -5.7384    3.1983   19.0951 C.ar    1  UNL1        0.0156
     18 C          -6.9061    3.9632   18.5459 C.ar    1  UNL1        0.0022
     19 C          -7.4237    5.1675   19.2751 C.ar    1  UNL1        0.0123
     20 C          -6.7736    5.6069   20.5536 C.ar    1  UNL1        0.0694
     21 CL         -7.2912    6.8112   21.2828 Cl      1  UNL1       -0.0813
     22 C          -5.6060    4.8421   21.1027 C.ar    1  UNL1        0.0816
     23 CL         -4.9559    5.2815   22.3812 Cl      1  UNL1       -0.0801
     24 S           2.9488    0.0335   19.0356 S.O2    1  UNL1        0.0121
     25 O           3.4240    0.0627   20.4580 O.2     1  UNL1       -0.1685
     26 O           2.4736    0.0043   17.6132 O.2     1  UNL1       -0.1685
     27 C           4.5845   -4.9856   18.9230 C.3     1  UNL1        0.0897
     28 N           4.5285   -3.4988   18.7325 N.3     1  UNL1       -0.2700
     29 C           5.5727   -2.6559   18.0622 C.3     1  UNL1        0.0740
     30 C           5.1080   -1.2300   18.0942 C.3     1  UNL1        0.0427
     31 C           3.7766   -1.1918   18.7842 C.3     1  UNL1        0.1512
     32 C           3.4185   -2.5939   19.1787 C.3     1  UNL1        0.0964
@<TRIPOS>BOND
     1    27    28    1
     2    28    29    1
     3    29    30    1
     4    30    31    1
     5    31    24    1
     6    24    25    2
     7    24    26    2
     8    24     1    1
     9     1     2   ar
    10     2     3    1
    11     2     4   ar
    12     4     5   ar
    13     5     6   ar
    14     6    10    1
    15    10    11   am
    16    11    12    2
    17    11    13   am
    18    13    16    1
    19    16    17   ar
    20    17    18   ar
    21    18    19   ar
    22    19    20   ar
    23    20    21    1
    24    20    22   ar
    25    22    23    1
    26     6     7   ar
    27     7     8    1
    28    31    32    1
    29    32    28    1
    30     7     1   ar
    31    22    16   ar
    32    10    14    1
    33    13    15    1
    34     8     9    1
@<TRIPOS>MOLECULE
*****
 32 34 0 0 0
SMALL
GASTEIGER

@<TRIPOS>ATOM
      1 C          -0.7300    3.4257   18.9274 C.ar    1  UNL1        0.1508
      2 C          -1.3443    4.1835   17.7880 C.ar    1  UNL1        0.0778
      3 CL         -0.4814    4.6824   16.6671 Cl      1  UNL1       -0.0808
      4 C          -2.8217    4.4425   17.7696 C.ar    1  UNL1        0.0142
      5 C          -3.6846    3.9437   18.8906 C.ar    1  UNL1        0.0187
      6 C          -3.0702    3.1858   20.0299 C.ar    1  UNL1        0.0870
      7 C          -1.5929    2.9268   20.0483 C.ar    1  UNL1        0.1650
      8 O          -0.9784    2.1689   21.1877 O.3     1  UNL1       -0.5032
      9 H          -1.5175    1.8573   21.8879 H       1  UNL1        0.2923
     10 N          -3.9332    2.6870   21.1508 N.am    1  UNL1       -0.2656
     11 C          -4.2046    3.5651   22.3363 C.2     1  UNL1        0.3083
     12 O          -3.6130    4.9420   22.4008 O.2     1  UNL1       -0.2521
     13 N          -5.0675    3.0662   23.4572 N.am    1  UNL1       -0.2673
     14 H          -4.3214    1.7833   21.1085 H       1  UNL1        0.1565
     15 H          -5.4558    2.1625   23.4149 H       1  UNL1        0.1564
     16 C          -5.3389    3.9444   24.6427 C.ar    1  UNL1        0.0630
     17 C          -4.3977    3.9396   25.8106 C.ar    1  UNL1        0.0156
     18 C          -4.6691    4.8178   26.9961 C.ar    1  UNL1        0.0022
     19 C          -5.8817    5.7006   27.0136 C.ar    1  UNL1        0.0123
     20 C          -6.8229    5.7053   25.8455 C.ar    1  UNL1        0.0694
     21 CL         -8.0355    6.5881   25.8630 Cl      1  UNL1       -0.0813
     22 C          -6.5515    4.8272   24.6601 C.ar    1  UNL1        0.0816
     23 CL         -7.4926    4.8319   23.4921 Cl      1  UNL1       -0.0801
     24 S           0.7474    3.1666   18.9458 S.O2    1  UNL1        0.0121
     25 O           0.9633    4.4504   19.6909 O.2     1  UNL1       -0.1685
     26 O           0.5316    1.8828   18.2007 O.2     1  UNL1       -0.1685
     27 C           5.4429    0.9325   19.8632 C.3     1  UNL1        0.0897
     28 N           4.3830    1.8806   19.3859 N.3     1  UNL1       -0.2700
     29 C           4.6132    3.1369   18.5992 C.3     1  UNL1        0.0740
     30 C           3.2793    3.7715   18.3386 C.3     1  UNL1        0.0427
     31 C           2.2247    2.9075   18.9642 C.3     1  UNL1        0.1512
     32 C           2.9069    1.7388   19.6114 C.3     1  UNL1        0.0964
@<TRIPOS>BOND
     1    27    28    1
     2    28    29    1
     3    29    30    1
     4    30    31    1
     5    31    24    1
     6    24    25    2
     7    24    26    2
     8    24     1    1
     9     1     2   ar
    10     2     3    1
    11     2     4   ar
    12     4     5   ar
    13     5     6   ar
    14     6    10    1
    15    10    11   am
    16    11    12    2
    17    11    13   am
    18    13    16    1
    19    16    17   ar
    20    17    18   ar
    21    18    19   ar
    22    19    20   ar
    23    20    21    1
    24    20    22   ar
    25    22    23    1
    26     6     7   ar
    27     7     8    1
    28    31    32    1
    29    32    28    1
    30     7     1   ar
    31    22    16   ar
    32    10    14    1
    33    13    15    1
    34     8     9    1
@<TRIPOS>MOLECULE
*****
 32 34 0 0 0
SMALL
GASTEIGER

@<TRIPOS>ATOM
      1 C          -2.9126    3.8826   19.5674 C.ar    1  UNL1        0.1508
      2 C          -3.4949    4.0401   18.1940 C.ar    1  UNL1        0.0778
      3 CL         -4.9665    4.2768   18.0260 Cl      1  UNL1       -0.0808
      4 C          -2.6055    3.9609   16.9888 C.ar    1  UNL1        0.0142
      5 C          -1.1338    3.7242   17.1569 C.ar    1  UNL1        0.0187
      6 C          -0.5516    3.5667   18.5302 C.ar    1  UNL1        0.0870
      7 C          -1.4410    3.6459   19.7355 C.ar    1  UNL1        0.1650
      8 O          -0.8587    3.4884   21.1089 O.3     1  UNL1       -0.5032
      9 H           0.0606    3.3405   21.2139 H       1  UNL1        0.2923
     10 N           0.9201    3.3299   18.6983 N.am    1  UNL1       -0.2656
     11 C           1.4639    1.9325   18.6621 C.2     1  UNL1        0.3083
     12 O           0.5360    0.7717   18.4578 O.2     1  UNL1       -0.2521
     13 N           2.9355    1.6958   18.8302 N.am    1  UNL1       -0.2673
     14 H           1.5290    4.0918   18.8323 H       1  UNL1        0.1565
     15 H           3.5445    2.4576   18.9642 H       1  UNL1        0.1564
     16 C           3.4793    0.2982   18.7940 C.ar    1  UNL1        0.0630
     17 C           4.0417   -0.2549   17.5182 C.ar    1  UNL1        0.0156
     18 C           4.5855   -1.6525   17.4820 C.ar    1  UNL1        0.0022
     19 C           4.5668   -2.4968   18.7216 C.ar    1  UNL1        0.0123
     20 C           4.0044   -1.9436   19.9975 C.ar    1  UNL1        0.0694
     21 CL          3.9857   -2.7879   21.2371 Cl      1  UNL1       -0.0813
     22 C           3.4606   -0.5461   20.0336 C.ar    1  UNL1        0.0816
     23 CL          2.8982    0.0071   21.3095 Cl      1  UNL1       -0.0801
     24 S          -3.8020    3.9618   20.7727 S.O2    1  UNL1        0.0121
     25 O          -3.8213    2.4643   20.8570 O.2     1  UNL1       -0.1685
     26 O          -3.7827    5.4593   20.6885 O.2     1  UNL1       -0.1685
     27 C          -8.0283    4.6727   23.8570 C.3     1  UNL1        0.0897
     28 N          -6.6339    4.3678   23.3957 N.3     1  UNL1       -0.2700
     29 C          -5.4858    3.9582   24.2699 C.3     1  UNL1        0.0740
     30 C          -4.2852    3.7562   23.3937 C.3     1  UNL1        0.0427
     31 C          -4.6913    4.0410   21.9780 C.3     1  UNL1        0.1512
     32 C          -6.1429    4.4190   21.9793 C.3     1  UNL1        0.0964
@<TRIPOS>BOND
     1    27    28    1
     2    28    29    1
     3    29    30    1
     4    30    31    1
     5    31    24    1
     6    24    25    2
     7    24    26    2
     8    24     1    1
     9     1     2   ar
    10     2     3    1
    11     2     4   ar
    12     4     5   ar
    13     5     6   ar
    14     6    10    1
    15    10    11   am
    16    11    12    2
    17    11    13   am
    18    13    16    1
    19    16    17   ar
    20    17    18   ar
    21    18    19   ar
    22    19    20   ar
    23    20    21    1
    24    20    22   ar
    25    22    23    1
    26     6     7   ar
    27     7     8    1
    28    31    32    1
    29    32    28    1
    30     7     1   ar
    31    22    16   ar
    32    10    14    1
    33    13    15    1
    34     8     9    1
@<TRIPOS>MOLECULE
*****
 32 34 0 0 0
SMALL
GASTEIGER

@<TRIPOS>ATOM
      1 C           6.9008   -4.0985   29.2980 C.ar    1  UNL1        0.1508
      2 C           6.7153   -4.2988   30.7729 C.ar    1  UNL1        0.0778
      3 CL          7.1133   -5.5975   31.4093 Cl      1  UNL1       -0.0808
      4 C           6.1320   -3.2004   31.6114 C.ar    1  UNL1        0.0142
      5 C           5.7340   -1.9017   30.9750 C.ar    1  UNL1        0.0187
      6 C           5.9194   -1.7014   29.5001 C.ar    1  UNL1        0.0870
      7 C           6.5028   -2.7998   28.6616 C.ar    1  UNL1        0.1650
      8 O           6.6883   -2.5995   27.1865 O.3     1  UNL1       -0.5032
      9 H           6.4397   -1.7882   26.7890 H       1  UNL1        0.2923
     10 N           5.5214   -0.4027   28.8637 N.am    1  UNL1       -0.2656
     11 C           4.2260   -0.3005   28.1144 C.2     1  UNL1        0.3083
     12 O           3.3285   -1.4972   28.0015 O.2     1  UNL1       -0.2521
     13 N           3.8281    0.9981   27.4780 N.am    1  UNL1       -0.2673
     14 H           6.1105    0.3827   28.9378 H       1  UNL1        0.1565
     15 H           4.4171    1.7835   27.5521 H       1  UNL1        0.1564
     16 C           2.5326    1.1002   26.7287 C.ar    1  UNL1        0.0630
     17 C           2.5010    0.8578   25.2488 C.ar    1  UNL1        0.0156
     18 C           1.2056    0.9599   24.4995 C.ar    1  UNL1        0.0022
     19 C          -0.0583    1.3044   25.2302 C.ar    1  UNL1        0.0123
     20 C          -0.0267    1.5468   26.7102 C.ar    1  UNL1        0.0694
     21 CL         -1.2906    1.8913   27.4409 Cl      1  UNL1       -0.0813
     22 C           1.2687    1.4447   27.4594 C.ar    1  UNL1        0.0816
     23 CL          1.3003    1.6871   28.9394 Cl      1  UNL1       -0.0801
     24 S           7.4842   -5.1969   28.4594 S.O2    1  UNL1        0.0121
     25 O           8.8607   -4.8150   28.9168 O.2     1  UNL1       -0.1685
     26 O           6.1077   -5.5787   28.0019 O.2     1  UNL1       -0.1685
     27 C           9.5360   -7.8529   24.3831 C.3     1  UNL1        0.0897
     28 N           9.0106   -7.5161   25.7471 N.3     1  UNL1       -0.2700
     29 C           8.9198   -8.4549   26.9135 C.3     1  UNL1        0.0740
     30 C           8.3369   -7.7003   28.0715 C.3     1  UNL1        0.0427
     31 C           8.0675   -6.2952   27.6208 C.3     1  UNL1        0.1512
     32 C           8.4839   -6.1814   26.1843 C.3     1  UNL1        0.0964
@<TRIPOS>BOND
     1    27    28    1
     2    28    29    1
     3    29    30    1
     4    30    31    1
     5    31    24    1
     6    24    25    2
     7    24    26    2
     8    24     1    1
     9     1     2   ar
    10     2     3    1
    11     2     4   ar
    12     4     5   ar
    13     5     6   ar
    14     6    10    1
    15    10    11   am
    16    11    12    2
    17    11    13   am
    18    13    16    1
    19    16    17   ar
    20    17    18   ar
    21    18    19   ar
    22    19    20   ar
    23    20    21    1
    24    20    22   ar
    25    22    23    1
    26     6     7   ar
    27     7     8    1
    28    31    32    1
    29    32    28    1
    30     7     1   ar
    31    22    16   ar
    32    10    14    1
    33    13    15    1
    34     8     9    1
@<TRIPOS>MOLECULE
*****
 32 34 0 0 0
SMALL
GASTEIGER

@<TRIPOS>ATOM
      1 C           1.4373    0.8853   27.7702 C.ar    1  UNL1        0.1508
      2 C          -0.0397    1.0586   27.5744 C.ar    1  UNL1        0.0778
      3 CL         -0.9690    0.9546   28.7473 Cl      1  UNL1       -0.0808
      4 C          -0.5874    1.3360   26.2058 C.ar    1  UNL1        0.0142
      5 C           0.3419    1.4400   25.0330 C.ar    1  UNL1        0.0187
      6 C           1.8190    1.2667   25.2287 C.ar    1  UNL1        0.0870
      7 C           2.3666    0.9894   26.5973 C.ar    1  UNL1        0.1650
      8 O           3.8437    0.8160   26.7931 O.3     1  UNL1       -0.5032
      9 H           4.4243    0.8810   26.0605 H       1  UNL1        0.2923
     10 N           2.7483    1.3707   24.0559 N.am    1  UNL1       -0.2656
     11 C           3.2738    0.1269   23.4028 C.2     1  UNL1        0.3083
     12 O           2.8701   -1.2211   23.9225 O.2     1  UNL1       -0.2521
     13 N           4.2031    0.2309   22.2300 N.am    1  UNL1       -0.2673
     14 H           3.0133    2.2554   23.7148 H       1  UNL1        0.1565
     15 H           4.4681    1.1156   21.8888 H       1  UNL1        0.1564
     16 C           4.7287   -1.0130   21.5768 C.ar    1  UNL1        0.0630
     17 C           6.1134   -1.4969   21.8902 C.ar    1  UNL1        0.0156
     18 C           6.6390   -2.7408   21.2371 C.ar    1  UNL1        0.0022
     19 C           5.7797   -3.5008   20.2706 C.ar    1  UNL1        0.0123
     20 C           4.3949   -3.0168   19.9572 C.ar    1  UNL1        0.0694
     21 CL          3.5356   -3.7768   18.9908 Cl      1  UNL1       -0.0813
     22 C           3.8694   -1.7730   20.6104 C.ar    1  UNL1        0.0816
     23 CL          2.4846   -1.2890   20.2970 Cl      1  UNL1       -0.0801
     24 S           1.9851    0.6080   29.1388 S.O2    1  UNL1        0.0121
     25 O           1.8980    2.0684   29.4697 O.2     1  UNL1       -0.1685
     26 O           2.0722   -0.8525   28.8079 O.2     1  UNL1       -0.1685
     27 C           4.2860   -1.8061   33.2325 C.3     1  UNL1        0.0897
     28 N           3.5904   -0.7791   32.3890 N.3     1  UNL1       -0.2700
     29 C           3.1610    0.5864   32.8377 C.3     1  UNL1        0.0740
     30 C           2.5074    1.2721   31.6748 C.3     1  UNL1        0.0427
     31 C           2.5328    0.3306   30.5074 C.3     1  UNL1        0.1512
     32 C           3.2022   -0.9371   30.9488 C.3     1  UNL1        0.0964
@<TRIPOS>BOND
     1    27    28    1
     2    28    29    1
     3    29    30    1
     4    30    31    1
     5    31    24    1
     6    24    25    2
     7    24    26    2
     8    24     1    1
     9     1     2   ar
    10     2     3    1
    11     2     4   ar
    12     4     5   ar
    13     5     6   ar
    14     6    10    1
    15    10    11   am
    16    11    12    2
    17    11    13   am
    18    13    16    1
    19    16    17   ar
    20    17    18   ar
    21    18    19   ar
    22    19    20   ar
    23    20    21    1
    24    20    22   ar
    25    22    23    1
    26     6     7   ar
    27     7     8    1
    28    31    32    1
    29    32    28    1
    30     7     1   ar
    31    22    16   ar
    32    10    14    1
    33    13    15    1
    34     8     9    1
@<TRIPOS>MOLECULE
*****
 32 34 0 0 0
SMALL
GASTEIGER

@<TRIPOS>ATOM
      1 C           1.3348    1.9174   19.5402 C.ar    1  UNL1        0.1508
      2 C           1.7478    3.2804   19.0695 C.ar    1  UNL1        0.0778
      3 CL          3.1485    3.5147   18.5867 Cl      1  UNL1       -0.0808
      4 C           0.7601    4.4092   19.0816 C.ar    1  UNL1        0.0142
      5 C          -0.6406    4.1750   19.5645 C.ar    1  UNL1        0.0187
      6 C          -1.0536    2.8120   20.0352 C.ar    1  UNL1        0.0870
      7 C          -0.0659    1.6832   20.0230 C.ar    1  UNL1        0.1650
      8 O          -0.4789    0.3201   20.4937 O.3     1  UNL1       -0.5032
      9 H          -1.3539    0.1738   20.7954 H       1  UNL1        0.2923
     10 N          -2.4544    2.5778   20.5180 N.am    1  UNL1       -0.2656
     11 C          -2.9440    3.2623   21.7596 C.2     1  UNL1        0.3083
     12 O          -2.0329    4.1812   22.5184 O.2     1  UNL1       -0.2521
     13 N          -4.3447    3.0281   22.2424 N.am    1  UNL1       -0.2673
     14 H          -3.0523    1.9748   20.0199 H       1  UNL1        0.1565
     15 H          -4.9427    2.4251   21.7444 H       1  UNL1        0.1564
     16 C          -4.8344    3.7127   23.4840 C.ar    1  UNL1        0.0630
     17 C          -4.0497    3.6068   24.7580 C.ar    1  UNL1        0.0156
     18 C          -4.5393    4.2914   25.9996 C.ar    1  UNL1        0.0022
     19 C          -5.8137    5.0820   25.9672 C.ar    1  UNL1        0.0123
     20 C          -6.5984    5.1879   24.6932 C.ar    1  UNL1        0.0694
     21 CL         -7.8728    5.9784   24.6608 Cl      1  UNL1       -0.0813
     22 C          -6.1087    4.5033   23.4517 C.ar    1  UNL1        0.0816
     23 CL         -6.8935    4.6092   22.1776 Cl      1  UNL1       -0.0801
     24 S           2.3225    0.7886   19.5281 S.O2    1  UNL1        0.0121
     25 O           2.8411    1.2279   20.8653 O.2     1  UNL1       -0.1685
     26 O           1.8040    0.3492   18.1909 O.2     1  UNL1       -0.1685
     27 C           6.3975   -2.3048   18.2218 C.3     1  UNL1        0.0897
     28 N           5.1833   -1.7621   18.9155 N.3     1  UNL1       -0.2700
     29 C           4.4770   -2.3927   20.0790 C.3     1  UNL1        0.0740
     30 C           3.3194   -1.5139   20.4501 C.3     1  UNL1        0.0427
     31 C           3.3102   -0.3403   19.5160 C.3     1  UNL1        0.1512
     32 C           4.4622   -0.4937   18.5676 C.3     1  UNL1        0.0964
@<TRIPOS>BOND
     1    27    28    1
     2    28    29    1
     3    29    30    1
     4    30    31    1
     5    31    24    1
     6    24    25    2
     7    24    26    2
     8    24     1    1
     9     1     2   ar
    10     2     3    1
    11     2     4   ar
    12     4     5   ar
    13     5     6   ar
    14     6    10    1
    15    10    11   am
    16    11    12    2
    17    11    13   am
    18    13    16    1
    19    16    17   ar
    20    17    18   ar
    21    18    19   ar
    22    19    20   ar
    23    20    21    1
    24    20    22   ar
    25    22    23    1
    26     6     7   ar
    27     7     8    1
    28    31    32    1
    29    32    28    1
    30     7     1   ar
    31    22    16   ar
    32    10    14    1
    33    13    15    1
    34     8     9    1
@<TRIPOS>MOLECULE
*****
 32 34 0 0 0
SMALL
GASTEIGER

@<TRIPOS>ATOM
      1 C           6.4215   -1.1067   33.3371 C.ar    1  UNL1        0.1508
      2 C           7.8652   -0.8795   33.6746 C.ar    1  UNL1        0.0778
      3 CL          8.2679    0.3222   34.4768 Cl      1  UNL1       -0.0808
      4 C           8.9064   -1.8542   33.2098 C.ar    1  UNL1        0.0142
      5 C           8.5037   -3.0560   32.4075 C.ar    1  UNL1        0.0187
      6 C           7.0600   -3.2831   32.0700 C.ar    1  UNL1        0.0870
      7 C           6.0188   -2.3084   32.5348 C.ar    1  UNL1        0.1650
      8 O           4.5750   -2.5355   32.1973 O.3     1  UNL1       -0.5032
      9 H           4.3235   -3.2862   31.6962 H       1  UNL1        0.2923
     10 N           6.6573   -4.4849   31.2678 N.am    1  UNL1       -0.2656
     11 C           7.0923   -4.6122   29.8379 C.2     1  UNL1        0.3083
     12 O           7.9300   -3.5377   29.2103 O.2     1  UNL1       -0.2521
     13 N           6.6897   -5.8140   29.0356 N.am    1  UNL1       -0.2673
     14 H           6.1076   -5.1900   31.6797 H       1  UNL1        0.1565
     15 H           6.1399   -6.5192   29.4476 H       1  UNL1        0.1564
     16 C           7.1248   -5.9413   27.6057 C.ar    1  UNL1        0.0630
     17 C           6.5772   -5.0056   26.5691 C.ar    1  UNL1        0.0156
     18 C           7.0123   -5.1329   25.1391 C.ar    1  UNL1        0.0022
     19 C           7.9949   -6.1959   24.7460 C.ar    1  UNL1        0.0123
     20 C           8.5424   -7.1316   25.7827 C.ar    1  UNL1        0.0694
     21 CL          9.5251   -8.1945   25.3896 Cl      1  UNL1       -0.0813
     22 C           8.1074   -7.0042   27.2126 C.ar    1  UNL1        0.0816
     23 CL          8.6549   -7.9399   28.2493 Cl      1  UNL1       -0.0801
     24 S           5.3803   -0.1320   33.8018 S.O2    1  UNL1        0.0121
     25 O           5.4347    0.5602   32.4723 O.2     1  UNL1       -0.1685
     26 O           5.3259   -0.8242   35.1314 O.2     1  UNL1       -0.1685
     27 C           1.5025    3.4518   33.8069 C.3     1  UNL1        0.0897
     28 N           2.5567    2.4899   34.2689 N.3     1  UNL1       -0.2700
     29 C           2.9171    2.1949   35.6949 C.3     1  UNL1        0.0740
     30 C           4.0187    1.1769   35.6934 C.3     1  UNL1        0.0427
     31 C           4.3391    0.8426   34.2666 C.3     1  UNL1        0.1512
     32 C           3.4356    1.6541   33.3863 C.3     1  UNL1        0.0964
@<TRIPOS>BOND
     1    27    28    1
     2    28    29    1
     3    29    30    1
     4    30    31    1
     5    31    24    1
     6    24    25    2
     7    24    26    2
     8    24     1    1
     9     1     2   ar
    10     2     3    1
    11     2     4   ar
    12     4     5   ar
    13     5     6   ar
    14     6    10    1
    15    10    11   am
    16    11    12    2
    17    11    13   am
    18    13    16    1
    19    16    17   ar
    20    17    18   ar
    21    18    19   ar
    22    19    20   ar
    23    20    21    1
    24    20    22   ar
    25    22    23    1
    26     6     7   ar
    27     7     8    1
    28    31    32    1
    29    32    28    1
    30     7     1   ar
    31    22    16   ar
    32    10    14    1
    33    13    15    1
    34     8     9    1
