@<TRIPOS>MOLECULE
*****
 35 37 0 0 0
SMALL
GASTEIGER

@<TRIPOS>ATOM
      1 C          -9.9954  -18.7874   25.6787 C.3     1  UNL1        0.1152
      2 N          -9.6404  -18.4185   24.2688 N.am    1  UNL1       -0.2729
      3 C          -9.0806  -19.4554   23.3406 C.2     1  UNL1        0.2459
      4 O          -8.8758  -20.8610   23.8223 O.2     1  UNL1       -0.2730
      5 C          -8.7256  -19.0865   21.9306 C.3     1  UNL1        0.1738
      6 N          -7.8153  -19.9704   21.1306 N.pl3   1  UNL1       -0.3253
      7 H          -8.1942  -20.6409   20.5174 H       1  UNL1        0.1473
      8 C          -6.3276  -19.8327   21.2651 C.ar    1  UNL1        0.0450
      9 C          -5.7482  -19.0043   22.3732 C.ar    1  UNL1        0.0140
     10 C          -4.2606  -18.8667   22.5076 C.ar    1  UNL1       -0.0016
     11 C          -3.3525  -19.5573   21.5339 C.ar    1  UNL1       -0.0047
     12 C          -3.9319  -20.3857   20.4257 C.ar    1  UNL1       -0.0016
     13 C          -5.4195  -20.5233   20.2913 C.ar    1  UNL1        0.0140
     14 C          -1.8648  -19.4196   21.6683 C.3     1  UNL1        0.1173
     15 N          -1.1585  -18.2593   21.0322 N.3     1  UNL1       -0.1788
     16 H          -0.2505  -18.6028   20.7194 H       1  UNL1        0.1488
     17 S          -1.7796  -17.5519   19.8643 S.O2    1  UNL1        0.0429
     18 C          -2.4006  -16.8445   18.6965 C.3     1  UNL1        0.1957
     19 O          -2.3747  -16.5375   20.7952 O.2     1  UNL1       -0.1574
     20 O          -1.1844  -18.5663   18.9333 O.2     1  UNL1       -0.1574
     21 C          -9.8453  -17.0128   23.7871 C.3     1  UNL1        0.1139
     22 C         -10.6667  -16.7530   22.5592 C.ar    1  UNL1       -0.0029
     23 C         -10.1132  -15.9059   21.4519 C.ar    1  UNL1       -0.0026
     24 C         -10.9347  -15.6461   20.2240 C.ar    1  UNL1       -0.0003
     25 C         -12.3097  -16.2334   20.1034 C.ar    1  UNL1       -0.0000
     26 C         -12.8632  -17.0804   21.2107 C.ar    1  UNL1       -0.0003
     27 C         -12.0417  -17.3403   22.4386 C.ar    1  UNL1       -0.0026
     28 C          -9.2287  -15.8670   24.5332 C.3     1  UNL1        0.0968
     29 N          -7.7375  -15.7078   24.5642 N.3     1  UNL1       -0.2689
     30 C          -6.8934  -15.5468   25.7937 C.3     1  UNL1        0.0748
     31 C          -5.4628  -15.4212   25.3606 C.3     1  UNL1        0.0480
     32 C          -5.4227  -15.5045   23.8634 C.3     1  UNL1        0.1278
     33 O          -4.1928  -15.4246   23.0085 O.3     1  UNL1       -0.3830
     34 C          -6.8286  -15.6816   23.3712 C.3     1  UNL1        0.1017
     35 H          -4.4423  -15.5055   22.0746 H       1  UNL1        0.2104
@<TRIPOS>BOND
     1     1     2    1
     2     2     3   am
     3     3     4    2
     4     3     5    1
     5     5     6    1
     6     6     8    1
     7     8     9   ar
     8     9    10   ar
     9    10    11   ar
    10    11    14    1
    11    14    15    1
    12    15    17    1
    13    17    18    1
    14    17    19    2
    15    17    20    2
    16    11    12   ar
    17    12    13   ar
    18     2    21    1
    19    21    28    1
    20    28    29    1
    21    29    30    1
    22    30    31    1
    23    31    32    1
    24    32    33    1
    25    32    34    1
    26    21    22    1
    27    22    23   ar
    28    23    24   ar
    29    24    25   ar
    30    25    26   ar
    31    26    27   ar
    32    13     8   ar
    33    34    29    1
    34    27    22   ar
    35     6     7    1
    36    15    16    1
    37    33    35    1
@<TRIPOS>MOLECULE
*****
 35 37 0 0 0
SMALL
GASTEIGER

@<TRIPOS>ATOM
      1 C         -10.2084  -18.8601   25.6353 C.3     1  UNL1        0.1152
      2 N          -9.5947  -18.2432   24.4136 N.am    1  UNL1       -0.2729
      3 C          -9.2573  -19.1001   23.2296 C.2     1  UNL1        0.2459
      4 O          -9.5336  -20.5739   23.2674 O.2     1  UNL1       -0.2730
      5 C          -8.6435  -18.4832   22.0078 C.3     1  UNL1        0.1738
      6 N          -7.8287  -19.3251   21.0712 N.pl3   1  UNL1       -0.3253
      7 H          -8.2715  -19.8288   20.3505 H       1  UNL1        0.1473
      8 C          -6.3392  -19.3996   21.2327 C.ar    1  UNL1        0.0450
      9 C          -5.6730  -18.6969   22.3782 C.ar    1  UNL1        0.0140
     10 C          -4.1836  -18.7714   22.5397 C.ar    1  UNL1       -0.0016
     11 C          -3.3605  -19.5487   21.5556 C.ar    1  UNL1       -0.0047
     12 C          -4.0267  -20.2514   20.4101 C.ar    1  UNL1       -0.0016
     13 C          -5.5161  -20.1768   20.2487 C.ar    1  UNL1        0.0140
     14 C          -1.8710  -19.6232   21.7171 C.3     1  UNL1        0.1173
     15 N          -1.0188  -18.4386   21.3700 N.3     1  UNL1       -0.1788
     16 H          -0.0753  -18.6492   21.6953 H       1  UNL1        0.1488
     17 S          -0.8957  -17.9959   19.9421 S.O2    1  UNL1        0.0429
     18 C          -0.7726  -17.5532   18.5142 C.3     1  UNL1        0.1957
     19 O           0.2254  -18.9710   19.7364 O.2     1  UNL1       -0.1574
     20 O          -2.0168  -17.0208   20.1477 O.2     1  UNL1       -0.1574
     21 C          -9.3184  -16.7693   24.3758 C.3     1  UNL1        0.1139
     22 C          -8.0175  -16.2365   24.8991 C.ar    1  UNL1       -0.0029
     23 C          -7.8342  -16.0191   26.3719 C.ar    1  UNL1       -0.0026
     24 C          -6.5333  -15.4863   26.8952 C.ar    1  UNL1       -0.0003
     25 C          -5.4158  -15.1708   25.9457 C.ar    1  UNL1       -0.0000
     26 C          -5.5991  -15.3881   24.4729 C.ar    1  UNL1       -0.0003
     27 C          -6.8999  -15.9210   23.9496 C.ar    1  UNL1       -0.0026
     28 C         -10.3428  -15.8283   23.8147 C.3     1  UNL1        0.0968
     29 N         -11.1703  -16.2384   22.6327 N.3     1  UNL1       -0.2689
     30 C         -12.3519  -17.1620   22.6615 C.3     1  UNL1        0.0748
     31 C         -12.8734  -17.2914   21.2610 C.3     1  UNL1        0.0480
     32 C         -12.0141  -16.4478   20.3667 C.3     1  UNL1        0.1278
     33 O         -12.1784  -16.2837   18.8848 O.3     1  UNL1       -0.3830
     34 C         -10.9615  -15.7969   21.2144 C.3     1  UNL1        0.1017
     35 H         -11.4934  -15.6852   18.5478 H       1  UNL1        0.2104
@<TRIPOS>BOND
     1     1     2    1
     2     2     3   am
     3     3     4    2
     4     3     5    1
     5     5     6    1
     6     6     8    1
     7     8     9   ar
     8     9    10   ar
     9    10    11   ar
    10    11    14    1
    11    14    15    1
    12    15    17    1
    13    17    18    1
    14    17    19    2
    15    17    20    2
    16    11    12   ar
    17    12    13   ar
    18     2    21    1
    19    21    28    1
    20    28    29    1
    21    29    30    1
    22    30    31    1
    23    31    32    1
    24    32    33    1
    25    32    34    1
    26    21    22    1
    27    22    23   ar
    28    23    24   ar
    29    24    25   ar
    30    25    26   ar
    31    26    27   ar
    32    13     8   ar
    33    34    29    1
    34    27    22   ar
    35     6     7    1
    36    15    16    1
    37    33    35    1
@<TRIPOS>MOLECULE
*****
 35 37 0 0 0
SMALL
GASTEIGER

@<TRIPOS>ATOM
      1 C         -10.4917  -15.8443   21.4756 C.3     1  UNL1        0.1152
      2 N          -9.8905  -17.1680   21.8450 N.am    1  UNL1       -0.2729
      3 C          -9.6426  -18.2008   20.7858 C.2     1  UNL1        0.2459
      4 O          -9.9960  -17.9099   19.3574 O.2     1  UNL1       -0.2730
      5 C          -9.0414  -19.5245   21.1552 C.3     1  UNL1        0.1738
      6 N          -7.9426  -20.1089   20.3179 N.pl3   1  UNL1       -0.3253
      7 H          -8.1604  -20.5990   19.4923 H       1  UNL1        0.1473
      8 C          -6.5119  -19.9465   20.7385 C.ar    1  UNL1        0.0450
      9 C          -5.4184  -20.5984   19.9453 C.ar    1  UNL1        0.0140
     10 C          -3.9877  -20.4360   20.3658 C.ar    1  UNL1       -0.0016
     11 C          -3.6507  -19.6217   21.5796 C.ar    1  UNL1       -0.0047
     12 C          -4.7442  -18.9698   22.3729 C.ar    1  UNL1       -0.0016
     13 C          -6.1748  -19.1322   21.9523 C.ar    1  UNL1        0.0140
     14 C          -2.2200  -19.4593   22.0002 C.3     1  UNL1        0.1173
     15 N          -1.4242  -18.2843   21.5145 N.3     1  UNL1       -0.1788
     16 H          -0.4512  -18.4653   21.7613 H       1  UNL1        0.1488
     17 S          -1.4408  -17.9167   20.0603 S.O2    1  UNL1        0.0429
     18 C          -1.4574  -17.5492   18.6061 C.3     1  UNL1        0.1957
     19 O          -0.3716  -18.9337   19.7911 O.2     1  UNL1       -0.1574
     20 O          -2.5100  -16.8998   20.3295 O.2     1  UNL1       -0.1574
     21 C          -9.5372  -17.4588   23.2735 C.3     1  UNL1        0.1139
     22 C          -8.4603  -16.6683   23.9556 C.ar    1  UNL1       -0.0029
     23 C          -7.2853  -16.1671   23.1692 C.ar    1  UNL1       -0.0026
     24 C          -6.2084  -15.3766   23.8514 C.ar    1  UNL1       -0.0003
     25 C          -6.3065  -15.0871   25.3199 C.ar    1  UNL1       -0.0000
     26 C          -7.4814  -15.5883   26.1063 C.ar    1  UNL1       -0.0003
     27 C          -8.5583  -16.3788   25.4242 C.ar    1  UNL1       -0.0026
     28 C         -10.2607  -18.5402   24.0198 C.3     1  UNL1        0.0968
     29 N         -11.7406  -18.4373   24.2415 N.3     1  UNL1       -0.2689
     30 C         -12.7465  -17.9239   23.2542 C.3     1  UNL1        0.0748
     31 C         -14.1021  -17.9991   23.8919 C.3     1  UNL1        0.0480
     32 C         -13.9341  -18.5590   25.2733 C.3     1  UNL1        0.1278
     33 O         -15.0326  -18.8048   26.2647 O.3     1  UNL1       -0.3830
     34 C         -12.4746  -18.8298   25.4895 C.3     1  UNL1        0.1017
     35 H         -14.6562  -19.1708   27.0803 H       1  UNL1        0.2104
@<TRIPOS>BOND
     1     1     2    1
     2     2     3   am
     3     3     4    2
     4     3     5    1
     5     5     6    1
     6     6     8    1
     7     8     9   ar
     8     9    10   ar
     9    10    11   ar
    10    11    14    1
    11    14    15    1
    12    15    17    1
    13    17    18    1
    14    17    19    2
    15    17    20    2
    16    11    12   ar
    17    12    13   ar
    18     2    21    1
    19    21    28    1
    20    28    29    1
    21    29    30    1
    22    30    31    1
    23    31    32    1
    24    32    33    1
    25    32    34    1
    26    21    22    1
    27    22    23   ar
    28    23    24   ar
    29    24    25   ar
    30    25    26   ar
    31    26    27   ar
    32    13     8   ar
    33    34    29    1
    34    27    22   ar
    35     6     7    1
    36    15    16    1
    37    33    35    1
@<TRIPOS>MOLECULE
*****
 35 37 0 0 0
SMALL
GASTEIGER

@<TRIPOS>ATOM
      1 C           4.3399    2.0228   18.4260 C.3     1  UNL1        0.1152
      2 N           3.9295    0.5899   18.5945 N.am    1  UNL1       -0.2729
      3 C           4.4277   -0.4506   17.6357 C.2     1  UNL1        0.2459
      4 O           5.3362   -0.0582   16.5085 O.2     1  UNL1       -0.2730
      5 C           4.0172   -1.8835   17.8042 C.3     1  UNL1        0.1738
      6 N           5.0469   -2.9258   18.1257 N.pl3   1  UNL1       -0.3253
      7 H           5.4906   -3.4200   17.3989 H       1  UNL1        0.1473
      8 C           5.4006   -3.2150   19.5544 C.ar    1  UNL1        0.0450
      9 C           6.8301   -3.1414   20.0029 C.ar    1  UNL1        0.0140
     10 C           7.1837   -3.4307   21.4316 C.ar    1  UNL1       -0.0016
     11 C           6.1079   -3.7936   22.4118 C.ar    1  UNL1       -0.0047
     12 C           4.6784   -3.8672   21.9634 C.ar    1  UNL1       -0.0016
     13 C           4.3248   -3.5779   20.5347 C.ar    1  UNL1        0.0140
     14 C           6.4616   -4.0829   23.8406 C.3     1  UNL1        0.1173
     15 N           7.7849   -4.7051   24.1744 N.3     1  UNL1       -0.1788
     16 H           8.2044   -4.1306   24.9055 H       1  UNL1        0.1488
     17 S           7.8467   -6.1260   24.6513 S.O2    1  UNL1        0.0429
     18 C           7.9084   -7.5467   25.1283 C.3     1  UNL1        0.1957
     19 O           7.5204   -5.6728   26.0435 O.2     1  UNL1       -0.1574
     20 O           8.1730   -6.5791   23.2592 O.2     1  UNL1       -0.1574
     21 C           3.0210    0.1975   19.7217 C.3     1  UNL1        0.1139
     22 C           3.5891   -0.0746   21.0829 C.ar    1  UNL1       -0.0029
     23 C           2.6850   -0.5000   22.2017 C.ar    1  UNL1       -0.0026
     24 C           3.2532   -0.7721   23.5630 C.ar    1  UNL1       -0.0003
     25 C           4.7255   -0.6189   23.8055 C.ar    1  UNL1       -0.0000
     26 C           5.6297   -0.1936   22.6868 C.ar    1  UNL1       -0.0003
     27 C           5.0615    0.0786   21.3255 C.ar    1  UNL1       -0.0026
     28 C           1.5443    0.0773   19.4876 C.3     1  UNL1        0.0968
     29 N           0.6830    1.3054   19.4841 N.3     1  UNL1       -0.2689
     30 C           0.5819    2.3082   18.3732 C.3     1  UNL1        0.0748
     31 C          -0.3920    3.3689   18.7934 C.3     1  UNL1        0.0480
     32 C          -0.8928    3.0216   20.1640 C.3     1  UNL1        0.1278
     33 O          -1.8840    3.8109   20.9668 O.3     1  UNL1       -0.3830
     34 C          -0.2285    1.7462   20.5909 C.3     1  UNL1        0.1017
     35 H          -2.0360    3.3697   21.8171 H       1  UNL1        0.2104
@<TRIPOS>BOND
     1     1     2    1
     2     2     3   am
     3     3     4    2
     4     3     5    1
     5     5     6    1
     6     6     8    1
     7     8     9   ar
     8     9    10   ar
     9    10    11   ar
    10    11    14    1
    11    14    15    1
    12    15    17    1
    13    17    18    1
    14    17    19    2
    15    17    20    2
    16    11    12   ar
    17    12    13   ar
    18     2    21    1
    19    21    28    1
    20    28    29    1
    21    29    30    1
    22    30    31    1
    23    31    32    1
    24    32    33    1
    25    32    34    1
    26    21    22    1
    27    22    23   ar
    28    23    24   ar
    29    24    25   ar
    30    25    26   ar
    31    26    27   ar
    32    13     8   ar
    33    34    29    1
    34    27    22   ar
    35     6     7    1
    36    15    16    1
    37    33    35    1
@<TRIPOS>MOLECULE
*****
 35 37 0 0 0
SMALL
GASTEIGER

@<TRIPOS>ATOM
      1 C           6.6859    1.3654   17.6638 C.3     1  UNL1        0.1152
      2 N           5.7139    0.8526   18.6847 N.am    1  UNL1       -0.2729
      3 C           6.0937    0.8271   20.1355 C.2     1  UNL1        0.2459
      4 O           7.4456    1.3145   20.5655 O.2     1  UNL1       -0.2730
      5 C           5.1217    0.3143   21.1565 C.3     1  UNL1        0.1738
      6 N           4.5657    1.2425   22.1953 N.pl3   1  UNL1       -0.3253
      7 H           5.1376    1.5544   22.9334 H       1  UNL1        0.1473
      8 C           3.1383    1.6956   22.1095 C.ar    1  UNL1        0.0450
      9 C           2.8158    3.1604   22.0964 C.ar    1  UNL1        0.0140
     10 C           1.3884    3.6134   22.0106 C.ar    1  UNL1       -0.0016
     11 C           0.2835    2.6015   21.9379 C.ar    1  UNL1       -0.0047
     12 C           0.6060    1.1366   21.9510 C.ar    1  UNL1       -0.0016
     13 C           2.0334    0.6837   22.0368 C.ar    1  UNL1        0.0140
     14 C          -1.1439    3.0545   21.8521 C.3     1  UNL1        0.1173
     15 N          -1.9890    2.6530   20.6797 N.3     1  UNL1       -0.1788
     16 H          -2.3334    1.7126   20.8734 H       1  UNL1        0.1488
     17 S          -3.1802    3.4798   20.2956 S.O2    1  UNL1        0.0429
     18 C          -4.3713    4.3066   19.9114 C.3     1  UNL1        0.1957
     19 O          -2.3488    4.2053   19.2795 O.2     1  UNL1       -0.1574
     20 O          -4.0115    2.7543   21.3116 O.2     1  UNL1       -0.1574
     21 C           4.3620    0.3653   18.2547 C.3     1  UNL1        0.1139
     22 C           3.1813    1.2891   18.3034 C.ar    1  UNL1       -0.0029
     23 C           1.7899    0.7287   18.3019 C.ar    1  UNL1       -0.0026
     24 C           0.6092    1.6527   18.3506 C.ar    1  UNL1       -0.0003
     25 C           0.8199    3.1369   18.4007 C.ar    1  UNL1       -0.0000
     26 C           2.2113    3.6973   18.4022 C.ar    1  UNL1       -0.0003
     27 C           3.3919    2.7735   18.3535 C.ar    1  UNL1       -0.0026
     28 C           4.1908   -1.0459   17.7760 C.3     1  UNL1        0.0968
     29 N           4.4754   -2.1916   18.7014 N.3     1  UNL1       -0.2689
     30 C           3.4537   -2.9949   19.4503 C.3     1  UNL1        0.0748
     31 C           4.1786   -4.0349   20.2522 C.3     1  UNL1        0.0480
     32 C           5.6483   -3.8743   19.9989 C.3     1  UNL1        0.1278
     33 O           6.7425   -4.7068   20.5987 O.3     1  UNL1       -0.3830
     34 C           5.8318   -2.7351   19.0405 C.3     1  UNL1        0.1017
     35 H           7.6013   -4.3964   20.2714 H       1  UNL1        0.2104
@<TRIPOS>BOND
     1     1     2    1
     2     2     3   am
     3     3     4    2
     4     3     5    1
     5     5     6    1
     6     6     8    1
     7     8     9   ar
     8     9    10   ar
     9    10    11   ar
    10    11    14    1
    11    14    15    1
    12    15    17    1
    13    17    18    1
    14    17    19    2
    15    17    20    2
    16    11    12   ar
    17    12    13   ar
    18     2    21    1
    19    21    28    1
    20    28    29    1
    21    29    30    1
    22    30    31    1
    23    31    32    1
    24    32    33    1
    25    32    34    1
    26    21    22    1
    27    22    23   ar
    28    23    24   ar
    29    24    25   ar
    30    25    26   ar
    31    26    27   ar
    32    13     8   ar
    33    34    29    1
    34    27    22   ar
    35     6     7    1
    36    15    16    1
    37    33    35    1
@<TRIPOS>MOLECULE
*****
 35 37 0 0 0
SMALL
GASTEIGER

@<TRIPOS>ATOM
      1 C           4.5955    2.5090   26.4536 C.3     1  UNL1        0.1152
      2 N           3.8814    1.2841   25.9641 N.am    1  UNL1       -0.2729
      3 C           4.5838   -0.0412   25.9576 C.2     1  UNL1        0.2459
      4 O           6.0004   -0.1416   26.4406 O.2     1  UNL1       -0.2730
      5 C           3.8697   -1.2662   25.4681 C.3     1  UNL1        0.1738
      6 N           4.6169   -2.3102   24.6925 N.pl3   1  UNL1       -0.3253
      7 H           5.2577   -2.9000   25.1517 H       1  UNL1        0.1473
      8 C           4.3879   -2.4557   23.2172 C.ar    1  UNL1        0.0450
      9 C           3.6734   -1.3765   22.4591 C.ar    1  UNL1        0.0140
     10 C           3.4445   -1.5219   20.9839 C.ar    1  UNL1       -0.0016
     11 C           3.9300   -2.7467   20.2667 C.ar    1  UNL1       -0.0047
     12 C           4.6445   -3.8259   21.0248 C.ar    1  UNL1       -0.0016
     13 C           4.8734   -3.6804   22.5000 C.ar    1  UNL1        0.0140
     14 C           3.7010   -2.8921   18.7914 C.3     1  UNL1        0.1173
     15 N           4.8215   -2.6308   17.8291 N.3     1  UNL1       -0.1788
     16 H           4.5989   -3.1386   16.9730 H       1  UNL1        0.1488
     17 S           5.1506   -1.2242   17.4252 S.O2    1  UNL1        0.0429
     18 C           5.4796    0.1824   17.0213 C.3     1  UNL1        0.1957
     19 O           3.6891   -0.8873   17.4079 O.2     1  UNL1       -0.1574
     20 O           6.6121   -1.5611   17.4424 O.2     1  UNL1       -0.1574
     21 C           2.4648    1.3845   25.4811 C.3     1  UNL1        0.1139
     22 C           2.1812    1.5423   24.0167 C.ar    1  UNL1       -0.0029
     23 C           3.1927    2.1968   23.1231 C.ar    1  UNL1       -0.0026
     24 C           2.9089    2.3546   21.6586 C.ar    1  UNL1       -0.0003
     25 C           1.6138    1.8580   21.0878 C.ar    1  UNL1       -0.0000
     26 C           0.6022    1.2035   21.9814 C.ar    1  UNL1       -0.0003
     27 C           0.8859    1.0457   23.4458 C.ar    1  UNL1       -0.0026
     28 C           1.3319    1.3271   26.4625 C.3     1  UNL1        0.0968
     29 N           1.6066    1.0408   27.9091 N.3     1  UNL1       -0.2689
     30 C           1.7469    2.0620   28.9988 C.3     1  UNL1        0.0748
     31 C           2.0162    1.3354   30.2832 C.3     1  UNL1        0.0480
     32 C           2.0422   -0.1349   29.9873 C.3     1  UNL1        0.1278
     33 O           2.2797   -1.2308   30.9836 O.3     1  UNL1       -0.3830
     34 C           1.7891   -0.3171   28.5200 C.3     1  UNL1        0.1017
     35 H           2.2454   -2.0896   30.5340 H       1  UNL1        0.2104
@<TRIPOS>BOND
     1     1     2    1
     2     2     3   am
     3     3     4    2
     4     3     5    1
     5     5     6    1
     6     6     8    1
     7     8     9   ar
     8     9    10   ar
     9    10    11   ar
    10    11    14    1
    11    14    15    1
    12    15    17    1
    13    17    18    1
    14    17    19    2
    15    17    20    2
    16    11    12   ar
    17    12    13   ar
    18     2    21    1
    19    21    28    1
    20    28    29    1
    21    29    30    1
    22    30    31    1
    23    31    32    1
    24    32    33    1
    25    32    34    1
    26    21    22    1
    27    22    23   ar
    28    23    24   ar
    29    24    25   ar
    30    25    26   ar
    31    26    27   ar
    32    13     8   ar
    33    34    29    1
    34    27    22   ar
    35     6     7    1
    36    15    16    1
    37    33    35    1
@<TRIPOS>MOLECULE
*****
 35 37 0 0 0
SMALL
GASTEIGER

@<TRIPOS>ATOM
      1 C           6.5105   -1.8669   17.9010 C.3     1  UNL1        0.1152
      2 N           5.9852   -1.3670   19.2140 N.am    1  UNL1       -0.2729
      3 C           6.7829   -0.3805   20.0143 C.2     1  UNL1        0.2459
      4 O           8.1059    0.1060   19.5015 O.2     1  UNL1       -0.2730
      5 C           6.2576    0.1195   21.3274 C.3     1  UNL1        0.1738
      6 N           5.4420    1.3773   21.3789 N.pl3   1  UNL1       -0.3253
      7 H           5.7588    2.1886   20.9199 H       1  UNL1        0.1473
      8 C           4.1436    1.3991   22.1298 C.ar    1  UNL1        0.0450
      9 C           3.1091    2.4368   21.8092 C.ar    1  UNL1        0.0140
     10 C           1.8107    2.4585   22.5600 C.ar    1  UNL1       -0.0016
     11 C           1.5469    1.4425   23.6315 C.ar    1  UNL1       -0.0047
     12 C           2.5814    0.4047   23.9521 C.ar    1  UNL1       -0.0016
     13 C           3.8797    0.3830   23.2013 C.ar    1  UNL1        0.0140
     14 C           0.2485    1.4642   24.3824 C.3     1  UNL1        0.1173
     15 N           0.1068    0.6881   25.6581 N.3     1  UNL1       -0.1788
     16 H           0.8703    0.0120   25.6778 H       1  UNL1        0.1488
     17 S           0.1269    1.4025   26.9769 S.O2    1  UNL1        0.0429
     18 C           0.1469    2.1170   28.2956 C.3     1  UNL1        0.1957
     19 O          -1.1422    2.1135   26.6110 O.2     1  UNL1       -0.1574
     20 O           1.3959    0.6915   27.3428 O.2     1  UNL1       -0.1574
     21 C           4.6621   -1.8535   19.7267 C.3     1  UNL1        0.1139
     22 C           3.4350   -1.0078   19.5569 C.ar    1  UNL1       -0.0029
     23 C           2.2369   -1.2409   20.4288 C.ar    1  UNL1       -0.0026
     24 C           1.0097   -0.3951   20.2589 C.ar    1  UNL1       -0.0003
     25 C           0.9807    0.6837   19.2171 C.ar    1  UNL1       -0.0000
     26 C           2.1788    0.9168   18.3452 C.ar    1  UNL1       -0.0003
     27 C           3.4060    0.0711   18.5151 C.ar    1  UNL1       -0.0026
     28 C           4.5662   -3.1857   20.4093 C.3     1  UNL1        0.0968
     29 N           5.3924   -3.4642   21.6299 N.3     1  UNL1       -0.2689
     30 C           6.8443   -3.8409   21.6448 C.3     1  UNL1        0.0748
     31 C           7.2609   -4.0245   23.0740 C.3     1  UNL1        0.0480
     32 C           6.0666   -3.7613   23.9425 C.3     1  UNL1        0.1278
     33 O           6.0329   -3.8319   25.4404 O.3     1  UNL1       -0.3830
     34 C           4.9117   -3.4150   23.0500 C.3     1  UNL1        0.1017
     35 H           5.1404   -3.6175   25.7542 H       1  UNL1        0.2104
@<TRIPOS>BOND
     1     1     2    1
     2     2     3   am
     3     3     4    2
     4     3     5    1
     5     5     6    1
     6     6     8    1
     7     8     9   ar
     8     9    10   ar
     9    10    11   ar
    10    11    14    1
    11    14    15    1
    12    15    17    1
    13    17    18    1
    14    17    19    2
    15    17    20    2
    16    11    12   ar
    17    12    13   ar
    18     2    21    1
    19    21    28    1
    20    28    29    1
    21    29    30    1
    22    30    31    1
    23    31    32    1
    24    32    33    1
    25    32    34    1
    26    21    22    1
    27    22    23   ar
    28    23    24   ar
    29    24    25   ar
    30    25    26   ar
    31    26    27   ar
    32    13     8   ar
    33    34    29    1
    34    27    22   ar
    35     6     7    1
    36    15    16    1
    37    33    35    1
@<TRIPOS>MOLECULE
*****
 35 37 0 0 0
SMALL
GASTEIGER

@<TRIPOS>ATOM
      1 C           8.1654   -2.0267   20.2257 C.3     1  UNL1        0.1152
      2 N           6.7035   -2.2930   20.0213 N.am    1  UNL1       -0.2729
      3 C           6.1371   -2.3425   18.6333 C.2     1  UNL1        0.2459
      4 O           7.0326   -2.1257   17.4496 O.2     1  UNL1       -0.2730
      5 C           4.6751   -2.6087   18.4289 C.3     1  UNL1        0.1738
      6 N           3.8086   -1.5740   17.7742 N.pl3   1  UNL1       -0.3253
      7 H           3.8508   -1.4418   16.7996 H       1  UNL1        0.1473
      8 C           2.8779   -0.7407   18.6046 C.ar    1  UNL1        0.0450
      9 C           2.7608    0.7327   18.3496 C.ar    1  UNL1        0.0140
     10 C           1.8301    1.5659   19.1799 C.ar    1  UNL1       -0.0016
     11 C           1.0165    0.9257   20.2653 C.ar    1  UNL1       -0.0047
     12 C           1.1336   -0.5478   20.5204 C.ar    1  UNL1       -0.0016
     13 C           2.0643   -1.3810   19.6900 C.ar    1  UNL1        0.0140
     14 C           0.0858    1.7590   21.0957 C.3     1  UNL1        0.1173
     15 N          -1.1545    2.3364   20.4808 N.3     1  UNL1       -0.1788
     16 H          -1.8042    1.5618   20.3456 H       1  UNL1        0.1488
     17 S          -1.9118    3.4173   21.1939 S.O2    1  UNL1        0.0429
     18 C          -2.6691    4.4980   21.9069 C.3     1  UNL1        0.1957
     19 O          -3.2039    2.7334   20.8581 O.2     1  UNL1       -0.1574
     20 O          -0.6197    4.1011   21.5297 O.2     1  UNL1       -0.1574
     21 C           5.8080   -2.5098   21.2050 C.3     1  UNL1        0.1139
     22 C           5.0375   -1.3600   21.7831 C.ar    1  UNL1       -0.0029
     23 C           5.2971    0.0358   21.2990 C.ar    1  UNL1       -0.0026
     24 C           4.5265    1.1857   21.8771 C.ar    1  UNL1       -0.0003
     25 C           3.4964    0.9397   22.9393 C.ar    1  UNL1       -0.0000
     26 C           3.2368   -0.4561   23.4234 C.ar    1  UNL1       -0.0003
     27 C           4.0073   -1.6059   22.8453 C.ar    1  UNL1       -0.0026
     28 C           5.6830   -3.8763   21.8106 C.3     1  UNL1        0.0968
     29 N           6.5934   -4.2868   22.9298 N.3     1  UNL1       -0.2689
     30 C           7.8659   -5.0685   22.7897 C.3     1  UNL1        0.0748
     31 C           8.4501   -5.2525   24.1590 C.3     1  UNL1        0.0480
     32 C           7.5385   -4.5846   25.1454 C.3     1  UNL1        0.1278
     33 O           7.7393   -4.5241   26.6307 O.3     1  UNL1       -0.3830
     34 C           6.3910   -3.9877   24.3858 C.3     1  UNL1        0.1017
     35 H           7.0067   -4.0345   27.0363 H       1  UNL1        0.2104
@<TRIPOS>BOND
     1     1     2    1
     2     2     3   am
     3     3     4    2
     4     3     5    1
     5     5     6    1
     6     6     8    1
     7     8     9   ar
     8     9    10   ar
     9    10    11   ar
    10    11    14    1
    11    14    15    1
    12    15    17    1
    13    17    18    1
    14    17    19    2
    15    17    20    2
    16    11    12   ar
    17    12    13   ar
    18     2    21    1
    19    21    28    1
    20    28    29    1
    21    29    30    1
    22    30    31    1
    23    31    32    1
    24    32    33    1
    25    32    34    1
    26    21    22    1
    27    22    23   ar
    28    23    24   ar
    29    24    25   ar
    30    25    26   ar
    31    26    27   ar
    32    13     8   ar
    33    34    29    1
    34    27    22   ar
    35     6     7    1
    36    15    16    1
    37    33    35    1
@<TRIPOS>MOLECULE
*****
 35 37 0 0 0
SMALL
GASTEIGER

@<TRIPOS>ATOM
      1 C         -18.6643   -1.9434   20.0970 C.3     1  UNL1        0.1152
      2 N         -17.6100   -2.3011   19.0918 N.am    1  UNL1       -0.2729
      3 C         -17.8733   -2.1080   17.6278 C.2     1  UNL1        0.2459
      4 O         -19.1909   -1.5571   17.1690 O.2     1  UNL1       -0.2730
      5 C         -16.8190   -2.4658   16.6225 C.3     1  UNL1        0.1738
      6 N         -16.8213   -3.8231   15.9841 N.pl3   1  UNL1       -0.3253
      7 H         -17.6247   -4.1450   15.5150 H       1  UNL1        0.1473
      8 C         -15.5994   -4.6899   16.0603 C.ar    1  UNL1        0.0450
      9 C         -15.7322   -6.1819   15.9823 C.ar    1  UNL1        0.0140
     10 C         -14.5104   -7.0486   16.0585 C.ar    1  UNL1       -0.0016
     11 C         -13.1557   -6.4233   16.2128 C.ar    1  UNL1       -0.0047
     12 C         -13.0228   -4.9313   16.2908 C.ar    1  UNL1       -0.0016
     13 C         -14.2447   -4.0646   16.2145 C.ar    1  UNL1        0.0140
     14 C         -11.9338   -7.2901   16.2890 C.3     1  UNL1        0.1173
     15 N         -11.5707   -7.9627   17.5796 N.3     1  UNL1       -0.1788
     16 H         -11.4236   -8.9492   17.3663 H       1  UNL1        0.1488
     17 S         -10.3704   -7.5032   18.3531 S.O2    1  UNL1        0.0429
     18 C          -9.1702   -7.0437   19.1265 C.3     1  UNL1        0.1957
     19 O         -11.1467   -6.3225   18.8562 O.2     1  UNL1       -0.1574
     20 O          -9.5941   -8.6840   17.8499 O.2     1  UNL1       -0.1574
     21 C         -16.2925   -2.8521   19.5506 C.3     1  UNL1        0.1139
     22 C         -16.0571   -4.3334   19.5479 C.ar    1  UNL1       -0.0029
     23 C         -14.6599   -4.8710   19.6422 C.ar    1  UNL1       -0.0026
     24 C         -14.4245   -6.3525   19.6394 C.ar    1  UNL1       -0.0003
     25 C         -15.5863   -7.2963   19.5424 C.ar    1  UNL1       -0.0000
     26 C         -16.9835   -6.7587   19.4481 C.ar    1  UNL1       -0.0003
     27 C         -17.2189   -5.2773   19.4509 C.ar    1  UNL1       -0.0026
     28 C         -15.2103   -1.9216   20.0122 C.3     1  UNL1        0.0968
     29 N         -14.0612   -1.5984   19.1038 N.3     1  UNL1       -0.2689
     30 C         -14.1319   -0.7776   17.8503 C.3     1  UNL1        0.0748
     31 C         -12.7540   -0.7112   17.2613 C.3     1  UNL1        0.0480
     32 C         -11.8316   -1.4910   18.1508 C.3     1  UNL1        0.1278
     33 O         -10.3598   -1.6879   17.9388 O.3     1  UNL1       -0.3830
     34 C         -12.6394   -2.0393   19.2896 C.3     1  UNL1        0.1017
     35 H          -9.9994   -2.2308   18.6573 H       1  UNL1        0.2104
@<TRIPOS>BOND
     1     1     2    1
     2     2     3   am
     3     3     4    2
     4     3     5    1
     5     5     6    1
     6     6     8    1
     7     8     9   ar
     8     9    10   ar
     9    10    11   ar
    10    11    14    1
    11    14    15    1
    12    15    17    1
    13    17    18    1
    14    17    19    2
    15    17    20    2
    16    11    12   ar
    17    12    13   ar
    18     2    21    1
    19    21    28    1
    20    28    29    1
    21    29    30    1
    22    30    31    1
    23    31    32    1
    24    32    33    1
    25    32    34    1
    26    21    22    1
    27    22    23   ar
    28    23    24   ar
    29    24    25   ar
    30    25    26   ar
    31    26    27   ar
    32    13     8   ar
    33    34    29    1
    34    27    22   ar
    35     6     7    1
    36    15    16    1
    37    33    35    1
