@<TRIPOS>MOLECULE
*****
 30 34 0 0 0
SMALL
GASTEIGER

@<TRIPOS>ATOM
      1 C          -5.0712  -15.8498   25.9886 C.3     1  UNL1        0.0294
      2 C          -6.2431  -15.1302   26.5878 C.3     1  UNL1        0.0666
      3 S          -7.4027  -15.9097   27.1335 S.3     1  UNL1       -0.0756
      4 C          -8.4486  -14.6228   24.3228 C.3     1  UNL1        0.1337
      5 N          -8.8784  -15.9367   24.9049 N.ar    1  UNL1       -0.2918
      6 C          -8.3977  -16.5282   26.1968 C.ar    1  UNL1        0.1930
      7 N          -9.0866  -17.8469   26.3877 N.ar    1  UNL1       -0.1224
      8 N          -9.9932  -18.0704   25.2138 N.ar    1  UNL1       -0.1328
      9 C          -9.8646  -16.8899   24.2973 C.ar    1  UNL1        0.1434
     10 C         -10.5939  -16.6965   23.0009 C.3     1  UNL1        0.0638
     11 C         -12.0733  -16.9341   22.9300 C.3     1  UNL1        0.0397
     12 C         -12.8027  -16.7407   21.6336 C.3     1  UNL1        0.1426
     13 O         -12.0526  -16.3096   20.4081 O.3     1  UNL1       -0.3538
     14 C         -10.5732  -16.0720   20.4791 C.3     1  UNL1        0.1426
     15 C          -9.8439  -16.2654   21.7755 C.3     1  UNL1        0.0397
     16 C          -4.7533  -15.6829   24.5322 C.3     1  UNL1        0.0731
     17 N          -4.9760  -16.8209   23.5807 N.3     1  UNL1       -0.2712
     18 C          -3.9088  -17.6721   22.9591 C.3     1  UNL1        0.0738
     19 C          -4.5783  -18.6848   22.0780 C.3     1  UNL1        0.0372
     20 C          -4.3325  -19.8367   21.1493 C.3     1  UNL1        0.0245
     21 C          -5.6615  -20.3233   20.6523 C.3     1  UNL1        0.0909
     22 N          -6.7288  -19.4719   21.2739 N.pl3   1  UNL1       -0.3077
     23 C          -6.0593  -18.4593   22.1550 C.3     1  UNL1        0.0901
     24 C          -6.3051  -17.3074   23.0838 C.3     1  UNL1        0.0921
     25 C          -8.2061  -19.6092   21.0531 C.ar    1  UNL1        0.0478
     26 C          -8.7756  -19.4571   19.6739 C.ar    1  UNL1        0.0145
     27 C         -10.2529  -19.5944   19.4531 C.ar    1  UNL1        0.0013
     28 C         -11.1607  -19.8837   20.6116 C.ar    1  UNL1        0.0001
     29 C         -10.5911  -20.0358   21.9910 C.ar    1  UNL1        0.0013
     30 C          -9.1138  -19.8985   22.2118 C.ar    1  UNL1        0.0145
@<TRIPOS>BOND
     1     4     5    1
     2     5     6   ar
     3     6     3    1
     4     3     2    1
     5     2     1    1
     6     1    16    1
     7    16    17    1
     8    17    18    1
     9    18    19    1
    10    19    20    1
    11    20    21    1
    12    21    22    1
    13    22    25    1
    14    25    26   ar
    15    26    27   ar
    16    27    28   ar
    17    28    29   ar
    18    29    30   ar
    19    22    23    1
    20    23    24    1
    21     6     7   ar
    22     7     8   ar
    23     8     9   ar
    24     9    10    1
    25    10    11    1
    26    11    12    1
    27    12    13    1
    28    13    14    1
    29    14    15    1
    30     9     5   ar
    31    15    10    1
    32    24    17    1
    33    23    19    1
    34    30    25   ar
@<TRIPOS>MOLECULE
*****
 30 34 0 0 0
SMALL
GASTEIGER

@<TRIPOS>ATOM
      1 C          -8.6252  -16.4450   26.7045 C.3     1  UNL1        0.0294
      2 C          -7.2349  -16.4383   27.2676 C.3     1  UNL1        0.0666
      3 S          -6.2512  -15.3962   26.8246 S.3     1  UNL1       -0.0756
      4 C          -3.9200  -17.4830   25.8970 C.3     1  UNL1        0.1337
      5 N          -4.5629  -16.4385   25.0334 N.ar    1  UNL1       -0.2918
      6 C          -5.6344  -15.4793   25.4598 C.ar    1  UNL1        0.1930
      7 N          -5.9808  -14.6178   24.2817 N.ar    1  UNL1       -0.1224
      8 N          -5.1234  -15.0445   23.1273 N.ar    1  UNL1       -0.1328
      9 C          -4.2470  -16.1698   23.5918 C.ar    1  UNL1        0.1434
     10 C          -3.2329  -16.8984   22.7607 C.3     1  UNL1        0.0638
     11 C          -2.3387  -16.1352   21.8291 C.3     1  UNL1        0.0397
     12 C          -1.3246  -16.8638   20.9980 C.3     1  UNL1        0.1426
     13 O          -1.2048  -18.3557   21.0986 O.3     1  UNL1       -0.3538
     14 C          -2.0990  -19.1189   22.0302 C.3     1  UNL1        0.1426
     15 C          -3.1131  -18.3902   22.8613 C.3     1  UNL1        0.0397
     16 C          -8.9052  -15.7792   25.3899 C.3     1  UNL1        0.0731
     17 N          -9.0835  -16.6079   24.1524 N.3     1  UNL1       -0.2712
     18 C         -10.3789  -16.8603   23.4394 C.3     1  UNL1        0.0738
     19 C         -10.0938  -17.7381   22.2570 C.3     1  UNL1        0.0372
     20 C         -10.7181  -18.4366   21.0856 C.3     1  UNL1        0.0245
     21 C          -9.6325  -19.1586   20.3438 C.3     1  UNL1        0.0909
     22 N          -8.3371  -18.9062   21.0568 N.pl3   1  UNL1       -0.3077
     23 C          -8.6222  -18.0283   22.2392 C.3     1  UNL1        0.0901
     24 C          -7.9978  -17.3298   23.4106 C.3     1  UNL1        0.0921
     25 C          -6.9926  -19.4382   20.6575 C.ar    1  UNL1        0.0478
     26 C          -6.6682  -20.8880   20.8644 C.ar    1  UNL1        0.0145
     27 C          -5.3237  -21.4200   20.4651 C.ar    1  UNL1        0.0013
     28 C          -4.3038  -20.5023   19.8589 C.ar    1  UNL1        0.0001
     29 C          -4.6283  -19.0525   19.6520 C.ar    1  UNL1        0.0013
     30 C          -5.9727  -18.5204   20.0513 C.ar    1  UNL1        0.0145
@<TRIPOS>BOND
     1     4     5    1
     2     5     6   ar
     3     6     3    1
     4     3     2    1
     5     2     1    1
     6     1    16    1
     7    16    17    1
     8    17    18    1
     9    18    19    1
    10    19    20    1
    11    20    21    1
    12    21    22    1
    13    22    25    1
    14    25    26   ar
    15    26    27   ar
    16    27    28   ar
    17    28    29   ar
    18    29    30   ar
    19    22    23    1
    20    23    24    1
    21     6     7   ar
    22     7     8   ar
    23     8     9   ar
    24     9    10    1
    25    10    11    1
    26    11    12    1
    27    12    13    1
    28    13    14    1
    29    14    15    1
    30     9     5   ar
    31    15    10    1
    32    24    17    1
    33    23    19    1
    34    30    25   ar
@<TRIPOS>MOLECULE
*****
 30 34 0 0 0
SMALL
GASTEIGER

@<TRIPOS>ATOM
      1 C          -4.1159  -15.8849   23.9316 C.3     1  UNL1        0.0294
      2 C          -5.0859  -16.1984   25.0320 C.3     1  UNL1        0.0666
      3 S          -6.4208  -15.5155   25.0723 S.3     1  UNL1       -0.0756
      4 C          -9.4842  -16.5807   24.7111 C.3     1  UNL1        0.1337
      5 N          -8.6567  -15.9026   23.6597 N.ar    1  UNL1       -0.2918
      6 C          -7.2487  -15.4130   23.8257 C.ar    1  UNL1        0.1930
      7 N          -6.8138  -14.8029   22.5262 N.ar    1  UNL1       -0.1224
      8 N          -7.9531  -14.9154   21.5570 N.ar    1  UNL1       -0.1328
      9 C          -9.0922  -15.5951   22.2575 C.ar    1  UNL1        0.1434
     10 C         -10.4314  -15.9117   21.6606 C.3     1  UNL1        0.0638
     11 C         -11.5733  -16.3089   22.5485 C.3     1  UNL1        0.0397
     12 C         -12.9125  -16.6255   21.9517 C.3     1  UNL1        0.1426
     13 O         -13.1098  -16.5449   20.4669 O.3     1  UNL1       -0.3538
     14 C         -11.9679  -16.1477   19.5789 C.3     1  UNL1        0.1426
     15 C         -10.6287  -15.8311   20.1759 C.3     1  UNL1        0.0397
     16 C          -3.2969  -16.9818   23.3186 C.3     1  UNL1        0.0731
     17 N          -3.9540  -18.0115   22.4480 N.3     1  UNL1       -0.2712
     18 C          -3.2509  -19.0647   21.6440 C.3     1  UNL1        0.0738
     19 C          -4.2920  -19.8729   20.9277 C.3     1  UNL1        0.0372
     20 C          -4.5009  -21.0233   19.9881 C.3     1  UNL1        0.0245
     21 C          -5.9765  -21.1807   19.7687 C.3     1  UNL1        0.0909
     22 N          -6.6795  -20.1274   20.5728 N.pl3   1  UNL1       -0.3077
     23 C          -5.6384  -19.3192   21.2891 C.3     1  UNL1        0.0901
     24 C          -5.4295  -18.1688   22.2287 C.3     1  UNL1        0.0921
     25 C          -8.1630  -19.9190   20.6475 C.ar    1  UNL1        0.0478
     26 C          -8.8457  -19.8583   21.9817 C.ar    1  UNL1        0.0145
     27 C         -10.3292  -19.6499   22.0564 C.ar    1  UNL1        0.0013
     28 C         -11.1302  -19.5021   20.7968 C.ar    1  UNL1        0.0001
     29 C         -10.4476  -19.5628   19.4625 C.ar    1  UNL1        0.0013
     30 C          -8.9640  -19.7712   19.3878 C.ar    1  UNL1        0.0145
@<TRIPOS>BOND
     1     4     5    1
     2     5     6   ar
     3     6     3    1
     4     3     2    1
     5     2     1    1
     6     1    16    1
     7    16    17    1
     8    17    18    1
     9    18    19    1
    10    19    20    1
    11    20    21    1
    12    21    22    1
    13    22    25    1
    14    25    26   ar
    15    26    27   ar
    16    27    28   ar
    17    28    29   ar
    18    29    30   ar
    19    22    23    1
    20    23    24    1
    21     6     7   ar
    22     7     8   ar
    23     8     9   ar
    24     9    10    1
    25    10    11    1
    26    11    12    1
    27    12    13    1
    28    13    14    1
    29    14    15    1
    30     9     5   ar
    31    15    10    1
    32    24    17    1
    33    23    19    1
    34    30    25   ar
@<TRIPOS>MOLECULE
*****
 30 34 0 0 0
SMALL
GASTEIGER

@<TRIPOS>ATOM
      1 C           8.4671   -3.4705   21.9433 C.3     1  UNL1        0.0294
      2 C           8.6866   -3.4516   20.4595 C.3     1  UNL1        0.0666
      3 S           8.4334   -2.1954   19.6799 S.3     1  UNL1       -0.0756
      4 C           5.8504   -0.8027   21.1074 C.3     1  UNL1        0.1337
      5 N           5.9067   -1.3233   19.7018 N.ar    1  UNL1       -0.2918
      6 C           7.0940   -1.9635   19.0456 C.ar    1  UNL1        0.1930
      7 N           6.7067   -2.3311   17.6439 N.ar    1  UNL1       -0.1224
      8 N           5.2801   -1.9181   17.4337 N.ar    1  UNL1       -0.1328
      9 C           4.7856   -1.2953   18.7055 C.ar    1  UNL1        0.1434
     10 C           3.4114   -0.7416   18.9400 C.3     1  UNL1        0.0638
     11 C           2.5342   -1.3364   20.0014 C.3     1  UNL1        0.0397
     12 C           1.1599   -0.7827   20.2359 C.3     1  UNL1        0.1426
     13 O           0.6630    0.3658   19.4088 O.3     1  UNL1       -0.3538
     14 C           1.5402    0.9606   18.3473 C.3     1  UNL1        0.1426
     15 C           2.9144    0.4068   18.1129 C.3     1  UNL1        0.0397
     16 C           7.3318   -4.2606   22.5236 C.3     1  UNL1        0.0731
     17 N           7.5452   -5.0831   23.7597 N.3     1  UNL1       -0.2712
     18 C           8.0427   -6.4975   23.8025 C.3     1  UNL1        0.0738
     19 C           8.1034   -6.9242   25.2393 C.3     1  UNL1        0.0372
     20 C           8.4485   -8.0620   26.1537 C.3     1  UNL1        0.0245
     21 C           8.2017   -7.6146   27.5640 C.3     1  UNL1        0.0909
     22 N           7.7042   -6.2001   27.5211 N.pl3   1  UNL1       -0.3077
     23 C           7.6434   -5.7735   26.0844 C.3     1  UNL1        0.0901
     24 C           7.2984   -4.6356   25.1699 C.3     1  UNL1        0.0921
     25 C           7.3326   -5.3599   28.7069 C.ar    1  UNL1        0.0478
     26 C           7.3348   -5.9599   30.0816 C.ar    1  UNL1        0.0145
     27 C           6.9632   -5.1197   31.2673 C.ar    1  UNL1        0.0013
     28 C           6.5894   -3.6794   31.0783 C.ar    1  UNL1        0.0001
     29 C           6.5872   -3.0793   29.7036 C.ar    1  UNL1        0.0013
     30 C           6.9588   -3.9195   28.5178 C.ar    1  UNL1        0.0145
@<TRIPOS>BOND
     1     4     5    1
     2     5     6   ar
     3     6     3    1
     4     3     2    1
     5     2     1    1
     6     1    16    1
     7    16    17    1
     8    17    18    1
     9    18    19    1
    10    19    20    1
    11    20    21    1
    12    21    22    1
    13    22    25    1
    14    25    26   ar
    15    26    27   ar
    16    27    28   ar
    17    28    29   ar
    18    29    30   ar
    19    22    23    1
    20    23    24    1
    21     6     7   ar
    22     7     8   ar
    23     8     9   ar
    24     9    10    1
    25    10    11    1
    26    11    12    1
    27    12    13    1
    28    13    14    1
    29    14    15    1
    30     9     5   ar
    31    15    10    1
    32    24    17    1
    33    23    19    1
    34    30    25   ar
@<TRIPOS>MOLECULE
*****
 30 34 0 0 0
SMALL
GASTEIGER

@<TRIPOS>ATOM
      1 C           0.0720    4.5639   18.5723 C.3     1  UNL1        0.0294
      2 C           1.0433    3.7099   19.3323 C.3     1  UNL1        0.0666
      3 S           1.8007    2.6251   18.6257 S.3     1  UNL1       -0.0756
      4 C           4.3871    0.6433   18.8064 C.3     1  UNL1        0.1337
      5 N           2.9952    0.3203   19.2630 N.ar    1  UNL1       -0.2918
      6 C           1.8064    1.2312   19.1799 C.ar    1  UNL1        0.1930
      7 N           0.6243    0.5036   19.7484 N.ar    1  UNL1       -0.1224
      8 N           1.0825   -0.8570   20.1828 N.ar    1  UNL1       -0.1328
      9 C           2.5478   -0.9704   19.8828 C.ar    1  UNL1        0.1434
     10 C           3.4137   -2.1646   20.1549 C.3     1  UNL1        0.0638
     11 C           3.6790   -3.1623   19.0667 C.3     1  UNL1        0.0397
     12 C           4.5449   -4.3565   19.3387 C.3     1  UNL1        0.1426
     13 O           5.1455   -4.5530   20.6992 O.3     1  UNL1       -0.3538
     14 C           4.8802   -3.5554   21.7875 C.3     1  UNL1        0.1426
     15 C           4.0143   -2.3612   21.5153 C.3     1  UNL1        0.0397
     16 C          -0.9837    3.9230   17.7210 C.3     1  UNL1        0.0731
     17 N          -2.4168    3.9401   18.1638 N.3     1  UNL1       -0.2712
     18 C          -3.6173    3.9519   17.2647 C.3     1  UNL1        0.0738
     19 C          -4.8434    3.9675   18.1287 C.3     1  UNL1        0.0372
     20 C          -6.3431    3.9844   18.1070 C.3     1  UNL1        0.0245
     21 C          -6.8272    3.9927   19.5268 C.3     1  UNL1        0.0909
     22 N          -5.6266    3.9810   20.4259 N.pl3   1  UNL1       -0.3077
     23 C          -4.4005    3.9654   19.5619 C.3     1  UNL1        0.0901
     24 C          -2.9008    3.9485   19.5836 C.3     1  UNL1        0.0921
     25 C          -5.6482    3.9843   21.9258 C.ar    1  UNL1        0.0478
     26 C          -6.7096    4.7498   22.6588 C.ar    1  UNL1        0.0145
     27 C          -6.7313    4.7531   24.1587 C.ar    1  UNL1        0.0013
     28 C          -5.6915    3.9909   24.9255 C.ar    1  UNL1        0.0001
     29 C          -4.6301    3.2253   24.1924 C.ar    1  UNL1        0.0013
     30 C          -4.6084    3.2220   22.6925 C.ar    1  UNL1        0.0145
@<TRIPOS>BOND
     1     4     5    1
     2     5     6   ar
     3     6     3    1
     4     3     2    1
     5     2     1    1
     6     1    16    1
     7    16    17    1
     8    17    18    1
     9    18    19    1
    10    19    20    1
    11    20    21    1
    12    21    22    1
    13    22    25    1
    14    25    26   ar
    15    26    27   ar
    16    27    28   ar
    17    28    29   ar
    18    29    30   ar
    19    22    23    1
    20    23    24    1
    21     6     7   ar
    22     7     8   ar
    23     8     9   ar
    24     9    10    1
    25    10    11    1
    26    11    12    1
    27    12    13    1
    28    13    14    1
    29    14    15    1
    30     9     5   ar
    31    15    10    1
    32    24    17    1
    33    23    19    1
    34    30    25   ar
@<TRIPOS>MOLECULE
*****
 30 34 0 0 0
SMALL
GASTEIGER

@<TRIPOS>ATOM
      1 C          -6.0683  -15.6698   26.5246 C.3     1  UNL1        0.0294
      2 C          -7.5050  -15.4323   26.8849 C.3     1  UNL1        0.0666
      3 S          -8.4092  -16.5951   27.1680 S.3     1  UNL1       -0.0756
      4 C          -9.2370  -15.2447   24.3148 C.3     1  UNL1        0.1337
      5 N          -9.5032  -16.6613   24.7300 N.ar    1  UNL1       -0.2918
      6 C          -9.1227  -17.2820   26.0415 C.ar    1  UNL1        0.1930
      7 N          -9.5810  -18.7102   26.0287 N.ar    1  UNL1       -0.1224
      8 N         -10.2447  -18.9722   24.7093 N.ar    1  UNL1       -0.1328
      9 C         -10.1966  -17.7060   23.9066 C.ar    1  UNL1        0.1434
     10 C         -10.7456  -17.5174   22.5234 C.3     1  UNL1        0.0638
     11 C         -11.8866  -16.5717   22.2918 C.3     1  UNL1        0.0397
     12 C         -12.4356  -16.3832   20.9087 C.3     1  UNL1        0.1426
     13 O         -11.8434  -17.1404   19.7571 O.3     1  UNL1       -0.3538
     14 C         -10.7024  -18.0861   19.9887 C.3     1  UNL1        0.1426
     15 C         -10.1535  -18.2746   21.3720 C.3     1  UNL1        0.0397
     16 C          -5.5683  -15.3087   25.1573 C.3     1  UNL1        0.0731
     17 N          -5.4529  -16.3644   24.0979 N.3     1  UNL1       -0.2712
     18 C          -6.4597  -17.4383   23.8100 C.3     1  UNL1        0.0738
     19 C          -5.9393  -18.2691   22.6746 C.3     1  UNL1        0.0372
     20 C          -6.2400  -19.4463   21.7950 C.3     1  UNL1        0.0245
     21 C          -5.0974  -19.6133   20.8375 C.3     1  UNL1        0.0909
     22 N          -4.0906  -18.5393   21.1254 N.pl3   1  UNL1       -0.3077
     23 C          -4.6110  -17.7085   22.2608 C.3     1  UNL1        0.0901
     24 C          -4.3103  -16.5313   23.1405 C.3     1  UNL1        0.0921
     25 C          -2.7916  -18.3323   20.4045 C.ar    1  UNL1        0.0478
     26 C          -1.4945  -18.4432   21.1495 C.ar    1  UNL1        0.0145
     27 C          -0.1954  -18.2362   20.4286 C.ar    1  UNL1        0.0013
     28 C          -0.1935  -17.9185   18.9627 C.ar    1  UNL1        0.0001
     29 C          -1.4907  -17.8077   18.2176 C.ar    1  UNL1        0.0013
     30 C          -2.7898  -18.0146   18.9385 C.ar    1  UNL1        0.0145
@<TRIPOS>BOND
     1     4     5    1
     2     5     6   ar
     3     6     3    1
     4     3     2    1
     5     2     1    1
     6     1    16    1
     7    16    17    1
     8    17    18    1
     9    18    19    1
    10    19    20    1
    11    20    21    1
    12    21    22    1
    13    22    25    1
    14    25    26   ar
    15    26    27   ar
    16    27    28   ar
    17    28    29   ar
    18    29    30   ar
    19    22    23    1
    20    23    24    1
    21     6     7   ar
    22     7     8   ar
    23     8     9   ar
    24     9    10    1
    25    10    11    1
    26    11    12    1
    27    12    13    1
    28    13    14    1
    29    14    15    1
    30     9     5   ar
    31    15    10    1
    32    24    17    1
    33    23    19    1
    34    30    25   ar
@<TRIPOS>MOLECULE
*****
 30 34 0 0 0
SMALL
GASTEIGER

@<TRIPOS>ATOM
      1 C           6.1795    4.0779   16.9514 C.3     1  UNL1        0.0294
      2 C           7.5744    3.5455   16.8065 C.3     1  UNL1        0.0666
      3 S           7.8026    2.1993   16.1856 S.3     1  UNL1       -0.0756
      4 C           9.0216    1.2567   19.0622 C.3     1  UNL1        0.1337
      5 N           7.9909    0.5214   18.2579 N.ar    1  UNL1       -0.2918
      6 C           7.4306    0.9547   16.9356 C.ar    1  UNL1        0.1930
      7 N           6.4329   -0.0751   16.4951 N.ar    1  UNL1       -0.1224
      8 N           6.3766   -1.1449   17.5450 N.ar    1  UNL1       -0.1328
      9 C           7.3395   -0.7762   18.6345 C.ar    1  UNL1        0.1434
     10 C           7.6044   -1.5665   19.8817 C.3     1  UNL1        0.0638
     11 C           8.1027   -2.9779   19.7836 C.3     1  UNL1        0.0397
     12 C           8.3677   -3.7681   21.0307 C.3     1  UNL1        0.1426
     13 O           8.1343   -3.1468   22.3760 O.3     1  UNL1       -0.3538
     14 C           7.6360   -1.7354   22.4741 C.3     1  UNL1        0.1426
     15 C           7.3711   -0.9452   21.2268 C.3     1  UNL1        0.0397
     16 C           5.5025    4.0533   18.2897 C.3     1  UNL1        0.0731
     17 N           4.4438    3.0300   18.5759 N.3     1  UNL1       -0.2712
     18 C           2.9805    3.1676   18.2762 C.3     1  UNL1        0.0738
     19 C           2.2950    1.9120   18.7272 C.3     1  UNL1        0.0372
     20 C           0.9669    1.2210   18.8207 C.3     1  UNL1        0.0245
     21 C           1.1856   -0.1197   19.4570 C.3     1  UNL1        0.0909
     22 N           2.6490   -0.2573   19.7567 N.pl3   1  UNL1       -0.3077
     23 C           3.3345    0.9983   19.3057 C.3     1  UNL1        0.0901
     24 C           4.6626    1.6893   19.2122 C.3     1  UNL1        0.0921
     25 C           3.3105   -1.4424   20.3953 C.ar    1  UNL1        0.0478
     26 C           3.5834   -1.4446   21.8702 C.ar    1  UNL1        0.0145
     27 C           4.2450   -2.6297   22.5088 C.ar    1  UNL1        0.0013
     28 C           4.6336   -3.8127   21.6725 C.ar    1  UNL1        0.0001
     29 C           4.3607   -3.8105   20.1975 C.ar    1  UNL1        0.0013
     30 C           3.6992   -2.6254   19.5589 C.ar    1  UNL1        0.0145
@<TRIPOS>BOND
     1     4     5    1
     2     5     6   ar
     3     6     3    1
     4     3     2    1
     5     2     1    1
     6     1    16    1
     7    16    17    1
     8    17    18    1
     9    18    19    1
    10    19    20    1
    11    20    21    1
    12    21    22    1
    13    22    25    1
    14    25    26   ar
    15    26    27   ar
    16    27    28   ar
    17    28    29   ar
    18    29    30   ar
    19    22    23    1
    20    23    24    1
    21     6     7   ar
    22     7     8   ar
    23     8     9   ar
    24     9    10    1
    25    10    11    1
    26    11    12    1
    27    12    13    1
    28    13    14    1
    29    14    15    1
    30     9     5   ar
    31    15    10    1
    32    24    17    1
    33    23    19    1
    34    30    25   ar
@<TRIPOS>MOLECULE
*****
 30 34 0 0 0
SMALL
GASTEIGER

@<TRIPOS>ATOM
      1 C           7.2434   -2.7946   25.3175 C.3     1  UNL1        0.0294
      2 C           7.6099   -3.9405   26.2134 C.3     1  UNL1        0.0666
      3 S           6.5563   -4.6073   27.0472 S.3     1  UNL1       -0.0756
      4 C           6.0039   -1.9037   28.7893 C.3     1  UNL1        0.1337
      5 N           6.3483   -3.2545   29.3432 N.ar    1  UNL1       -0.2918
      6 C           6.6022   -4.4972   28.5424 C.ar    1  UNL1        0.1930
      7 N           6.9101   -5.6104   29.4994 N.ar    1  UNL1       -0.1224
      8 N           6.8465   -5.0558   30.8917 N.ar    1  UNL1       -0.1328
      9 C           6.4993   -3.5997   30.7952 C.ar    1  UNL1        0.1434
     10 C           6.3323   -2.6548   31.9481 C.3     1  UNL1        0.0638
     11 C           5.0356   -2.6116   32.7008 C.3     1  UNL1        0.0397
     12 C           4.8686   -1.6667   33.8537 C.3     1  UNL1        0.1426
     13 O           5.9986   -0.7649   34.2539 O.3     1  UNL1       -0.3538
     14 C           7.2953   -0.8080   33.5013 C.3     1  UNL1        0.1426
     15 C           7.4622   -1.7530   32.3483 C.3     1  UNL1        0.0397
     16 C           5.8055   -2.5413   24.9738 C.3     1  UNL1        0.0731
     17 N           5.3260   -2.7331   23.5655 N.3     1  UNL1       -0.2712
     18 C           5.6673   -3.8847   22.6670 C.3     1  UNL1        0.0738
     19 C           4.9732   -3.6702   21.3547 C.3     1  UNL1        0.0372
     20 C           4.7551   -4.2494   19.9883 C.3     1  UNL1        0.0245
     21 C           3.8501   -3.3233   19.2312 C.3     1  UNL1        0.0909
     22 N           3.5087   -2.1717   20.1298 N.pl3   1  UNL1       -0.3077
     23 C           4.2029   -2.3861   21.4421 C.3     1  UNL1        0.0901
     24 C           4.4209   -1.8069   22.8085 C.3     1  UNL1        0.0921
     25 C           2.6279   -1.0096   19.7778 C.ar    1  UNL1        0.0478
     26 C           1.3427   -0.7910   20.5196 C.ar    1  UNL1        0.0145
     27 C           0.4619    0.3710   20.1676 C.ar    1  UNL1        0.0013
     28 C           0.8663    1.3144   19.0737 C.ar    1  UNL1        0.0001
     29 C           2.1516    1.0957   18.3319 C.ar    1  UNL1        0.0013
     30 C           3.0324   -0.0663   18.6839 C.ar    1  UNL1        0.0145
@<TRIPOS>BOND
     1     4     5    1
     2     5     6   ar
     3     6     3    1
     4     3     2    1
     5     2     1    1
     6     1    16    1
     7    16    17    1
     8    17    18    1
     9    18    19    1
    10    19    20    1
    11    20    21    1
    12    21    22    1
    13    22    25    1
    14    25    26   ar
    15    26    27   ar
    16    27    28   ar
    17    28    29   ar
    18    29    30   ar
    19    22    23    1
    20    23    24    1
    21     6     7   ar
    22     7     8   ar
    23     8     9   ar
    24     9    10    1
    25    10    11    1
    26    11    12    1
    27    12    13    1
    28    13    14    1
    29    14    15    1
    30     9     5   ar
    31    15    10    1
    32    24    17    1
    33    23    19    1
    34    30    25   ar
@<TRIPOS>MOLECULE
*****
 30 34 0 0 0
SMALL
GASTEIGER

@<TRIPOS>ATOM
      1 C           6.4388   -3.7724   22.0583 C.3     1  UNL1        0.0294
      2 C           6.5983   -3.6530   20.5716 C.3     1  UNL1        0.0666
      3 S           5.3994   -3.7652   19.6772 S.3     1  UNL1       -0.0756
      4 C           3.4126   -1.4083   20.7484 C.3     1  UNL1        0.1337
      5 N           4.0245   -1.4921   19.3814 N.ar    1  UNL1       -0.2918
      6 C           4.9377   -2.5754   18.8891 C.ar    1  UNL1        0.1930
      7 N           5.3083   -2.2600   17.4702 N.ar    1  UNL1       -0.1224
      8 N           4.6241   -0.9818   17.0856 N.ar    1  UNL1       -0.1328
      9 C           3.8306   -0.5071   18.2668 C.ar    1  UNL1        0.1434
     10 C           2.9908    0.7345   18.3234 C.3     1  UNL1        0.0638
     11 C           1.4948    0.6276   18.3466 C.3     1  UNL1        0.0397
     12 C           0.6550    1.8692   18.4033 C.3     1  UNL1        0.1426
     13 O           1.3113    3.2176   18.4366 O.3     1  UNL1       -0.3538
     14 C           2.8073    3.3245   18.4134 C.3     1  UNL1        0.1426
     15 C           3.6470    2.0829   18.3568 C.3     1  UNL1        0.0397
     16 C           7.6497   -3.7930   22.9434 C.3     1  UNL1        0.0731
     17 N           7.7127   -4.7383   24.1063 N.3     1  UNL1       -0.2712
     18 C           8.0301   -6.2027   24.0360 C.3     1  UNL1        0.0738
     19 C           7.9829   -6.7546   25.4300 C.3     1  UNL1        0.0372
     20 C           8.1499   -8.0007   26.2481 C.3     1  UNL1        0.0245
     21 C           7.9065   -7.6477   27.6855 C.3     1  UNL1        0.0909
     22 N           7.5890   -6.1832   27.7558 N.pl3   1  UNL1       -0.3077
     23 C           7.6363   -5.6313   26.3618 C.3     1  UNL1        0.0901
     24 C           7.4692   -4.3852   25.5437 C.3     1  UNL1        0.0921
     25 C           7.2788   -5.4071   29.0013 C.ar    1  UNL1        0.0478
     26 C           6.7761   -3.9975   28.9009 C.ar    1  UNL1        0.0145
     27 C           6.4659   -3.2213   30.1465 C.ar    1  UNL1        0.0013
     28 C           6.6584   -3.8548   31.4924 C.ar    1  UNL1        0.0001
     29 C           7.1612   -5.2645   31.5928 C.ar    1  UNL1        0.0013
     30 C           7.4714   -6.0407   30.3473 C.ar    1  UNL1        0.0145
@<TRIPOS>BOND
     1     4     5    1
     2     5     6   ar
     3     6     3    1
     4     3     2    1
     5     2     1    1
     6     1    16    1
     7    16    17    1
     8    17    18    1
     9    18    19    1
    10    19    20    1
    11    20    21    1
    12    21    22    1
    13    22    25    1
    14    25    26   ar
    15    26    27   ar
    16    27    28   ar
    17    28    29   ar
    18    29    30   ar
    19    22    23    1
    20    23    24    1
    21     6     7   ar
    22     7     8   ar
    23     8     9   ar
    24     9    10    1
    25    10    11    1
    26    11    12    1
    27    12    13    1
    28    13    14    1
    29    14    15    1
    30     9     5   ar
    31    15    10    1
    32    24    17    1
    33    23    19    1
    34    30    25   ar
