@<TRIPOS>MOLECULE
*****
 24 26 0 0 0
SMALL
GASTEIGER

@<TRIPOS>ATOM
      1 C          -9.2659  -19.1886   21.3275 C.ar    1  UNL1        0.0395
      2 C          -8.3474  -19.5536   22.4558 C.ar    1  UNL1        0.0063
      3 C          -6.9604  -20.0450   22.1647 C.ar    1  UNL1        0.0376
      4 C          -6.4919  -20.1713   20.7454 C.ar    1  UNL1        0.1453
      5 C          -7.4105  -19.8063   19.6171 C.ar    1  UNL1        0.0376
      6 C          -8.7975  -19.3150   19.9082 C.ar    1  UNL1        0.0063
      7 N         -12.7101  -18.1474   22.7833 N.ar    1  UNL1       -0.1495
      8 N         -12.8648  -17.7348   21.3494 N.ar    1  UNL1       -0.0450
      9 N         -11.5935  -18.0747   20.6296 N.ar    1  UNL1       -0.1077
     10 C         -10.6530  -18.6973   21.6186 C.ar    1  UNL1        0.2058
     11 N         -11.3431  -18.7422   22.9496 N.ar    1  UNL1       -0.1297
     12 C         -13.7413  -17.9923   23.8616 C.3     1  UNL1        0.1681
     13 N         -14.6228  -18.6307   26.2207 N.3     1  UNL1       -0.3194
     14 C         -13.5139  -18.6070   25.2108 C.3     1  UNL1        0.0938
     15 H         -14.2954  -19.0823   27.0746 H       1  UNL1        0.1189
     16 H         -15.4152  -19.1505   25.8435 H       1  UNL1        0.1189
     17 O          -5.1049  -20.6627   20.4543 O.3     1  UNL1       -0.4535
     18 C          -3.9567  -19.6978   20.4320 C.ar    1  UNL1        0.1454
     19 C          -3.7550  -18.7993   19.2479 C.ar    1  UNL1        0.0384
     20 C          -2.6067  -17.8343   19.2256 C.ar    1  UNL1        0.0145
     21 C          -1.6602  -17.7680   20.3873 C.ar    1  UNL1        0.0579
     22 CL         -0.5120  -16.8031   20.3649 Cl      1  UNL1       -0.0822
     23 C          -1.8618  -18.6665   21.5713 C.ar    1  UNL1        0.0145
     24 C          -3.0100  -19.6314   21.5937 C.ar    1  UNL1        0.0384
@<TRIPOS>BOND
     1    13    14    1
     2    14    12    1
     3    12     7    1
     4     7     8   ar
     5     8     9   ar
     6     9    10   ar
     7    10     1    1
     8     1     2   ar
     9     2     3   ar
    10     3     4   ar
    11     4    17    1
    12    17    18    1
    13    18    19   ar
    14    19    20   ar
    15    20    21   ar
    16    21    22    1
    17    21    23   ar
    18    23    24   ar
    19     4     5   ar
    20     5     6   ar
    21    10    11   ar
    22    11     7   ar
    23     6     1   ar
    24    24    18   ar
    25    13    15    1
    26    13    16    1
@<TRIPOS>MOLECULE
*****
 24 26 0 0 0
SMALL
GASTEIGER

@<TRIPOS>ATOM
      1 C          -9.3136  -19.1804   21.2886 C.ar    1  UNL1        0.0395
      2 C          -8.9064  -19.4456   19.8695 C.ar    1  UNL1        0.0063
      3 C          -7.5246  -19.9441   19.5665 C.ar    1  UNL1        0.0376
      4 C          -6.5499  -20.1774   20.6826 C.ar    1  UNL1        0.1453
      5 C          -6.9571  -19.9122   22.1016 C.ar    1  UNL1        0.0376
      6 C          -8.3390  -19.4137   22.4047 C.ar    1  UNL1        0.0063
      7 N         -12.7397  -18.1218   22.7742 N.ar    1  UNL1       -0.1495
      8 N         -12.9045  -17.7078   21.3418 N.ar    1  UNL1       -0.0450
      9 N         -11.6412  -18.0540   20.6111 N.ar    1  UNL1       -0.1077
     10 C         -10.6956  -18.6819   21.5917 C.ar    1  UNL1        0.2058
     11 N         -11.3745  -18.7238   22.9286 N.ar    1  UNL1       -0.1297
     12 C         -13.7609  -17.9618   23.8613 C.3     1  UNL1        0.1681
     13 N         -14.6600  -18.6406   26.2024 N.3     1  UNL1       -0.3194
     14 C         -13.5552  -18.6311   25.1878 C.3     1  UNL1        0.0938
     15 H         -14.3493  -19.1346   27.0389 H       1  UNL1        0.1189
     16 H         -15.4759  -19.1124   25.8122 H       1  UNL1        0.1189
     17 O          -5.1679  -20.6759   20.3795 O.3     1  UNL1       -0.4535
     18 C          -4.0105  -19.7218   20.3760 C.ar    1  UNL1        0.1454
     19 C          -3.0983  -19.6450   21.5643 C.ar    1  UNL1        0.0384
     20 C          -1.9408  -18.6909   21.5607 C.ar    1  UNL1        0.0145
     21 C          -1.6955  -17.8137   20.3690 C.ar    1  UNL1        0.0579
     22 CL         -0.5380  -16.8597   20.3655 Cl      1  UNL1       -0.0822
     23 C          -2.6077  -17.8906   19.1807 C.ar    1  UNL1        0.0145
     24 C          -3.7651  -18.8446   19.1842 C.ar    1  UNL1        0.0384
@<TRIPOS>BOND
     1    13    14    1
     2    14    12    1
     3    12     7    1
     4     7     8   ar
     5     8     9   ar
     6     9    10   ar
     7    10     1    1
     8     1     2   ar
     9     2     3   ar
    10     3     4   ar
    11     4    17    1
    12    17    18    1
    13    18    19   ar
    14    19    20   ar
    15    20    21   ar
    16    21    22    1
    17    21    23   ar
    18    23    24   ar
    19     4     5   ar
    20     5     6   ar
    21    10    11   ar
    22    11     7   ar
    23     6     1   ar
    24    24    18   ar
    25    13    15    1
    26    13    16    1
@<TRIPOS>MOLECULE
*****
 24 26 0 0 0
SMALL
GASTEIGER

@<TRIPOS>ATOM
      1 C          -8.5386  -19.4297   22.2949 C.ar    1  UNL1        0.0395
      2 C          -7.5966  -20.4864   22.7907 C.ar    1  UNL1        0.0063
      3 C          -6.3809  -20.8438   21.9880 C.ar    1  UNL1        0.0376
      4 C          -6.1073  -20.1446   20.6895 C.ar    1  UNL1        0.1453
      5 C          -7.0494  -19.0880   20.1936 C.ar    1  UNL1        0.0376
      6 C          -8.2651  -18.7305   20.9963 C.ar    1  UNL1        0.0063
      7 N         -11.9911  -18.3492   23.7014 N.ar    1  UNL1       -0.1495
      8 N         -11.2591  -18.6952   24.9642 N.ar    1  UNL1       -0.0450
      9 N          -9.8767  -19.1421   24.5910 N.ar    1  UNL1       -0.1077
     10 C          -9.7544  -19.0722   23.0976 C.ar    1  UNL1        0.2058
     11 N         -11.0611  -18.5822   22.5478 N.ar    1  UNL1       -0.1297
     12 C         -13.4049  -17.8566   23.6086 C.3     1  UNL1        0.1681
     13 N         -14.2128  -18.5664   25.9737 N.3     1  UNL1       -0.3194
     14 C         -14.4618  -18.4382   24.5000 C.3     1  UNL1        0.0938
     15 H         -15.0310  -18.9785   26.4222 H       1  UNL1        0.1189
     16 H         -14.0366  -17.6433   26.3703 H       1  UNL1        0.1189
     17 O          -4.8916  -20.5021   19.8868 O.3     1  UNL1       -0.4535
     18 C          -3.6470  -19.6727   20.0009 C.ar    1  UNL1        0.1454
     19 C          -3.2257  -18.7917   18.8623 C.ar    1  UNL1        0.0384
     20 C          -1.9810  -17.9623   18.9765 C.ar    1  UNL1        0.0145
     21 C          -1.1577  -18.0140   20.2293 C.ar    1  UNL1        0.0579
     22 CL          0.0870  -17.1847   20.3434 Cl      1  UNL1       -0.0822
     23 C          -1.5789  -18.8951   21.3678 C.ar    1  UNL1        0.0145
     24 C          -2.8235  -19.7244   21.2537 C.ar    1  UNL1        0.0384
@<TRIPOS>BOND
     1    13    14    1
     2    14    12    1
     3    12     7    1
     4     7     8   ar
     5     8     9   ar
     6     9    10   ar
     7    10     1    1
     8     1     2   ar
     9     2     3   ar
    10     3     4   ar
    11     4    17    1
    12    17    18    1
    13    18    19   ar
    14    19    20   ar
    15    20    21   ar
    16    21    22    1
    17    21    23   ar
    18    23    24   ar
    19     4     5   ar
    20     5     6   ar
    21    10    11   ar
    22    11     7   ar
    23     6     1   ar
    24    24    18   ar
    25    13    15    1
    26    13    16    1
@<TRIPOS>MOLECULE
*****
 24 26 0 0 0
SMALL
GASTEIGER

@<TRIPOS>ATOM
      1 C          -6.3909  -18.9868   20.8642 C.ar    1  UNL1        0.0395
      2 C          -7.1914  -19.7107   19.8226 C.ar    1  UNL1        0.0063
      3 C          -8.6831  -19.5581   19.7831 C.ar    1  UNL1        0.0376
      4 C          -9.3742  -18.6816   20.7852 C.ar    1  UNL1        0.1453
      5 C          -8.5736  -17.9577   21.8268 C.ar    1  UNL1        0.0376
      6 C          -7.0819  -18.1103   21.8663 C.ar    1  UNL1        0.0063
      7 N          -2.5386  -18.8853   20.3997 N.ar    1  UNL1       -0.1495
      8 N          -2.6686  -19.8631   21.5298 N.ar    1  UNL1       -0.0450
      9 N          -4.1275  -20.0201   21.8414 N.ar    1  UNL1       -0.1077
     10 C          -4.8991  -19.1394   20.9038 C.ar    1  UNL1        0.2058
     11 N          -3.9171  -18.4381   20.0128 N.ar    1  UNL1       -0.1297
     12 C          -1.2554  -18.4341   19.7674 C.3     1  UNL1        0.1681
     13 N          -1.2121  -16.3603   21.3319 N.3     1  UNL1       -0.3194
     14 C          -0.6100  -17.1548   20.2110 C.3     1  UNL1        0.0938
     15 H          -0.6479  -15.5272   21.4994 H       1  UNL1        0.1189
     16 H          -1.2367  -16.9300   22.1775 H       1  UNL1        0.1189
     17 O         -10.8659  -18.5290   20.7456 O.3     1  UNL1       -0.4535
     18 C         -11.6524  -18.5132   22.0227 C.ar    1  UNL1        0.1454
     19 C         -12.9495  -17.7634   22.0956 C.ar    1  UNL1        0.0384
     20 C         -13.7359  -17.7476   23.3729 C.ar    1  UNL1        0.0145
     21 C         -13.2252  -18.4816   24.5772 C.ar    1  UNL1        0.0579
     22 CL        -14.0117  -18.4657   25.8544 Cl      1  UNL1       -0.0822
     23 C         -11.9281  -19.2314   24.5043 C.ar    1  UNL1        0.0145
     24 C         -11.1417  -19.2472   23.2272 C.ar    1  UNL1        0.0384
@<TRIPOS>BOND
     1    13    14    1
     2    14    12    1
     3    12     7    1
     4     7     8   ar
     5     8     9   ar
     6     9    10   ar
     7    10     1    1
     8     1     2   ar
     9     2     3   ar
    10     3     4   ar
    11     4    17    1
    12    17    18    1
    13    18    19   ar
    14    19    20   ar
    15    20    21   ar
    16    21    22    1
    17    21    23   ar
    18    23    24   ar
    19     4     5   ar
    20     5     6   ar
    21    10    11   ar
    22    11     7   ar
    23     6     1   ar
    24    24    18   ar
    25    13    15    1
    26    13    16    1
@<TRIPOS>MOLECULE
*****
 24 26 0 0 0
SMALL
GASTEIGER

@<TRIPOS>ATOM
      1 C          -8.4236  -17.4283   22.7501 C.ar    1  UNL1        0.0395
      2 C          -7.4541  -18.4546   22.2432 C.ar    1  UNL1        0.0063
      3 C          -5.9901  -18.3129   22.5371 C.ar    1  UNL1        0.0376
      4 C          -5.4955  -17.1449   23.3379 C.ar    1  UNL1        0.1453
      5 C          -6.4649  -16.1187   23.8447 C.ar    1  UNL1        0.0376
      6 C          -7.9289  -16.2604   23.5509 C.ar    1  UNL1        0.0063
      7 N         -12.2935  -17.7264   22.7356 N.ar    1  UNL1       -0.1495
      8 N         -11.9879  -17.8496   21.2722 N.ar    1  UNL1       -0.0450
      9 N         -10.5010  -17.7529   21.0996 N.ar    1  UNL1       -0.1077
     10 C          -9.8877  -17.5700   22.4562 C.ar    1  UNL1        0.2058
     11 N         -10.9956  -17.5536   23.4673 N.ar    1  UNL1       -0.1297
     12 C         -13.6577  -17.7685   23.3580 C.3     1  UNL1        0.1681
     13 N         -15.1687  -18.6861   25.2619 N.3     1  UNL1       -0.3194
     14 C         -13.8226  -18.2410   24.7720 C.3     1  UNL1        0.0938
     15 H         -15.0977  -18.9720   26.2384 H       1  UNL1        0.1189
     16 H         -15.4918  -19.4735   24.6998 H       1  UNL1        0.1189
     17 O          -4.0313  -17.0033   23.6317 O.3     1  UNL1       -0.4535
     18 C          -3.0193  -17.3214   22.5713 C.ar    1  UNL1        0.1454
     19 C          -2.7435  -18.7488   22.2018 C.ar    1  UNL1        0.0384
     20 C          -1.7314  -19.0669   21.1413 C.ar    1  UNL1        0.0145
     21 C          -0.9952  -17.9576   20.4503 C.ar    1  UNL1        0.0579
     22 CL          0.0168  -18.2757   19.3899 Cl      1  UNL1       -0.0822
     23 C          -1.2710  -16.5302   20.8198 C.ar    1  UNL1        0.0145
     24 C          -2.2830  -16.2121   21.8803 C.ar    1  UNL1        0.0384
@<TRIPOS>BOND
     1    13    14    1
     2    14    12    1
     3    12     7    1
     4     7     8   ar
     5     8     9   ar
     6     9    10   ar
     7    10     1    1
     8     1     2   ar
     9     2     3   ar
    10     3     4   ar
    11     4    17    1
    12    17    18    1
    13    18    19   ar
    14    19    20   ar
    15    20    21   ar
    16    21    22    1
    17    21    23   ar
    18    23    24   ar
    19     4     5   ar
    20     5     6   ar
    21    10    11   ar
    22    11     7   ar
    23     6     1   ar
    24    24    18   ar
    25    13    15    1
    26    13    16    1
@<TRIPOS>MOLECULE
*****
 24 26 0 0 0
SMALL
GASTEIGER

@<TRIPOS>ATOM
      1 C          -8.0624  -17.1121   22.8009 C.ar    1  UNL1        0.0395
      2 C          -7.3064  -18.2917   22.2652 C.ar    1  UNL1        0.0063
      3 C          -5.8385  -18.4298   22.5410 C.ar    1  UNL1        0.0376
      4 C          -5.1267  -17.3884   23.3527 C.ar    1  UNL1        0.1453
      5 C          -5.8827  -16.2089   23.8884 C.ar    1  UNL1        0.0376
      6 C          -7.3506  -16.0707   23.6125 C.ar    1  UNL1        0.0063
      7 N         -11.6430  -16.6614   21.3718 N.ar    1  UNL1       -0.1495
      8 N         -11.9357  -16.8612   22.8294 N.ar    1  UNL1       -0.0450
      9 N         -10.6300  -17.0543   23.5421 N.ar    1  UNL1       -0.1077
     10 C          -9.5304  -16.9739   22.5251 C.ar    1  UNL1        0.2058
     11 N         -10.1565  -16.7311   21.1838 N.ar    1  UNL1       -0.1297
     12 C         -12.6585  -16.4321   20.2920 C.3     1  UNL1        0.1681
     13 N         -10.9159  -15.0983   18.9013 N.3     1  UNL1       -0.3194
     14 C         -12.3307  -15.5406   19.1311 C.3     1  UNL1        0.0938
     15 H         -10.8762  -14.5018   18.0748 H       1  UNL1        0.1189
     16 H         -10.3228  -15.9159   18.7593 H       1  UNL1        0.1189
     17 O          -3.6587  -17.5266   23.6285 O.3     1  UNL1       -0.4535
     18 C          -2.6890  -17.6398   22.4898 C.ar    1  UNL1        0.1454
     19 C          -2.3574  -18.9863   21.9180 C.ar    1  UNL1        0.0384
     20 C          -1.3876  -19.0995   20.7792 C.ar    1  UNL1        0.0145
     21 C          -0.7495  -17.8661   20.2122 C.ar    1  UNL1        0.0579
     22 CL          0.2203  -17.9793   19.0735 Cl      1  UNL1       -0.0822
     23 C          -1.0811  -16.5196   20.7839 C.ar    1  UNL1        0.0145
     24 C          -2.0508  -16.4064   21.9227 C.ar    1  UNL1        0.0384
@<TRIPOS>BOND
     1    13    14    1
     2    14    12    1
     3    12     7    1
     4     7     8   ar
     5     8     9   ar
     6     9    10   ar
     7    10     1    1
     8     1     2   ar
     9     2     3   ar
    10     3     4   ar
    11     4    17    1
    12    17    18    1
    13    18    19   ar
    14    19    20   ar
    15    20    21   ar
    16    21    22    1
    17    21    23   ar
    18    23    24   ar
    19     4     5   ar
    20     5     6   ar
    21    10    11   ar
    22    11     7   ar
    23     6     1   ar
    24    24    18   ar
    25    13    15    1
    26    13    16    1
@<TRIPOS>MOLECULE
*****
 24 26 0 0 0
SMALL
GASTEIGER

@<TRIPOS>ATOM
      1 C          -8.2995  -19.1178   21.1792 C.ar    1  UNL1        0.0395
      2 C          -7.2661  -18.8080   22.2213 C.ar    1  UNL1        0.0063
      3 C          -5.8640  -19.3164   22.0615 C.ar    1  UNL1        0.0376
      4 C          -5.4953  -20.1346   20.8596 C.ar    1  UNL1        0.1453
      5 C          -6.5287  -20.4443   19.8174 C.ar    1  UNL1        0.0376
      6 C          -7.9308  -19.9360   19.9773 C.ar    1  UNL1        0.0063
      7 N         -11.7354  -17.3168   21.0495 N.ar    1  UNL1       -0.1495
      8 N         -11.9835  -18.3376   22.1203 N.ar    1  UNL1       -0.0450
      9 N         -10.7266  -19.1364   22.2992 N.ar    1  UNL1       -0.1077
     10 C          -9.7017  -18.6094   21.3390 C.ar    1  UNL1        0.2058
     11 N         -10.3252  -17.4849   20.5666 N.ar    1  UNL1       -0.1297
     12 C         -12.7240  -16.3056   20.5494 C.3     1  UNL1        0.1681
     13 N         -11.0301  -15.1397   18.9615 N.3     1  UNL1       -0.3194
     14 C         -12.4384  -15.5342   19.2951 C.3     1  UNL1        0.0938
     15 H         -11.0207  -14.6252   18.0808 H       1  UNL1        0.1189
     16 H         -10.4545  -15.9770   18.8722 H       1  UNL1        0.1189
     17 O          -4.0931  -20.6429   20.6998 O.3     1  UNL1       -0.4535
     18 C          -2.9612  -19.6761   20.5160 C.ar    1  UNL1        0.1454
     19 C          -2.0945  -19.3053   21.6828 C.ar    1  UNL1        0.0384
     20 C          -0.9625  -18.3384   21.4989 C.ar    1  UNL1        0.0145
     21 C          -0.6972  -17.7422   20.1483 C.ar    1  UNL1        0.0579
     22 CL          0.4347  -16.7754   19.9645 Cl      1  UNL1       -0.0822
     23 C          -1.5639  -18.1130   18.9815 C.ar    1  UNL1        0.0145
     24 C          -2.6959  -19.0798   19.1653 C.ar    1  UNL1        0.0384
@<TRIPOS>BOND
     1    13    14    1
     2    14    12    1
     3    12     7    1
     4     7     8   ar
     5     8     9   ar
     6     9    10   ar
     7    10     1    1
     8     1     2   ar
     9     2     3   ar
    10     3     4   ar
    11     4    17    1
    12    17    18    1
    13    18    19   ar
    14    19    20   ar
    15    20    21   ar
    16    21    22    1
    17    21    23   ar
    18    23    24   ar
    19     4     5   ar
    20     5     6   ar
    21    10    11   ar
    22    11     7   ar
    23     6     1   ar
    24    24    18   ar
    25    13    15    1
    26    13    16    1
@<TRIPOS>MOLECULE
*****
 24 26 0 0 0
SMALL
GASTEIGER

@<TRIPOS>ATOM
      1 C           2.0341    0.7960   18.9020 C.ar    1  UNL1        0.0395
      2 C           0.9008    0.3457   19.7753 C.ar    1  UNL1        0.0063
      3 C          -0.0969    1.3439   20.2833 C.ar    1  UNL1        0.0376
      4 C           0.0388    2.7924   19.9181 C.ar    1  UNL1        0.1453
      5 C           1.1721    3.2427   19.0448 C.ar    1  UNL1        0.0376
      6 C           2.1698    2.2445   18.5367 C.ar    1  UNL1        0.0063
      7 N           4.5173   -2.1168   18.2575 N.ar    1  UNL1       -0.1495
      8 N           4.6171   -1.3598   16.9663 N.ar    1  UNL1       -0.0450
      9 N           3.6991   -0.1765   17.0506 N.ar    1  UNL1       -0.1077
     10 C           3.0319   -0.2023   18.3939 C.ar    1  UNL1        0.2058
     11 N           3.5375   -1.4014   19.1397 N.ar    1  UNL1       -0.1297
     12 C           5.2658   -3.3693   18.6053 C.3     1  UNL1        0.1681
     13 N           3.0152   -4.6293   18.9171 N.3     1  UNL1       -0.3194
     14 C           4.5151   -4.6330   18.9045 C.3     1  UNL1        0.0938
     15 H           2.6747   -5.5654   19.1367 H       1  UNL1        0.1189
     16 H           2.6681   -4.3478   18.0002 H       1  UNL1        0.1189
     17 O          -0.9590    3.7906   20.4262 O.3     1  UNL1       -0.4535
     18 C          -2.3979    3.6886   20.0152 C.ar    1  UNL1        0.1454
     19 C          -3.4407    3.3070   21.0237 C.ar    1  UNL1        0.0384
     20 C          -4.8798    3.2050   20.6126 C.ar    1  UNL1        0.0145
     21 C          -5.2759    3.4845   19.1932 C.ar    1  UNL1        0.0579
     22 CL         -6.7149    3.3825   18.7822 Cl      1  UNL1       -0.0822
     23 C          -4.2331    3.8661   18.1847 C.ar    1  UNL1        0.0145
     24 C          -2.7942    3.9681   18.5957 C.ar    1  UNL1        0.0384
@<TRIPOS>BOND
     1    13    14    1
     2    14    12    1
     3    12     7    1
     4     7     8   ar
     5     8     9   ar
     6     9    10   ar
     7    10     1    1
     8     1     2   ar
     9     2     3   ar
    10     3     4   ar
    11     4    17    1
    12    17    18    1
    13    18    19   ar
    14    19    20   ar
    15    20    21   ar
    16    21    22    1
    17    21    23   ar
    18    23    24   ar
    19     4     5   ar
    20     5     6   ar
    21    10    11   ar
    22    11     7   ar
    23     6     1   ar
    24    24    18   ar
    25    13    15    1
    26    13    16    1
@<TRIPOS>MOLECULE
*****
 24 26 0 0 0
SMALL
GASTEIGER

@<TRIPOS>ATOM
      1 C           5.5535   -3.2382   21.2673 C.ar    1  UNL1        0.0395
      2 C           4.2406   -2.5641   21.5352 C.ar    1  UNL1        0.0063
      3 C           3.5228   -1.8530   20.4267 C.ar    1  UNL1        0.0376
      4 C           4.1178   -1.8160   19.0502 C.ar    1  UNL1        0.1453
      5 C           5.4307   -2.4901   18.7824 C.ar    1  UNL1        0.0376
      6 C           6.1486   -3.2012   19.8909 C.ar    1  UNL1        0.0063
      7 N           6.9841   -4.6521   24.5870 N.ar    1  UNL1       -0.1495
      8 N           7.7684   -5.4356   23.5765 N.ar    1  UNL1       -0.0450
      9 N           7.3279   -5.0013   22.2100 N.ar    1  UNL1       -0.1077
     10 C           6.2714   -3.9494   22.3759 C.ar    1  UNL1        0.2058
     11 N           6.0589   -3.7336   23.8450 N.ar    1  UNL1       -0.1297
     12 C           7.1039   -4.7670   26.0778 C.3     1  UNL1        0.1681
     13 N           5.5716   -5.8668   27.8646 N.3     1  UNL1       -0.3194
     14 C           6.5986   -5.9932   26.7786 C.3     1  UNL1        0.0938
     15 H           5.3449   -6.7927   28.2276 H       1  UNL1        0.1189
     16 H           4.7288   -5.4340   27.4869 H       1  UNL1        0.1189
     17 O           3.3999   -1.1048   17.9417 O.3     1  UNL1       -0.4535
     18 C           2.8695    0.2813   18.1595 C.ar    1  UNL1        0.1454
     19 C           3.8175    1.4386   18.2684 C.ar    1  UNL1        0.0384
     20 C           3.2869    2.8247   18.4863 C.ar    1  UNL1        0.0145
     21 C           1.8085    3.0534   18.5953 C.ar    1  UNL1        0.0579
     22 CL          1.2781    4.4394   18.8131 Cl      1  UNL1       -0.0822
     23 C           0.8605    1.8960   18.4863 C.ar    1  UNL1        0.0145
     24 C           1.3910    0.5100   18.2685 C.ar    1  UNL1        0.0384
@<TRIPOS>BOND
     1    13    14    1
     2    14    12    1
     3    12     7    1
     4     7     8   ar
     5     8     9   ar
     6     9    10   ar
     7    10     1    1
     8     1     2   ar
     9     2     3   ar
    10     3     4   ar
    11     4    17    1
    12    17    18    1
    13    18    19   ar
    14    19    20   ar
    15    20    21   ar
    16    21    22    1
    17    21    23   ar
    18    23    24   ar
    19     4     5   ar
    20     5     6   ar
    21    10    11   ar
    22    11     7   ar
    23     6     1   ar
    24    24    18   ar
    25    13    15    1
    26    13    16    1
