@<TRIPOS>MOLECULE
*****
 40 44 0 0 0
SMALL
GASTEIGER

@<TRIPOS>ATOM
      1 C           2.0248    1.8434   24.4413 C.3     1  UNL1        0.0903
      2 C           2.0115    1.2735   25.8288 C.3     1  UNL1        0.0919
      3 N           0.7476    1.2947   26.6362 N.3     1  UNL1       -0.2713
      4 C          -0.5031    1.8856   26.0561 C.3     1  UNL1        0.0722
      5 C          -0.4899    2.4555   24.6687 C.3     1  UNL1        0.0204
      6 C           0.7740    2.4343   23.8613 C.3     1  UNL1        0.0368
      7 N           4.9757    0.5427   22.1282 N.am    1  UNL1       -0.2485
      8 C           3.7117    0.5639   22.9357 C.2     1  UNL1        0.3059
      9 O           2.8707   -0.6735   23.0450 O.2     1  UNL1       -0.2524
     10 N           3.2888    1.8223   23.6338 N.am    1  UNL1       -0.2889
     11 H           5.5276    1.3548   22.0565 H       1  UNL1        0.1583
     12 H           3.8407    2.6343   23.5621 H       1  UNL1        0.1510
     13 C           6.6982   -2.6431   20.7321 C.ar    1  UNL1        0.0803
     14 S           6.6967   -1.4406   21.6287 S.2     1  UNL1       -0.0488
     15 C           5.3987   -0.7157   21.4300 C.ar    1  UNL1        0.1664
     16 N           4.5978   -1.4702   20.4105 N.ar    1  UNL1       -0.2282
     17 C           5.4010   -2.6614   19.9791 C.ar    1  UNL1        0.0701
     18 C           4.9807   -3.6902   18.9717 C.3     1  UNL1        0.0528
     19 C           9.1267   -3.2453   20.0324 C.3     1  UNL1        0.0779
     20 C           7.8029   -3.6504   20.6098 C.2     1  UNL1        0.1807
     21 O           7.5838   -5.0627   21.0649 O.2     1  UNL1       -0.2908
     22 C           0.7343    0.7248   28.0237 C.3     1  UNL1        0.0721
     23 C          -0.5386    0.1760   28.5969 C.3     1  UNL1        0.0160
     24 C          -1.7600    0.3496   29.4501 C.3     1  UNL1        0.0014
     25 C          -1.5218   -0.9482   28.7365 C.3     1  UNL1        0.0014
     26 C           0.7873    3.0042   22.4738 C.3     1  UNL1        0.0738
     27 N           1.1285    2.1269   21.3059 N.3     1  UNL1       -0.2726
     28 C           0.4179    0.8194   21.1172 C.3     1  UNL1        0.0721
     29 C           0.7591   -0.0580   19.9494 C.3     1  UNL1        0.0174
     30 C           1.8110    0.3722   18.9702 C.3     1  UNL1        0.0031
     31 C           2.5215    1.6797   19.1589 C.3     1  UNL1        0.0204
     32 C           2.1803    2.5570   20.3268 C.3     1  UNL1        0.0724
     33 C           3.5733    2.1099   18.1798 C.3     1  UNL1        0.0277
     34 C           4.9603    1.5463   18.2731 C.ar    1  UNL1       -0.0220
     35 C           5.9780    2.2013   19.1593 C.ar    1  UNL1       -0.0020
     36 C           7.3649    1.6377   19.2526 C.ar    1  UNL1        0.0293
     37 C           7.7342    0.4191   18.4597 C.ar    1  UNL1        0.1401
     38 F           9.1211   -0.1445   18.5530 F       1  UNL1       -0.2042
     39 C           6.7165   -0.2359   17.5736 C.ar    1  UNL1        0.0293
     40 C           5.3296    0.3277   17.4802 C.ar    1  UNL1       -0.0020
@<TRIPOS>BOND
     1    19    20    1
     2    20    21    2
     3    20    13    1
     4    13    14   ar
     5    14    15   ar
     6    15     7    1
     7     7     8   am
     8     8     9    2
     9     8    10   am
    10     1    10    1
    11     1     2    1
    12     2     3    1
    13     3    22    1
    14    22    23    1
    15    23    24    1
    16    24    25    1
    17     3     4    1
    18     4     5    1
    19     5     6    1
    20     6    26    1
    21    26    27    1
    22    27    28    1
    23    28    29    1
    24    29    30    1
    25    30    31    1
    26    31    33    1
    27    33    34    1
    28    34    35   ar
    29    35    36   ar
    30    36    37   ar
    31    37    38    1
    32    37    39   ar
    33    39    40   ar
    34    31    32    1
    35    15    16   ar
    36    16    17   ar
    37    17    18    1
    38    17    13   ar
    39     6     1    1
    40    32    27    1
    41    25    23    1
    42    40    34   ar
    43     7    11    1
    44    10    12    1
@<TRIPOS>MOLECULE
*****
 40 44 0 0 0
SMALL
GASTEIGER

@<TRIPOS>ATOM
      1 C           4.4077   -1.4392   26.2981 C.3     1  UNL1        0.0903
      2 C           3.2533   -1.2432   27.2356 C.3     1  UNL1        0.0919
      3 N           3.4824   -0.6477   28.5931 N.3     1  UNL1       -0.2713
      4 C           4.8659   -0.2482   29.0131 C.3     1  UNL1        0.0722
      5 C           6.0203   -0.4443   28.0756 C.3     1  UNL1        0.0204
      6 C           5.7912   -1.0398   26.7181 C.3     1  UNL1        0.0368
      7 N           3.6602   -1.7385   22.4120 N.am    1  UNL1       -0.2485
      8 C           3.8893   -1.1431   23.7696 C.2     1  UNL1        0.3059
      9 O           3.8290    0.3441   23.9562 O.2     1  UNL1       -0.2524
     10 N           4.1786   -2.0347   24.9406 N.am    1  UNL1       -0.2889
     11 H           3.6997   -2.7146   22.2896 H       1  UNL1        0.1583
     12 H           4.2181   -3.0108   24.8181 H       1  UNL1        0.1510
     13 C           3.6284    0.7859   19.4638 C.ar    1  UNL1        0.0803
     14 S           4.3379    0.0989   20.5928 S.2     1  UNL1       -0.0488
     15 C           3.3708   -0.8468   21.2411 C.ar    1  UNL1        0.1664
     16 N           2.0636   -0.7444   20.5127 N.ar    1  UNL1       -0.2282
     17 C           2.2227    0.2647   19.4143 C.ar    1  UNL1        0.0701
     18 C           1.1624    0.6797   18.4378 C.3     1  UNL1        0.0528
     19 C           5.3716    1.4496   17.6553 C.3     1  UNL1        0.0779
     20 C           4.2206    1.8136   18.5456 C.2     1  UNL1        0.1807
     21 O           3.6618    3.2053   18.5177 O.2     1  UNL1       -0.2908
     22 C           2.3280   -0.4516   29.5307 C.3     1  UNL1        0.0721
     23 C           0.9773   -0.0852   28.9909 C.3     1  UNL1        0.0160
     24 C           0.1086    0.8214   28.1704 C.3     1  UNL1        0.0014
     25 C          -0.4933   -0.3571   28.8766 C.3     1  UNL1        0.0014
     26 C           6.9456   -1.2359   25.7806 C.3     1  UNL1        0.0738
     27 N           7.1677   -2.5707   25.1333 N.3     1  UNL1       -0.2726
     28 C           6.9926   -3.8292   25.9305 C.3     1  UNL1        0.0721
     29 C           7.2147   -5.1640   25.2832 C.3     1  UNL1        0.0174
     30 C           7.6118   -5.2402   23.8387 C.3     1  UNL1        0.0031
     31 C           7.7869   -3.9817   23.0415 C.3     1  UNL1        0.0204
     32 C           7.5648   -2.6469   23.6888 C.3     1  UNL1        0.0724
     33 C           8.1840   -4.0580   21.5970 C.3     1  UNL1        0.0277
     34 C           7.2594   -3.5377   20.5366 C.ar    1  UNL1       -0.0220
     35 C           7.7492   -2.5228   19.5466 C.ar    1  UNL1       -0.0020
     36 C           6.8247   -2.0025   18.4861 C.ar    1  UNL1        0.0293
     37 C           5.4103   -2.4973   18.4157 C.ar    1  UNL1        0.1401
     38 F           4.4857   -1.9770   17.3553 F       1  UNL1       -0.2042
     39 C           4.9206   -3.5122   19.4056 C.ar    1  UNL1        0.0293
     40 C           5.8451   -4.0324   20.4661 C.ar    1  UNL1       -0.0020
@<TRIPOS>BOND
     1    19    20    1
     2    20    21    2
     3    20    13    1
     4    13    14   ar
     5    14    15   ar
     6    15     7    1
     7     7     8   am
     8     8     9    2
     9     8    10   am
    10     1    10    1
    11     1     2    1
    12     2     3    1
    13     3    22    1
    14    22    23    1
    15    23    24    1
    16    24    25    1
    17     3     4    1
    18     4     5    1
    19     5     6    1
    20     6    26    1
    21    26    27    1
    22    27    28    1
    23    28    29    1
    24    29    30    1
    25    30    31    1
    26    31    33    1
    27    33    34    1
    28    34    35   ar
    29    35    36   ar
    30    36    37   ar
    31    37    38    1
    32    37    39   ar
    33    39    40   ar
    34    31    32    1
    35    15    16   ar
    36    16    17   ar
    37    17    18    1
    38    17    13   ar
    39     6     1    1
    40    32    27    1
    41    25    23    1
    42    40    34   ar
    43     7    11    1
    44    10    12    1
@<TRIPOS>MOLECULE
*****
 40 44 0 0 0
SMALL
GASTEIGER

@<TRIPOS>ATOM
      1 C           2.5093    1.4464   19.9568 C.3     1  UNL1        0.0903
      2 C           2.5545    0.2273   19.0840 C.3     1  UNL1        0.0919
      3 N           3.4952   -0.8944   19.4106 N.3     1  UNL1       -0.2713
      4 C           4.3908   -0.7971   20.6100 C.3     1  UNL1        0.0722
      5 C           4.3456    0.4220   21.4827 C.3     1  UNL1        0.0204
      6 C           3.4049    1.5437   21.1561 C.3     1  UNL1        0.0368
      7 N          -0.7936    3.6395   19.7804 N.am    1  UNL1       -0.2485
      8 C           0.1472    2.5178   20.1069 C.2     1  UNL1        0.3059
      9 O          -0.3334    1.3457   20.9102 O.2     1  UNL1       -0.2524
     10 N           1.5685    2.5682   19.6302 N.am    1  UNL1       -0.2889
     11 H          -0.4782    4.4088   19.2532 H       1  UNL1        0.1583
     12 H           1.8840    3.3375   19.1030 H       1  UNL1        0.1510
     13 C          -4.6383    3.7139   20.3081 C.ar    1  UNL1        0.0803
     14 S          -3.4324    3.8867   19.4329 S.2     1  UNL1       -0.0488
     15 C          -2.2149    3.5892   20.2571 C.ar    1  UNL1        0.1664
     16 N          -2.6684    3.2325   21.6417 N.ar    1  UNL1       -0.2282
     17 C          -4.1661    3.3096   21.6732 C.ar    1  UNL1        0.0701
     18 C          -5.0384    3.0312   22.8613 C.3     1  UNL1        0.0528
     19 C          -6.6084    3.1741   18.7028 C.3     1  UNL1        0.0779
     20 C          -6.0657    3.9108   19.8914 C.2     1  UNL1        0.1807
     21 O          -6.9503    4.8444   20.6631 O.2     1  UNL1       -0.2908
     22 C           3.5404   -2.1136   18.5378 C.3     1  UNL1        0.0721
     23 C           3.9743   -3.4303   19.1106 C.3     1  UNL1        0.0160
     24 C           5.0135   -4.2725   19.7892 C.3     1  UNL1        0.0014
     25 C           3.6864   -4.8686   19.4240 C.3     1  UNL1        0.0014
     26 C           3.3597    2.7629   22.0289 C.3     1  UNL1        0.0738
     27 N           2.1311    3.0625   22.8358 N.3     1  UNL1       -0.2726
     28 C           1.4602    4.3984   22.7124 C.3     1  UNL1        0.0721
     29 C           0.2317    4.6980   23.5193 C.3     1  UNL1        0.0174
     30 C          -0.3259    3.6617   24.4494 C.3     1  UNL1        0.0031
     31 C           0.3450    2.3258   24.5727 C.3     1  UNL1        0.0204
     32 C           1.5735    2.0262   23.7659 C.3     1  UNL1        0.0724
     33 C          -0.2126    1.2894   25.5029 C.3     1  UNL1        0.0277
     34 C           0.0095    1.4113   26.9813 C.ar    1  UNL1       -0.0220
     35 C           1.0611    2.3427   27.5075 C.ar    1  UNL1       -0.0020
     36 C           1.2832    2.4646   28.9859 C.ar    1  UNL1        0.0293
     37 C           0.4537    1.6551   29.9382 C.ar    1  UNL1        0.1401
     38 F           0.6758    1.7771   31.4167 F       1  UNL1       -0.2042
     39 C          -0.5978    0.7238   29.4120 C.ar    1  UNL1        0.0293
     40 C          -0.8199    0.6019   27.9336 C.ar    1  UNL1       -0.0020
@<TRIPOS>BOND
     1    19    20    1
     2    20    21    2
     3    20    13    1
     4    13    14   ar
     5    14    15   ar
     6    15     7    1
     7     7     8   am
     8     8     9    2
     9     8    10   am
    10     1    10    1
    11     1     2    1
    12     2     3    1
    13     3    22    1
    14    22    23    1
    15    23    24    1
    16    24    25    1
    17     3     4    1
    18     4     5    1
    19     5     6    1
    20     6    26    1
    21    26    27    1
    22    27    28    1
    23    28    29    1
    24    29    30    1
    25    30    31    1
    26    31    33    1
    27    33    34    1
    28    34    35   ar
    29    35    36   ar
    30    36    37   ar
    31    37    38    1
    32    37    39   ar
    33    39    40   ar
    34    31    32    1
    35    15    16   ar
    36    16    17   ar
    37    17    18    1
    38    17    13   ar
    39     6     1    1
    40    32    27    1
    41    25    23    1
    42    40    34   ar
    43     7    11    1
    44    10    12    1
@<TRIPOS>MOLECULE
*****
 40 44 0 0 0
SMALL
GASTEIGER

@<TRIPOS>ATOM
      1 C           6.5662   -3.4551   23.8961 C.3     1  UNL1        0.0903
      2 C           5.7371   -3.1078   22.6953 C.3     1  UNL1        0.0919
      3 N           6.3791   -3.0112   21.3431 N.3     1  UNL1       -0.2713
      4 C           7.8502   -3.2620   21.1917 C.3     1  UNL1        0.0722
      5 C           8.6794   -3.6092   22.3925 C.3     1  UNL1        0.0204
      6 C           8.0373   -3.7058   23.7447 C.3     1  UNL1        0.0368
      7 N           4.8714   -2.4014   27.3264 N.am    1  UNL1       -0.2485
      8 C           5.5133   -2.3049   25.9742 C.2     1  UNL1        0.3059
      9 O           5.7445   -0.9617   25.3478 O.2     1  UNL1       -0.2524
     10 N           5.9242   -3.5516   25.2483 N.am    1  UNL1       -0.2889
     11 H           4.7197   -3.2830   27.7375 H       1  UNL1        0.1583
     12 H           5.7725   -4.4332   25.6594 H       1  UNL1        0.1510
     13 C           3.1078    0.5679   29.0981 C.ar    1  UNL1        0.0803
     14 S           3.0533   -0.7389   28.3636 S.2     1  UNL1       -0.0488
     15 C           4.4605   -1.1547   28.0523 C.ar    1  UNL1        0.1664
     16 N           5.3847   -0.1050   28.5944 N.ar    1  UNL1       -0.2282
     17 C           4.5487    0.9597   29.2407 C.ar    1  UNL1        0.0701
     18 C           5.0632    2.1986   29.9118 C.3     1  UNL1        0.0528
     19 C           1.3685    2.4720   28.7837 C.3     1  UNL1        0.0779
     20 C           1.9285    1.3462   29.6015 C.2     1  UNL1        0.1807
     21 O           1.3091    0.9986   30.9226 O.2     1  UNL1       -0.2908
     22 C           5.5500   -2.6640   20.1422 C.3     1  UNL1        0.0721
     23 C           4.6839   -3.7077   19.5015 C.3     1  UNL1        0.0160
     24 C           4.5426   -5.0206   18.7901 C.3     1  UNL1        0.0014
     25 C           3.3250   -4.2025   19.1033 C.3     1  UNL1        0.0014
     26 C           8.8665   -4.0531   24.9455 C.3     1  UNL1        0.0738
     27 N           8.6192   -5.3362   25.6820 N.3     1  UNL1       -0.2726
     28 C           8.1292   -6.5444   24.9401 C.3     1  UNL1        0.0721
     29 C           7.8820   -7.8275   25.6765 C.3     1  UNL1        0.0174
     30 C           8.1247   -7.9025   27.1549 C.3     1  UNL1        0.0031
     31 C           8.6146   -6.6944   27.8967 C.3     1  UNL1        0.0204
     32 C           8.8619   -5.4113   27.1603 C.3     1  UNL1        0.0724
     33 C           8.8573   -6.7694   29.3751 C.3     1  UNL1        0.0277
     34 C           8.4691   -5.6207   30.2581 C.ar    1  UNL1       -0.0220
     35 C           7.0214   -5.3483   30.5413 C.ar    1  UNL1       -0.0020
     36 C           6.6332   -4.1996   31.4243 C.ar    1  UNL1        0.0293
     37 C           7.6926   -3.3232   32.0241 C.ar    1  UNL1        0.1401
     38 F           7.3044   -2.1744   32.9071 F       1  UNL1       -0.2042
     39 C           9.1402   -3.5956   31.7408 C.ar    1  UNL1        0.0293
     40 C           9.5284   -4.7443   30.8578 C.ar    1  UNL1       -0.0020
@<TRIPOS>BOND
     1    19    20    1
     2    20    21    2
     3    20    13    1
     4    13    14   ar
     5    14    15   ar
     6    15     7    1
     7     7     8   am
     8     8     9    2
     9     8    10   am
    10     1    10    1
    11     1     2    1
    12     2     3    1
    13     3    22    1
    14    22    23    1
    15    23    24    1
    16    24    25    1
    17     3     4    1
    18     4     5    1
    19     5     6    1
    20     6    26    1
    21    26    27    1
    22    27    28    1
    23    28    29    1
    24    29    30    1
    25    30    31    1
    26    31    33    1
    27    33    34    1
    28    34    35   ar
    29    35    36   ar
    30    36    37   ar
    31    37    38    1
    32    37    39   ar
    33    39    40   ar
    34    31    32    1
    35    15    16   ar
    36    16    17   ar
    37    17    18    1
    38    17    13   ar
    39     6     1    1
    40    32    27    1
    41    25    23    1
    42    40    34   ar
    43     7    11    1
    44    10    12    1
@<TRIPOS>MOLECULE
*****
 40 44 0 0 0
SMALL
GASTEIGER

@<TRIPOS>ATOM
      1 C           3.3075    0.9788   25.7505 C.3     1  UNL1        0.0903
      2 C           2.1013    1.2505   26.5998 C.3     1  UNL1        0.0919
      3 N           0.7371    1.2817   25.9770 N.3     1  UNL1       -0.2713
      4 C           0.5791    1.0411   24.5049 C.3     1  UNL1        0.0722
      5 C           1.7852    0.7694   23.6556 C.3     1  UNL1        0.0204
      6 C           3.1494    0.7383   24.2784 C.3     1  UNL1        0.0368
      7 N           6.5169   -0.3253   27.6869 N.am    1  UNL1       -0.2485
      8 C           5.1527   -0.2940   27.0641 C.2     1  UNL1        0.3059
      9 O           4.2693   -1.5045   27.1320 O.2     1  UNL1       -0.2524
     10 N           4.6718    0.9476   26.3733 N.am    1  UNL1       -0.2889
     11 H           7.0966    0.4692   27.6423 H       1  UNL1        0.1583
     12 H           5.2515    1.7420   26.3288 H       1  UNL1        0.1510
     13 C           7.1866   -3.4106   29.9446 C.ar    1  UNL1        0.0803
     14 S           6.3885   -2.1884   29.5993 S.2     1  UNL1       -0.0488
     15 C           6.9978   -1.5669   28.3776 C.ar    1  UNL1        0.1664
     16 N           8.1723   -2.4051   27.9679 N.ar    1  UNL1       -0.2282
     17 C           8.2890   -3.5445   28.9364 C.ar    1  UNL1        0.0701
     18 C           9.3261   -4.6277   28.9025 C.3     1  UNL1        0.0528
     19 C           7.0235   -5.8206   30.9014 C.3     1  UNL1        0.0779
     20 C           6.9276   -4.3364   31.0961 C.2     1  UNL1        0.1807
     21 O           6.5727   -3.7780   32.4422 O.2     1  UNL1       -0.2908
     22 C          -0.4691    1.5534   26.8263 C.3     1  UNL1        0.0721
     23 C          -0.7670    0.6785   28.0078 C.3     1  UNL1        0.0160
     24 C          -1.7320    0.1708   29.0377 C.3     1  UNL1        0.0014
     25 C          -0.3179   -0.3291   29.0241 C.3     1  UNL1        0.0014
     26 C           4.3556    0.4665   23.4291 C.3     1  UNL1        0.0738
     27 N           4.7388   -0.9460   23.1006 N.3     1  UNL1       -0.2726
     28 C           3.8830   -1.7594   22.1753 C.3     1  UNL1        0.0721
     29 C           4.2662   -3.1720   21.8468 C.3     1  UNL1        0.0174
     30 C           5.5051   -3.7711   22.4436 C.3     1  UNL1        0.0031
     31 C           6.3609   -2.9577   23.3688 C.3     1  UNL1        0.0204
     32 C           5.9777   -1.5452   23.6973 C.3     1  UNL1        0.0724
     33 C           7.5998   -3.5569   23.9656 C.3     1  UNL1        0.0277
     34 C           7.5285   -4.8778   24.6727 C.ar    1  UNL1       -0.0220
     35 C           8.1645   -6.0911   24.0614 C.ar    1  UNL1       -0.0020
     36 C           8.0932   -7.4120   24.7684 C.ar    1  UNL1        0.0293
     37 C           7.3857   -7.5198   26.0868 C.ar    1  UNL1        0.1401
     38 F           7.3144   -8.8408   26.7938 F       1  UNL1       -0.2042
     39 C           6.7497   -6.3066   26.6980 C.ar    1  UNL1        0.0293
     40 C           6.8211   -4.9857   25.9910 C.ar    1  UNL1       -0.0020
@<TRIPOS>BOND
     1    19    20    1
     2    20    21    2
     3    20    13    1
     4    13    14   ar
     5    14    15   ar
     6    15     7    1
     7     7     8   am
     8     8     9    2
     9     8    10   am
    10     1    10    1
    11     1     2    1
    12     2     3    1
    13     3    22    1
    14    22    23    1
    15    23    24    1
    16    24    25    1
    17     3     4    1
    18     4     5    1
    19     5     6    1
    20     6    26    1
    21    26    27    1
    22    27    28    1
    23    28    29    1
    24    29    30    1
    25    30    31    1
    26    31    33    1
    27    33    34    1
    28    34    35   ar
    29    35    36   ar
    30    36    37   ar
    31    37    38    1
    32    37    39   ar
    33    39    40   ar
    34    31    32    1
    35    15    16   ar
    36    16    17   ar
    37    17    18    1
    38    17    13   ar
    39     6     1    1
    40    32    27    1
    41    25    23    1
    42    40    34   ar
    43     7    11    1
    44    10    12    1
@<TRIPOS>MOLECULE
*****
 40 44 0 0 0
SMALL
GASTEIGER

@<TRIPOS>ATOM
      1 C          -0.0973    3.5434   23.7568 C.3     1  UNL1        0.0903
      2 C          -0.8758    3.2899   25.0137 C.3     1  UNL1        0.0919
      3 N          -0.4253    2.2291   25.9738 N.3     1  UNL1       -0.2713
      4 C           0.8037    1.4219   25.6770 C.3     1  UNL1        0.0722
      5 C           1.5821    1.6754   24.4202 C.3     1  UNL1        0.0204
      6 C           1.1316    2.7361   23.4601 C.3     1  UNL1        0.0368
      7 N          -1.9348    5.3154   20.7181 N.am    1  UNL1       -0.2485
      8 C          -1.4843    4.2547   21.6783 C.2     1  UNL1        0.3059
      9 O          -1.9704    2.8444   21.5201 O.2     1  UNL1       -0.2524
     10 N          -0.5478    4.6042   22.7966 N.am    1  UNL1       -0.2889
     11 H          -1.6158    6.2410   20.8220 H       1  UNL1        0.1583
     12 H          -0.2287    5.5298   22.9005 H       1  UNL1        0.1510
     13 C          -4.8726    4.7718   18.2403 C.ar    1  UNL1        0.0803
     14 S          -4.3280    5.3166   19.5274 S.2     1  UNL1       -0.0488
     15 C          -2.8713    4.9659   19.5997 C.ar    1  UNL1        0.1664
     16 N          -2.5157    4.2044   18.3573 N.ar    1  UNL1       -0.2282
     17 C          -3.7525    4.0845   17.5171 C.ar    1  UNL1        0.0701
     18 C          -3.8518    3.3977   16.1873 C.3     1  UNL1        0.0528
     19 C          -6.6324    5.8730   16.6782 C.3     1  UNL1        0.0779
     20 C          -6.2886    4.8931   17.7606 C.2     1  UNL1        0.1807
     21 O          -7.3608    4.0346   18.3633 O.2     1  UNL1       -0.2908
     22 C          -1.2037    1.9756   27.2307 C.3     1  UNL1        0.0721
     23 C          -0.8992    0.7712   28.0714 C.3     1  UNL1        0.0160
     24 C          -1.3270   -0.5338   28.6745 C.3     1  UNL1        0.0014
     25 C           0.0560   -0.0096   28.9244 C.3     1  UNL1        0.0014
     26 C           1.9101    2.9897   22.2032 C.3     1  UNL1        0.0738
     27 N           1.7373    2.0857   21.0187 N.3     1  UNL1       -0.2726
     28 C           1.0468    2.5887   19.7857 C.3     1  UNL1        0.0721
     29 C           0.8740    1.6847   18.6013 C.3     1  UNL1        0.0174
     30 C           1.3917    0.2776   18.6498 C.3     1  UNL1        0.0031
     31 C           2.0821   -0.2253   19.8828 C.3     1  UNL1        0.0204
     32 C           2.2549    0.6787   21.0672 C.3     1  UNL1        0.0724
     33 C           2.5998   -1.6324   19.9314 C.3     1  UNL1        0.0277
     34 C           4.0529   -1.9060   19.6791 C.ar    1  UNL1       -0.0220
     35 C           5.0186   -1.9467   20.8262 C.ar    1  UNL1       -0.0020
     36 C           6.4717   -2.2204   20.5739 C.ar    1  UNL1        0.0293
     37 C           6.9591   -2.4533   19.1745 C.ar    1  UNL1        0.1401
     38 F           8.4122   -2.7269   18.9222 F       1  UNL1       -0.2042
     39 C           5.9934   -2.4125   18.0275 C.ar    1  UNL1        0.0293
     40 C           4.5403   -2.1389   18.2798 C.ar    1  UNL1       -0.0020
@<TRIPOS>BOND
     1    19    20    1
     2    20    21    2
     3    20    13    1
     4    13    14   ar
     5    14    15   ar
     6    15     7    1
     7     7     8   am
     8     8     9    2
     9     8    10   am
    10     1    10    1
    11     1     2    1
    12     2     3    1
    13     3    22    1
    14    22    23    1
    15    23    24    1
    16    24    25    1
    17     3     4    1
    18     4     5    1
    19     5     6    1
    20     6    26    1
    21    26    27    1
    22    27    28    1
    23    28    29    1
    24    29    30    1
    25    30    31    1
    26    31    33    1
    27    33    34    1
    28    34    35   ar
    29    35    36   ar
    30    36    37   ar
    31    37    38    1
    32    37    39   ar
    33    39    40   ar
    34    31    32    1
    35    15    16   ar
    36    16    17   ar
    37    17    18    1
    38    17    13   ar
    39     6     1    1
    40    32    27    1
    41    25    23    1
    42    40    34   ar
    43     7    11    1
    44    10    12    1
@<TRIPOS>MOLECULE
*****
 40 44 0 0 0
SMALL
GASTEIGER

@<TRIPOS>ATOM
      1 C           5.0183   -0.8587   24.5307 C.3     1  UNL1        0.0903
      2 C           5.4161   -2.0557   23.7190 C.3     1  UNL1        0.0919
      3 N           4.6021   -2.4559   22.5243 N.3     1  UNL1       -0.2713
      4 C           3.3902   -1.6591   22.1415 C.3     1  UNL1        0.0722
      5 C           2.9924   -0.4622   22.9532 C.3     1  UNL1        0.0204
      6 C           3.8064   -0.0620   24.1478 C.3     1  UNL1        0.0368
      7 N           6.4479   -0.7588   28.2316 N.am    1  UNL1       -0.2485
      8 C           5.6339   -1.1590   27.0369 C.2     1  UNL1        0.3059
      9 O           4.6215   -2.2597   27.1537 O.2     1  UNL1       -0.2524
     10 N           5.8323   -0.4585   25.7254 N.am    1  UNL1       -0.2889
     11 H           7.1123   -0.0363   28.1549 H       1  UNL1        0.1583
     12 H           6.4967    0.2639   25.6487 H       1  UNL1        0.1510
     13 C           5.5156   -1.9697   31.7995 C.ar    1  UNL1        0.0803
     14 S           5.4394   -0.9528   30.6994 S.2     1  UNL1       -0.0488
     15 C           6.2495   -1.4592   29.5431 C.ar    1  UNL1        0.1664
     16 N           6.8265   -2.7891   29.9285 N.ar    1  UNL1       -0.2282
     17 C           6.3729   -3.1046   31.3230 C.ar    1  UNL1        0.0701
     18 C           6.7164   -4.3384   32.1039 C.3     1  UNL1        0.0528
     19 C           5.2634   -0.7953   34.1032 C.3     1  UNL1        0.0779
     20 C           4.8512   -1.8693   33.1406 C.2     1  UNL1        0.1807
     21 O           3.7748   -2.8429   33.5190 O.2     1  UNL1       -0.2908
     22 C           4.9999   -3.6529   21.7125 C.3     1  UNL1        0.0721
     23 C           4.2952   -3.9521   20.4226 C.3     1  UNL1        0.0160
     24 C           3.8367   -3.5184   19.0619 C.3     1  UNL1        0.0014
     25 C           3.5330   -4.9042   19.5493 C.3     1  UNL1        0.0014
     26 C           3.4086    1.1350   24.9597 C.3     1  UNL1        0.0738
     27 N           2.2258    1.0583   25.8790 N.3     1  UNL1       -0.2726
     28 C           0.8644    1.4477   25.3837 C.3     1  UNL1        0.0721
     29 C          -0.3184    1.3709   26.3030 C.3     1  UNL1        0.0174
     30 C          -0.1398    0.9047   27.7176 C.3     1  UNL1        0.0031
     31 C           1.2214    0.5153   28.2127 C.3     1  UNL1        0.0204
     32 C           2.4042    0.5921   27.2934 C.3     1  UNL1        0.0724
     33 C           1.4000    0.0491   29.6273 C.3     1  UNL1        0.0277
     34 C           1.4630    1.0486   30.7440 C.ar    1  UNL1       -0.0220
     35 C           0.5101    2.2068   30.7686 C.ar    1  UNL1       -0.0020
     36 C           0.5730    3.2063   31.8853 C.ar    1  UNL1        0.0293
     37 C           1.5889    3.0475   32.9775 C.ar    1  UNL1        0.1401
     38 F           1.6519    4.0469   34.0943 F       1  UNL1       -0.2042
     39 C           2.5418    1.8893   32.9530 C.ar    1  UNL1        0.0293
     40 C           2.4788    0.8898   31.8362 C.ar    1  UNL1       -0.0020
@<TRIPOS>BOND
     1    19    20    1
     2    20    21    2
     3    20    13    1
     4    13    14   ar
     5    14    15   ar
     6    15     7    1
     7     7     8   am
     8     8     9    2
     9     8    10   am
    10     1    10    1
    11     1     2    1
    12     2     3    1
    13     3    22    1
    14    22    23    1
    15    23    24    1
    16    24    25    1
    17     3     4    1
    18     4     5    1
    19     5     6    1
    20     6    26    1
    21    26    27    1
    22    27    28    1
    23    28    29    1
    24    29    30    1
    25    30    31    1
    26    31    33    1
    27    33    34    1
    28    34    35   ar
    29    35    36   ar
    30    36    37   ar
    31    37    38    1
    32    37    39   ar
    33    39    40   ar
    34    31    32    1
    35    15    16   ar
    36    16    17   ar
    37    17    18    1
    38    17    13   ar
    39     6     1    1
    40    32    27    1
    41    25    23    1
    42    40    34   ar
    43     7    11    1
    44    10    12    1
@<TRIPOS>MOLECULE
*****
 40 44 0 0 0
SMALL
GASTEIGER

@<TRIPOS>ATOM
      1 C           4.0048    0.2830   26.5644 C.3     1  UNL1        0.0903
      2 C           2.6595    0.9247   26.7328 C.3     1  UNL1        0.0919
      3 N           1.8455    0.6486   27.9621 N.3     1  UNL1       -0.2713
      4 C           2.3768   -0.2693   29.0229 C.3     1  UNL1        0.0722
      5 C           3.7220   -0.9110   28.8545 C.3     1  UNL1        0.0204
      6 C           4.5360   -0.6349   27.6252 C.3     1  UNL1        0.0368
      7 N           5.3246    0.1174   22.8253 N.am    1  UNL1       -0.2485
      8 C           4.5105   -0.1586   24.0545 C.2     1  UNL1        0.3059
      9 O           3.3881   -1.1524   24.0033 O.2     1  UNL1       -0.2524
     10 N           4.8189    0.5590   25.3351 N.am    1  UNL1       -0.2889
     11 H           6.0612    0.7696   22.8589 H       1  UNL1        0.1583
     12 H           5.5556    1.2113   25.3688 H       1  UNL1        0.1510
     13 C           4.9056   -1.1739   19.1890 C.ar    1  UNL1        0.0803
     14 S           5.4237   -0.1633   20.1689 S.2     1  UNL1       -0.0488
     15 C           5.0162   -0.6003   21.5447 C.ar    1  UNL1        0.1664
     16 N           4.2462   -1.8810   21.4152 N.ar    1  UNL1       -0.2282
     17 C           4.1778   -2.2356   19.9593 C.ar    1  UNL1        0.0701
     18 C           3.5006   -3.4402   19.3760 C.3     1  UNL1        0.0528
     19 C           3.9087   -0.8474   16.8121 C.3     1  UNL1        0.0779
     20 C           5.0839   -1.1305   17.7003 C.2     1  UNL1        0.1807
     21 O           6.4373   -1.3701   17.0997 O.2     1  UNL1       -0.2908
     22 C           0.5002    1.2903   28.1305 C.3     1  UNL1        0.0721
     23 C          -0.6584    0.4821   28.6350 C.3     1  UNL1        0.0160
     24 C          -1.9199    0.3822   29.4403 C.3     1  UNL1        0.0014
     25 C          -1.4035   -0.8179   28.7034 C.3     1  UNL1        0.0014
     26 C           5.8814   -1.2766   27.4568 C.3     1  UNL1        0.0738
     27 N           6.1954   -2.5585   28.1696 N.3     1  UNL1       -0.2726
     28 C           6.3210   -3.8365   27.3943 C.3     1  UNL1        0.0721
     29 C           6.6350   -5.1184   28.1072 C.3     1  UNL1        0.0174
     30 C           6.8234   -5.1223   29.5953 C.3     1  UNL1        0.0031
     31 C           6.6979   -3.8443   30.3706 C.3     1  UNL1        0.0204
     32 C           6.3839   -2.5624   29.6577 C.3     1  UNL1        0.0724
     33 C           6.8863   -3.8482   31.8587 C.3     1  UNL1        0.0277
     34 C           6.3307   -2.7285   32.6880 C.ar    1  UNL1       -0.0220
     35 C           4.8820   -2.7309   33.0771 C.ar    1  UNL1       -0.0020
     36 C           4.3264   -1.6112   33.9064 C.ar    1  UNL1        0.0293
     37 C           5.2195   -0.4892   34.3465 C.ar    1  UNL1        0.1401
     38 F           4.6638    0.6304   35.1757 F       1  UNL1       -0.2042
     39 C           6.6681   -0.4869   33.9573 C.ar    1  UNL1        0.0293
     40 C           7.2237   -1.6066   33.1280 C.ar    1  UNL1       -0.0020
@<TRIPOS>BOND
     1    19    20    1
     2    20    21    2
     3    20    13    1
     4    13    14   ar
     5    14    15   ar
     6    15     7    1
     7     7     8   am
     8     8     9    2
     9     8    10   am
    10     1    10    1
    11     1     2    1
    12     2     3    1
    13     3    22    1
    14    22    23    1
    15    23    24    1
    16    24    25    1
    17     3     4    1
    18     4     5    1
    19     5     6    1
    20     6    26    1
    21    26    27    1
    22    27    28    1
    23    28    29    1
    24    29    30    1
    25    30    31    1
    26    31    33    1
    27    33    34    1
    28    34    35   ar
    29    35    36   ar
    30    36    37   ar
    31    37    38    1
    32    37    39   ar
    33    39    40   ar
    34    31    32    1
    35    15    16   ar
    36    16    17   ar
    37    17    18    1
    38    17    13   ar
    39     6     1    1
    40    32    27    1
    41    25    23    1
    42    40    34   ar
    43     7    11    1
    44    10    12    1
@<TRIPOS>MOLECULE
*****
 40 44 0 0 0
SMALL
GASTEIGER

@<TRIPOS>ATOM
      1 C           6.7328   -2.4534   25.2506 C.3     1  UNL1        0.0903
      2 C           6.6519   -3.6411   26.1632 C.3     1  UNL1        0.0919
      3 N           7.0837   -4.9923   25.6756 N.3     1  UNL1       -0.2713
      4 C           7.5963   -5.1558   24.2754 C.3     1  UNL1        0.0722
      5 C           7.6771   -3.9681   23.3628 C.3     1  UNL1        0.0204
      6 C           7.2454   -2.6169   23.8504 C.3     1  UNL1        0.0368
      7 N           4.4292    0.4999   26.5629 N.am    1  UNL1       -0.2485
      8 C           4.8610   -0.8513   26.0754 C.2     1  UNL1        0.3059
      9 O           3.8529   -1.9519   25.9250 O.2     1  UNL1       -0.2524
     10 N           6.3010   -1.1021   25.7382 N.am    1  UNL1       -0.2889
     11 H           5.0909    1.2221   26.6616 H       1  UNL1        0.1583
     12 H           6.9627   -0.3798   25.8369 H       1  UNL1        0.1510
     13 C           0.8573    0.7563   28.0600 C.ar    1  UNL1        0.0803
     14 S           2.2786    0.2828   28.1354 S.2     1  UNL1       -0.0488
     15 C           2.9893    0.7506   26.9001 C.ar    1  UNL1        0.1664
     16 N           2.0072    1.5133   26.0612 N.ar    1  UNL1       -0.2282
     17 C           0.6895    1.5168   26.7780 C.ar    1  UNL1        0.0701
     18 C          -0.5740    2.1667   26.2972 C.3     1  UNL1        0.0528
     19 C          -1.3160   -0.4591   28.8013 C.3     1  UNL1        0.0779
     20 C          -0.2090    0.5121   29.0863 C.2     1  UNL1        0.1807
     21 O          -0.1683    1.2392   30.3976 O.2     1  UNL1       -0.2908
     22 C           7.0029   -6.1800   26.5882 C.3     1  UNL1        0.0721
     23 C           7.2778   -6.0196   28.0540 C.3     1  UNL1        0.0160
     24 C           8.1984   -6.1764   29.2278 C.3     1  UNL1        0.0014
     25 C           6.8332   -5.5851   29.4191 C.3     1  UNL1        0.0014
     26 C           7.3262   -1.4291   22.9378 C.3     1  UNL1        0.0738
     27 N           7.1140   -1.6008   21.4629 N.3     1  UNL1       -0.2726
     28 C           8.2840   -1.5477   20.5257 C.3     1  UNL1        0.0721
     29 C           8.0718   -1.7194   19.0507 C.3     1  UNL1        0.0174
     30 C           6.6896   -1.9441   18.5130 C.3     1  UNL1        0.0031
     31 C           5.5197   -1.9972   19.4502 C.3     1  UNL1        0.0204
     32 C           5.7319   -1.8255   20.9252 C.3     1  UNL1        0.0724
     33 C           4.1375   -2.2219   18.9125 C.3     1  UNL1        0.0277
     34 C           3.0874   -1.1636   19.0773 C.ar    1  UNL1       -0.0220
     35 C           3.0876    0.0393   18.1811 C.ar    1  UNL1       -0.0020
     36 C           2.0375    1.0976   18.3460 C.ar    1  UNL1        0.0293
     37 C           0.9871    0.9530   19.4071 C.ar    1  UNL1        0.1401
     38 F          -0.0630    2.0114   19.5720 F       1  UNL1       -0.2042
     39 C           0.9869   -0.2498   20.3032 C.ar    1  UNL1        0.0293
     40 C           2.0370   -1.3081   20.1384 C.ar    1  UNL1       -0.0020
@<TRIPOS>BOND
     1    19    20    1
     2    20    21    2
     3    20    13    1
     4    13    14   ar
     5    14    15   ar
     6    15     7    1
     7     7     8   am
     8     8     9    2
     9     8    10   am
    10     1    10    1
    11     1     2    1
    12     2     3    1
    13     3    22    1
    14    22    23    1
    15    23    24    1
    16    24    25    1
    17     3     4    1
    18     4     5    1
    19     5     6    1
    20     6    26    1
    21    26    27    1
    22    27    28    1
    23    28    29    1
    24    29    30    1
    25    30    31    1
    26    31    33    1
    27    33    34    1
    28    34    35   ar
    29    35    36   ar
    30    36    37   ar
    31    37    38    1
    32    37    39   ar
    33    39    40   ar
    34    31    32    1
    35    15    16   ar
    36    16    17   ar
    37    17    18    1
    38    17    13   ar
    39     6     1    1
    40    32    27    1
    41    25    23    1
    42    40    34   ar
    43     7    11    1
    44    10    12    1
