@<TRIPOS>MOLECULE
*****
 56 61 0 0 0
SMALL
GASTEIGER

@<TRIPOS>ATOM
      1 C           4.7649   -1.8434   27.5250 C.3     1  UNL1        0.1269
      2 O           3.3904   -1.9838   26.9412 O.3     1  UNL1       -0.3830
      3 H           2.8238   -1.2697   27.2728 H       1  UNL1        0.2104
      4 C           5.8362   -2.8305   27.1672 C.3     1  UNL1        0.0401
      5 C           6.5203   -2.7449   25.8351 C.3     1  UNL1        0.0833
      6 O           6.3522   -0.7404   24.1908 O.2     1  UNL1       -0.2751
      7 C           5.8411   -2.0609   24.6857 C.2     1  UNL1        0.2226
      8 N           4.6509   -2.6975   24.0314 N.am    1  UNL1       -0.2999
      9 H           4.3155   -3.5642   24.3563 H       1  UNL1        0.1498
     10 C           3.9718   -2.0136   22.8821 C.3     1  UNL1        0.1278
     11 C           4.2615   -2.4454   21.4751 C.ar    1  UNL1        0.0320
     12 C           5.2303   -3.5611   21.2174 C.ar    1  UNL1        0.0004
     13 C           5.5200   -3.9929   19.8104 C.ar    1  UNL1       -0.0001
     14 C           4.8409   -3.3090   18.6611 C.ar    1  UNL1        0.0031
     15 C           3.8720   -2.1933   18.9188 C.ar    1  UNL1        0.0366
     16 C           3.5823   -1.7615   20.3258 C.ar    1  UNL1        0.1362
     17 O           2.6134   -0.6457   20.5834 O.3     1  UNL1       -0.4730
     18 C           2.3237   -0.2139   21.9904 C.3     1  UNL1        0.2364
     19 C           3.0030   -0.8978   23.1398 C.3     1  UNL1        0.1762
     20 O           2.7133   -0.4660   24.5467 O.3     1  UNL1       -0.3788
     21 H           2.0707    0.2606   24.5362 H       1  UNL1        0.2106
     22 C           7.8836   -3.3432   25.6523 C.3     1  UNL1        0.0371
     23 C           8.0246   -4.7440   25.1348 C.ar    1  UNL1       -0.0025
     24 C           7.9706   -5.9035   26.0848 C.ar    1  UNL1       -0.0011
     25 C           8.1117   -7.3044   25.5672 C.ar    1  UNL1        0.0204
     26 C           8.3066   -7.5456   24.0997 C.ar    1  UNL1        0.0989
     27 N           8.3606   -6.3861   23.1496 N.ar    1  UNL1       -0.2426
     28 C           8.2196   -4.9853   23.6671 C.ar    1  UNL1        0.0946
     29 C           5.0682   -0.7158   28.4667 C.3     1  UNL1        0.1021
     30 N           4.9295   -0.9168   29.9467 N.3     1  UNL1       -0.2621
     31 C           6.0295   -1.5821   30.7196 C.3     1  UNL1        0.0901
     32 C           5.8908   -1.7831   32.1996 C.3     1  UNL1        0.0900
     33 N           4.6520   -1.3187   32.9067 N.3     1  UNL1       -0.2635
     34 C           3.5520   -0.6534   32.1337 C.3     1  UNL1        0.0980
     35 C           3.6908   -0.4524   30.6538 C.3     1  UNL1        0.1510
     36 C           2.5908    0.2128   29.8808 C.2     1  UNL1        0.2386
     37 O           2.5565    1.7076   29.7608 O.2     1  UNL1       -0.2736
     38 N           1.5251   -0.6167   29.2279 N.am    1  UNL1       -0.2961
     39 H           1.5476   -1.5978   29.3067 H       1  UNL1        0.1497
     40 C           0.4252    0.0486   28.4550 C.3     1  UNL1        0.1939
     41 C          -0.9530    0.1407   29.0400 C.3     1  UNL1        0.4154
     42 F          -2.3311    0.2329   29.6250 F       1  UNL1       -0.1682
     43 F          -1.3478   -1.1067   28.3066 F       1  UNL1       -0.1682
     44 F          -0.5582    1.3882   29.7734 F       1  UNL1       -0.1682
     45 C           4.5132   -1.5196   34.3867 C.3     1  UNL1        0.1377
     46 C           5.1107   -0.5254   35.3378 C.ar    1  UNL1        0.1390
     47 C           6.5716   -0.2233   35.4948 C.ar    1  UNL1        0.0375
     48 C           6.7160    0.8300   36.5529 C.ar    1  UNL1        0.0403
     49 C           5.3444    1.1789   37.0499 C.ar    1  UNL1        0.1449
     50 O           4.3523    0.3412   36.2990 O.2     1  UNL1       -0.4564
     51 C           5.0216    2.1882   38.1116 C.ar    1  UNL1        0.0345
     52 C           6.0700    2.5934   39.1048 C.ar    1  UNL1        0.0030
     53 C           5.7472    3.6027   40.1665 C.ar    1  UNL1        0.0001
     54 C           4.3760    4.2069   40.2347 C.ar    1  UNL1        0.0000
     55 C           3.3275    3.8017   39.2414 C.ar    1  UNL1        0.0001
     56 C           3.6503    2.7924   38.1799 C.ar    1  UNL1        0.0030
@<TRIPOS>BOND
     1     6     7    2
     2     7     8   am
     3    10     8    1
     4    10    11    1
     5    11    12   ar
     6    12    13   ar
     7    13    14   ar
     8    14    15   ar
     9    15    16   ar
    10    16    17    1
    11    17    18    1
    12    18    19    1
    13    19    20    1
    14     7     5    1
    15     5    22    1
    16    22    23    1
    17    23    24   ar
    18    24    25   ar
    19    25    26   ar
    20    26    27   ar
    21    27    28   ar
    22     5     4    1
    23     4     1    1
    24     1     2    1
    25     1    29    1
    26    29    30    1
    27    30    31    1
    28    31    32    1
    29    32    33    1
    30    33    45    1
    31    45    46    1
    32    46    47   ar
    33    47    48   ar
    34    48    49   ar
    35    49    51    1
    36    51    52   ar
    37    52    53   ar
    38    53    54   ar
    39    54    55   ar
    40    55    56   ar
    41    49    50   ar
    42    33    34    1
    43    34    35    1
    44    35    36    1
    45    36    37    2
    46    36    38   am
    47    38    40    1
    48    40    41    1
    49    41    42    1
    50    41    43    1
    51    41    44    1
    52    19    10    1
    53    28    23   ar
    54    35    30    1
    55    16    11   ar
    56    50    46   ar
    57    56    51   ar
    58     8     9    1
    59    20    21    1
    60     2     3    1
    61    38    39    1
@<TRIPOS>MOLECULE
*****
 56 61 0 0 0
SMALL
GASTEIGER

@<TRIPOS>ATOM
      1 C           4.8362   -0.1285   23.5445 C.3     1  UNL1        0.1269
      2 O           3.6151   -0.9855   23.3886 O.3     1  UNL1       -0.3830
      3 H           3.8749   -1.9200   23.3795 H       1  UNL1        0.2104
      4 C           4.7039    1.3650   23.5876 C.3     1  UNL1        0.0401
      5 C           3.3638    1.9924   23.8332 C.3     1  UNL1        0.0833
      6 O           2.8675    3.1692   26.0958 O.2     1  UNL1       -0.2751
      7 C           2.7633    1.9649   25.2076 C.2     1  UNL1        0.2226
      8 N           2.0586    0.7332   25.6936 N.am    1  UNL1       -0.2999
      9 H           1.9903   -0.0572   25.1106 H       1  UNL1        0.1498
     10 C           1.4582    0.7057   27.0679 C.3     1  UNL1        0.1278
     11 C           2.2827    0.2567   28.2378 C.ar    1  UNL1        0.0320
     12 C           3.7076   -0.1647   28.0334 C.ar    1  UNL1        0.0004
     13 C           4.5321   -0.6137   29.2033 C.ar    1  UNL1       -0.0001
     14 C           3.9317   -0.6412   30.5775 C.ar    1  UNL1        0.0031
     15 C           2.5067   -0.2198   30.7819 C.ar    1  UNL1        0.0366
     16 C           1.6822    0.2292   29.6120 C.ar    1  UNL1        0.1362
     17 O           0.2572    0.6506   29.8165 O.3     1  UNL1       -0.4730
     18 C          -0.5673    1.0996   28.6466 C.3     1  UNL1        0.2364
     19 C           0.0332    1.1271   27.2723 C.3     1  UNL1        0.1762
     20 O          -0.7913    1.5760   26.1024 O.3     1  UNL1       -0.3788
     21 H          -1.6820    1.8115   26.4059 H       1  UNL1        0.2106
     22 C           2.6241    2.6474   22.7046 C.3     1  UNL1        0.0371
     23 C           2.0314    1.8099   21.6103 C.ar    1  UNL1       -0.0025
     24 C           2.7800    1.6162   20.3250 C.ar    1  UNL1       -0.0011
     25 C           2.1872    0.7787   19.2307 C.ar    1  UNL1        0.0204
     26 C           0.8459    0.1351   19.4219 C.ar    1  UNL1        0.0989
     27 N           0.0973    0.3288   20.7072 N.ar    1  UNL1       -0.2426
     28 C           0.6900    1.1662   21.8014 C.ar    1  UNL1        0.0946
     29 C           6.1898   -0.7651   23.6574 C.3     1  UNL1        0.1021
     30 N           6.4190   -1.8698   24.6459 N.3     1  UNL1       -0.2621
     31 C           6.7258   -1.5435   26.0775 C.3     1  UNL1        0.0901
     32 C           6.9550   -2.6481   27.0660 C.3     1  UNL1        0.0900
     33 N           6.8774   -4.0792   26.6229 N.3     1  UNL1       -0.2635
     34 C           6.5706   -4.4054   25.1914 C.3     1  UNL1        0.0980
     35 C           6.3414   -3.3007   24.2028 C.3     1  UNL1        0.1510
     36 C           6.0346   -3.6270   22.7713 C.2     1  UNL1        0.2386
     37 O           7.1508   -3.9205   21.8131 O.2     1  UNL1       -0.2736
     38 N           4.6117   -3.6597   22.2978 N.am    1  UNL1       -0.2961
     39 H           3.8791   -3.4671   22.9267 H       1  UNL1        0.1497
     40 C           4.3049   -3.9860   20.8663 C.3     1  UNL1        0.1939
     41 C           4.2893   -2.8964   19.8354 C.3     1  UNL1        0.4154
     42 F           4.2738   -1.8069   18.8045 F       1  UNL1       -0.1682
     43 F           3.1646   -2.2228   20.5643 F       1  UNL1       -0.1682
     44 F           5.4140   -3.5700   19.1065 F       1  UNL1       -0.1682
     45 C           7.1066   -5.1838   27.6114 C.3     1  UNL1        0.1377
     46 C           6.9621   -4.9176   29.0806 C.ar    1  UNL1        0.1390
     47 C           7.2422   -5.8930   30.1851 C.ar    1  UNL1        0.0375
     48 C           6.9654   -5.2075   31.4903 C.ar    1  UNL1        0.0403
     49 C           6.5141   -3.8083   31.1923 C.ar    1  UNL1        0.1449
     50 O           6.5120   -3.6292   29.7030 O.2     1  UNL1       -0.4564
     51 C           6.1319   -2.7705   32.2057 C.ar    1  UNL1        0.0345
     52 C           4.8630   -2.9209   32.9913 C.ar    1  UNL1        0.0030
     53 C           4.4809   -1.8831   34.0047 C.ar    1  UNL1        0.0001
     54 C           5.3676   -0.6950   34.2324 C.ar    1  UNL1        0.0000
     55 C           6.6366   -0.5445   33.4467 C.ar    1  UNL1        0.0001
     56 C           7.0186   -1.5823   32.4334 C.ar    1  UNL1        0.0030
@<TRIPOS>BOND
     1     6     7    2
     2     7     8   am
     3    10     8    1
     4    10    11    1
     5    11    12   ar
     6    12    13   ar
     7    13    14   ar
     8    14    15   ar
     9    15    16   ar
    10    16    17    1
    11    17    18    1
    12    18    19    1
    13    19    20    1
    14     7     5    1
    15     5    22    1
    16    22    23    1
    17    23    24   ar
    18    24    25   ar
    19    25    26   ar
    20    26    27   ar
    21    27    28   ar
    22     5     4    1
    23     4     1    1
    24     1     2    1
    25     1    29    1
    26    29    30    1
    27    30    31    1
    28    31    32    1
    29    32    33    1
    30    33    45    1
    31    45    46    1
    32    46    47   ar
    33    47    48   ar
    34    48    49   ar
    35    49    51    1
    36    51    52   ar
    37    52    53   ar
    38    53    54   ar
    39    54    55   ar
    40    55    56   ar
    41    49    50   ar
    42    33    34    1
    43    34    35    1
    44    35    36    1
    45    36    37    2
    46    36    38   am
    47    38    40    1
    48    40    41    1
    49    41    42    1
    50    41    43    1
    51    41    44    1
    52    19    10    1
    53    28    23   ar
    54    35    30    1
    55    16    11   ar
    56    50    46   ar
    57    56    51   ar
    58     8     9    1
    59    20    21    1
    60     2     3    1
    61    38    39    1
@<TRIPOS>MOLECULE
*****
 56 61 0 0 0
SMALL
GASTEIGER

@<TRIPOS>ATOM
      1 C           4.5426   -1.5131   27.6439 C.3     1  UNL1        0.1269
      2 O           3.1992   -2.0378   27.2317 O.3     1  UNL1       -0.3830
      3 H           2.5546   -1.3129   27.2333 H       1  UNL1        0.2104
      4 C           5.7186   -2.4410   27.7216 C.3     1  UNL1        0.0401
      5 C           6.5653   -2.6820   26.5071 C.3     1  UNL1        0.0833
      6 O           6.8160   -1.1292   24.4393 O.2     1  UNL1       -0.2751
      7 C           6.0901   -2.2268   25.1591 C.2     1  UNL1        0.2226
      8 N           4.8889   -2.8692   24.5310 N.am    1  UNL1       -0.2999
      9 H           4.4124   -3.5896   25.0035 H       1  UNL1        0.1498
     10 C           4.4137   -2.4140   23.1831 C.3     1  UNL1        0.1278
     11 C           3.4754   -1.2489   23.0728 C.ar    1  UNL1        0.0320
     12 C           3.0123   -0.5390   24.3103 C.ar    1  UNL1        0.0004
     13 C           2.0740    0.6261   24.1999 C.ar    1  UNL1       -0.0001
     14 C           1.5988    1.0813   22.8520 C.ar    1  UNL1        0.0031
     15 C           2.0618    0.3714   21.6145 C.ar    1  UNL1        0.0366
     16 C           3.0001   -0.7937   21.7248 C.ar    1  UNL1        0.1362
     17 O           3.4632   -1.5036   20.4872 O.3     1  UNL1       -0.4730
     18 C           4.4015   -2.6687   20.5975 C.3     1  UNL1        0.2364
     19 C           4.8767   -3.1238   21.9456 C.3     1  UNL1        0.1762
     20 O           5.8150   -4.2889   22.0559 O.3     1  UNL1       -0.3788
     21 H           6.0130   -4.6297   21.1696 H       1  UNL1        0.2106
     22 C           7.8872   -3.3783   26.6405 C.3     1  UNL1        0.0371
     23 C           7.9361   -4.8661   26.8244 C.ar    1  UNL1       -0.0025
     24 C           7.6180   -5.7749   25.6742 C.ar    1  UNL1       -0.0011
     25 C           7.6668   -7.2628   25.8582 C.ar    1  UNL1        0.0204
     26 C           8.0338   -7.8419   27.1923 C.ar    1  UNL1        0.0989
     27 N           8.3518   -6.9331   28.3425 N.ar    1  UNL1       -0.2426
     28 C           8.3030   -5.4453   28.1586 C.ar    1  UNL1        0.0946
     29 C           4.7101   -0.0605   27.9785 C.3     1  UNL1        0.1021
     30 N           5.1409    0.3470   29.3563 N.3     1  UNL1       -0.2621
     31 C           6.5975    0.5344   29.6619 C.3     1  UNL1        0.0901
     32 C           7.0283    0.9419   31.0397 C.3     1  UNL1        0.0900
     33 N           6.0025    1.1618   32.1119 N.3     1  UNL1       -0.2635
     34 C           4.5461    0.9744   31.8063 C.3     1  UNL1        0.0980
     35 C           4.1153    0.5669   30.4285 C.3     1  UNL1        0.1510
     36 C           2.6588    0.3794   30.1228 C.2     1  UNL1        0.2386
     37 O           1.9800   -0.9125   30.4693 O.2     1  UNL1       -0.2736
     38 N           1.8810    1.4839   29.4706 N.am    1  UNL1       -0.2961
     39 H           2.3265    2.3319   29.2432 H       1  UNL1        0.1497
     40 C           0.4246    1.2965   29.1650 C.3     1  UNL1        0.1939
     41 C          -0.0283    1.1289   27.7448 C.3     1  UNL1        0.4154
     42 F          -0.4811    0.9612   26.3247 F       1  UNL1       -0.1682
     43 F           1.2910    1.6546   27.2620 F       1  UNL1       -0.1682
     44 F          -1.3475    0.6031   28.2275 F       1  UNL1       -0.1682
     45 C           6.4334    1.5693   33.4898 C.3     1  UNL1        0.1377
     46 C           5.6322    1.1410   34.6834 C.ar    1  UNL1        0.1390
     47 C           5.7767   -0.1559   35.4232 C.ar    1  UNL1        0.0375
     48 C           4.7797   -0.1639   36.5438 C.ar    1  UNL1        0.0403
     49 C           4.0189    1.1280   36.4966 C.ar    1  UNL1        0.1449
     50 O           4.5458    1.9345   35.3469 O.2     1  UNL1       -0.4564
     51 C           2.9236    1.5409   37.4346 C.ar    1  UNL1        0.0345
     52 C           2.4311    0.5845   38.4800 C.ar    1  UNL1        0.0030
     53 C           1.3358    0.9975   39.4179 C.ar    1  UNL1        0.0001
     54 C           0.7329    2.3667   39.3105 C.ar    1  UNL1        0.0000
     55 C           1.2254    3.3232   38.2650 C.ar    1  UNL1        0.0001
     56 C           2.3206    2.9102   37.3272 C.ar    1  UNL1        0.0030
@<TRIPOS>BOND
     1     6     7    2
     2     7     8   am
     3    10     8    1
     4    10    11    1
     5    11    12   ar
     6    12    13   ar
     7    13    14   ar
     8    14    15   ar
     9    15    16   ar
    10    16    17    1
    11    17    18    1
    12    18    19    1
    13    19    20    1
    14     7     5    1
    15     5    22    1
    16    22    23    1
    17    23    24   ar
    18    24    25   ar
    19    25    26   ar
    20    26    27   ar
    21    27    28   ar
    22     5     4    1
    23     4     1    1
    24     1     2    1
    25     1    29    1
    26    29    30    1
    27    30    31    1
    28    31    32    1
    29    32    33    1
    30    33    45    1
    31    45    46    1
    32    46    47   ar
    33    47    48   ar
    34    48    49   ar
    35    49    51    1
    36    51    52   ar
    37    52    53   ar
    38    53    54   ar
    39    54    55   ar
    40    55    56   ar
    41    49    50   ar
    42    33    34    1
    43    34    35    1
    44    35    36    1
    45    36    37    2
    46    36    38   am
    47    38    40    1
    48    40    41    1
    49    41    42    1
    50    41    43    1
    51    41    44    1
    52    19    10    1
    53    28    23   ar
    54    35    30    1
    55    16    11   ar
    56    50    46   ar
    57    56    51   ar
    58     8     9    1
    59    20    21    1
    60     2     3    1
    61    38    39    1
@<TRIPOS>MOLECULE
*****
 56 61 0 0 0
SMALL
GASTEIGER

@<TRIPOS>ATOM
      1 C           3.3618    1.8341   26.8069 C.3     1  UNL1        0.1269
      2 O           2.2326    0.8940   26.5050 O.3     1  UNL1       -0.3830
      3 H           1.8562    0.5635   27.3356 H       1  UNL1        0.2104
      4 C           4.1153    2.4858   25.6855 C.3     1  UNL1        0.0401
      5 C           3.8495    2.0781   24.2667 C.3     1  UNL1        0.0833
      6 O           5.6617    0.8827   22.8395 O.2     1  UNL1       -0.2751
      7 C           4.4517    0.8162   23.7235 C.2     1  UNL1        0.2226
      8 N           3.8439   -0.5121   24.0644 N.am    1  UNL1       -0.2999
      9 H           3.0498   -0.5557   24.6446 H       1  UNL1        0.1498
     10 C           4.4461   -1.7739   23.5212 C.3     1  UNL1        0.1278
     11 C           4.1335   -2.2120   22.1211 C.ar    1  UNL1        0.0320
     12 C           3.2188   -1.3882   21.2641 C.ar    1  UNL1        0.0004
     13 C           2.9062   -1.8262   19.8639 C.ar    1  UNL1       -0.0001
     14 C           3.5084   -3.0881   19.3208 C.ar    1  UNL1        0.0031
     15 C           4.4232   -3.9119   20.1778 C.ar    1  UNL1        0.0366
     16 C           4.7357   -3.4738   21.5780 C.ar    1  UNL1        0.1362
     17 O           5.6505   -4.2977   22.4350 O.3     1  UNL1       -0.4730
     18 C           5.9631   -3.8597   23.8351 C.3     1  UNL1        0.2364
     19 C           5.3609   -2.5977   24.3782 C.3     1  UNL1        0.1762
     20 O           5.6735   -2.1597   25.7784 O.3     1  UNL1       -0.3788
     21 H           6.2748   -2.7994   26.1907 H       1  UNL1        0.2106
     22 C           2.9814    2.9323   23.3910 C.3     1  UNL1        0.0371
     23 C           2.1960    2.3081   22.2759 C.ar    1  UNL1       -0.0025
     24 C           2.7016    2.3885   20.8660 C.ar    1  UNL1       -0.0011
     25 C           1.9161    1.7641   19.7509 C.ar    1  UNL1        0.0204
     26 C           0.6252    1.0595   20.0458 C.ar    1  UNL1        0.0989
     27 N           0.1197    0.9791   21.4557 N.ar    1  UNL1       -0.2426
     28 C           0.9051    1.6034   22.5708 C.ar    1  UNL1        0.0946
     29 C           3.7375    2.1224   28.2302 C.3     1  UNL1        0.1021
     30 N           4.5765    1.1439   28.9973 N.3     1  UNL1       -0.2621
     31 C           6.0601    1.0963   28.7804 C.3     1  UNL1        0.0901
     32 C           6.8991    0.1178   29.5476 C.3     1  UNL1        0.0900
     33 N           6.2547   -0.8131   30.5316 N.3     1  UNL1       -0.2635
     34 C           4.7712   -0.7654   30.7485 C.3     1  UNL1        0.0980
     35 C           3.9322    0.2131   29.9813 C.3     1  UNL1        0.1510
     36 C           2.4487    0.2608   30.1982 C.2     1  UNL1        0.2386
     37 O           1.8918    0.8987   31.4363 O.2     1  UNL1       -0.2736
     38 N           1.5221   -0.3295   29.1769 N.am    1  UNL1       -0.2961
     39 H           1.8875   -0.7482   28.3643 H       1  UNL1        0.1497
     40 C           0.0386   -0.2818   29.3937 C.3     1  UNL1        0.1939
     41 C          -0.8186    0.5908   28.5255 C.3     1  UNL1        0.4154
     42 F          -1.6758    1.4634   27.6573 F       1  UNL1       -0.1682
     43 F          -1.6736   -0.5924   28.1804 F       1  UNL1       -0.1682
     44 F           0.0363    1.7740   28.8706 F       1  UNL1       -0.1682
     45 C           7.0937   -1.7916   31.2988 C.3     1  UNL1        0.1377
     46 C           7.1430   -3.2301   30.8765 C.ar    1  UNL1        0.1390
     47 C           6.9237   -4.4181   31.7657 C.ar    1  UNL1        0.0375
     48 C           7.0654   -5.6554   30.9297 C.ar    1  UNL1        0.0403
     49 C           7.3723   -5.2321   29.5237 C.ar    1  UNL1        0.1449
     50 O           7.4202   -3.7332   29.4908 O.2     1  UNL1       -0.4564
     51 C           7.5925   -6.1471   28.3557 C.ar    1  UNL1        0.0345
     52 C           8.3876   -7.4071   28.5295 C.ar    1  UNL1        0.0030
     53 C           8.6078   -8.3221   27.3614 C.ar    1  UNL1        0.0001
     54 C           8.0329   -7.9771   26.0197 C.ar    1  UNL1        0.0000
     55 C           7.2378   -6.7170   25.8458 C.ar    1  UNL1        0.0001
     56 C           7.0177   -5.8021   27.0138 C.ar    1  UNL1        0.0030
@<TRIPOS>BOND
     1     6     7    2
     2     7     8   am
     3    10     8    1
     4    10    11    1
     5    11    12   ar
     6    12    13   ar
     7    13    14   ar
     8    14    15   ar
     9    15    16   ar
    10    16    17    1
    11    17    18    1
    12    18    19    1
    13    19    20    1
    14     7     5    1
    15     5    22    1
    16    22    23    1
    17    23    24   ar
    18    24    25   ar
    19    25    26   ar
    20    26    27   ar
    21    27    28   ar
    22     5     4    1
    23     4     1    1
    24     1     2    1
    25     1    29    1
    26    29    30    1
    27    30    31    1
    28    31    32    1
    29    32    33    1
    30    33    45    1
    31    45    46    1
    32    46    47   ar
    33    47    48   ar
    34    48    49   ar
    35    49    51    1
    36    51    52   ar
    37    52    53   ar
    38    53    54   ar
    39    54    55   ar
    40    55    56   ar
    41    49    50   ar
    42    33    34    1
    43    34    35    1
    44    35    36    1
    45    36    37    2
    46    36    38   am
    47    38    40    1
    48    40    41    1
    49    41    42    1
    50    41    43    1
    51    41    44    1
    52    19    10    1
    53    28    23   ar
    54    35    30    1
    55    16    11   ar
    56    50    46   ar
    57    56    51   ar
    58     8     9    1
    59    20    21    1
    60     2     3    1
    61    38    39    1
@<TRIPOS>MOLECULE
*****
 56 61 0 0 0
SMALL
GASTEIGER

@<TRIPOS>ATOM
      1 C           3.2612   -0.7179   27.9960 C.3     1  UNL1        0.1269
      2 O           3.1866   -2.0075   27.2337 O.3     1  UNL1       -0.3830
      3 H           2.7730   -2.6874   27.7883 H       1  UNL1        0.2104
      4 C           3.8632    0.4979   27.3560 C.3     1  UNL1        0.0401
      5 C           3.7095    0.7230   25.8810 C.3     1  UNL1        0.0833
      6 O           5.7382    0.2951   24.3153 O.2     1  UNL1       -0.2751
      7 C           4.4367   -0.1573   24.9082 C.2     1  UNL1        0.2226
      8 N           3.8625   -1.4899   24.5283 N.am    1  UNL1       -0.2999
      9 H           3.0083   -1.7868   24.9174 H       1  UNL1        0.1498
     10 C           4.5897   -2.3701   23.5555 C.3     1  UNL1        0.1278
     11 C           4.2273   -2.3394   22.1003 C.ar    1  UNL1        0.0320
     12 C           3.1377   -1.4284   21.6178 C.ar    1  UNL1        0.0004
     13 C           2.7752   -1.3977   20.1626 C.ar    1  UNL1       -0.0001
     14 C           3.5024   -2.2779   19.1898 C.ar    1  UNL1        0.0031
     15 C           4.5921   -3.1888   19.6723 C.ar    1  UNL1        0.0366
     16 C           4.9545   -3.2196   21.1275 C.ar    1  UNL1        0.1362
     17 O           6.0442   -4.1306   21.6099 O.3     1  UNL1       -0.4730
     18 C           6.4066   -4.1614   23.0652 C.3     1  UNL1        0.2364
     19 C           5.6793   -3.2811   24.0380 C.3     1  UNL1        0.1762
     20 O           6.0418   -3.3118   25.4932 O.3     1  UNL1       -0.3788
     21 H           6.7594   -3.9490   25.6343 H       1  UNL1        0.2106
     22 C           2.8285    1.8282   25.3788 C.3     1  UNL1        0.0371
     23 C           2.3566    1.8230   23.9550 C.ar    1  UNL1       -0.0025
     24 C           3.1988    2.4495   22.8834 C.ar    1  UNL1       -0.0011
     25 C           2.7269    2.4442   21.4596 C.ar    1  UNL1        0.0204
     26 C           1.4128    1.8124   21.1073 C.ar    1  UNL1        0.0989
     27 N           0.5707    1.1859   22.1788 N.ar    1  UNL1       -0.2426
     28 C           1.0425    1.1912   23.6027 C.ar    1  UNL1        0.0946
     29 C           2.7338   -0.6439   29.3983 C.3     1  UNL1        0.1021
     30 N           3.4592    0.1673   30.4306 N.3     1  UNL1       -0.2621
     31 C           4.7829   -0.3011   30.9583 C.3     1  UNL1        0.0901
     32 C           5.5084    0.5101   31.9906 C.3     1  UNL1        0.0900
     33 N           4.9101    1.7898   32.4952 N.3     1  UNL1       -0.2635
     34 C           3.5864    2.2582   31.9676 C.3     1  UNL1        0.0980
     35 C           2.8610    1.4469   30.9353 C.3     1  UNL1        0.1510
     36 C           1.5373    1.9153   30.4076 C.2     1  UNL1        0.2386
     37 O           0.2945    1.7274   31.2263 O.2     1  UNL1       -0.2736
     38 N           1.4563    2.5716   29.0612 N.am    1  UNL1       -0.2961
     39 H           2.2719    2.6949   28.5238 H       1  UNL1        0.1497
     40 C           0.1326    3.0399   28.5335 C.3     1  UNL1        0.1939
     41 C          -0.4735    2.3761   27.3326 C.3     1  UNL1        0.4154
     42 F          -1.0795    1.7124   26.1317 F       1  UNL1       -0.1682
     43 F           0.4186    1.1880   27.5390 F       1  UNL1       -0.1682
     44 F          -1.3655    3.5642   27.1261 F       1  UNL1       -0.1682
     45 C           5.6355    2.6010   33.5275 C.3     1  UNL1        0.1377
     46 C           4.9825    2.8942   34.8458 C.ar    1  UNL1        0.1390
     47 C           5.2536    4.0835   35.7188 C.ar    1  UNL1        0.0375
     48 C           4.3825    3.9740   36.9350 C.ar    1  UNL1        0.0403
     49 C           3.5730    2.7169   36.8136 C.ar    1  UNL1        0.1449
     50 O           3.9439    2.0497   35.5224 O.2     1  UNL1       -0.4564
     51 C           2.5690    2.2153   37.8088 C.ar    1  UNL1        0.0345
     52 C           2.7259    0.8497   38.4091 C.ar    1  UNL1        0.0030
     53 C           1.7218    0.3481   39.4043 C.ar    1  UNL1        0.0001
     54 C           0.5610    1.2121   39.7990 C.ar    1  UNL1        0.0000
     55 C           0.4041    2.5778   39.1986 C.ar    1  UNL1        0.0001
     56 C           1.4081    3.0793   38.2035 C.ar    1  UNL1        0.0030
@<TRIPOS>BOND
     1     6     7    2
     2     7     8   am
     3    10     8    1
     4    10    11    1
     5    11    12   ar
     6    12    13   ar
     7    13    14   ar
     8    14    15   ar
     9    15    16   ar
    10    16    17    1
    11    17    18    1
    12    18    19    1
    13    19    20    1
    14     7     5    1
    15     5    22    1
    16    22    23    1
    17    23    24   ar
    18    24    25   ar
    19    25    26   ar
    20    26    27   ar
    21    27    28   ar
    22     5     4    1
    23     4     1    1
    24     1     2    1
    25     1    29    1
    26    29    30    1
    27    30    31    1
    28    31    32    1
    29    32    33    1
    30    33    45    1
    31    45    46    1
    32    46    47   ar
    33    47    48   ar
    34    48    49   ar
    35    49    51    1
    36    51    52   ar
    37    52    53   ar
    38    53    54   ar
    39    54    55   ar
    40    55    56   ar
    41    49    50   ar
    42    33    34    1
    43    34    35    1
    44    35    36    1
    45    36    37    2
    46    36    38   am
    47    38    40    1
    48    40    41    1
    49    41    42    1
    50    41    43    1
    51    41    44    1
    52    19    10    1
    53    28    23   ar
    54    35    30    1
    55    16    11   ar
    56    50    46   ar
    57    56    51   ar
    58     8     9    1
    59    20    21    1
    60     2     3    1
    61    38    39    1
@<TRIPOS>MOLECULE
*****
 56 61 0 0 0
SMALL
GASTEIGER

@<TRIPOS>ATOM
      1 C           5.5671   -1.3828   25.9556 C.3     1  UNL1        0.1269
      2 O           6.5290   -0.2343   26.0294 O.3     1  UNL1       -0.3830
      3 H           6.2835    0.3461   26.7669 H       1  UNL1        0.2104
      4 C           5.7293   -2.4299   24.8938 C.3     1  UNL1        0.0401
      5 C           4.9427   -2.3347   23.6201 C.3     1  UNL1        0.0833
      6 O           5.1321    0.1095   22.7596 O.2     1  UNL1       -0.2751
      7 C           4.2924   -1.0388   23.2353 C.2     1  UNL1        0.2226
      8 N           2.8025   -0.8914   23.3262 N.am    1  UNL1       -0.2999
      9 H           2.2514   -1.6450   23.6385 H       1  UNL1        0.1498
     10 C           2.1522    0.4044   22.9414 C.3     1  UNL1        0.1278
     11 C           1.7688    0.6561   21.5133 C.ar    1  UNL1        0.0320
     12 C           2.0357   -0.3880   20.4699 C.ar    1  UNL1        0.0004
     13 C           1.6523   -0.1363   19.0417 C.ar    1  UNL1       -0.0001
     14 C           1.0020    1.1595   18.6569 C.ar    1  UNL1        0.0031
     15 C           0.7351    2.2035   19.7003 C.ar    1  UNL1        0.0366
     16 C           1.1185    1.9518   21.1285 C.ar    1  UNL1        0.1362
     17 O           0.8515    2.9960   22.1719 O.3     1  UNL1       -0.4730
     18 C           1.2349    2.7443   23.6000 C.3     1  UNL1        0.2364
     19 C           1.8853    1.4484   23.9848 C.3     1  UNL1        0.1762
     20 O           2.2686    1.1967   25.4130 O.3     1  UNL1       -0.3788
     21 H           2.0284    1.9661   25.9527 H       1  UNL1        0.2106
     22 C           4.8063   -3.5352   22.7313 C.3     1  UNL1        0.0371
     23 C           5.0085   -3.3995   21.2512 C.ar    1  UNL1       -0.0025
     24 C           3.9224   -3.8167   20.3045 C.ar    1  UNL1       -0.0011
     25 C           4.1247   -3.6809   18.8244 C.ar    1  UNL1        0.0204
     26 C           5.4129   -3.1279   18.2910 C.ar    1  UNL1        0.0989
     27 N           6.4990   -2.7107   19.2378 N.ar    1  UNL1       -0.2426
     28 C           6.2968   -2.8464   20.7178 C.ar    1  UNL1        0.0946
     29 C           4.4429   -1.4844   26.9435 C.3     1  UNL1        0.1021
     30 N           4.7356   -1.4909   28.4146 N.3     1  UNL1       -0.2621
     31 C           5.9334   -2.2268   28.9378 C.3     1  UNL1        0.0901
     32 C           6.2262   -2.2333   30.4089 C.3     1  UNL1        0.0900
     33 N           5.3210   -1.5039   31.3569 N.3     1  UNL1       -0.2635
     34 C           4.1232   -0.7680   30.8338 C.3     1  UNL1        0.0980
     35 C           3.8305   -0.7615   29.3626 C.3     1  UNL1        0.1510
     36 C           2.6327   -0.0256   28.8395 C.2     1  UNL1        0.2386
     37 O           2.7675    1.3960   28.3801 O.2     1  UNL1       -0.2736
     38 N           1.3001   -0.7113   28.7757 N.am    1  UNL1       -0.2961
     39 H           1.2116   -1.6443   29.0772 H       1  UNL1        0.1497
     40 C           0.1023    0.0246   28.2525 C.3     1  UNL1        0.1939
     41 C          -1.1494    0.1013   29.0757 C.3     1  UNL1        0.4154
     42 F          -2.4010    0.1780   29.8988 F       1  UNL1       -0.1682
     43 F          -0.6030    1.2988   29.7949 F       1  UNL1       -0.1682
     44 F          -1.6957   -1.0962   28.3564 F       1  UNL1       -0.1682
     45 C           5.6137   -1.5103   32.8281 C.3     1  UNL1        0.1377
     46 C           5.3199   -0.2948   33.6566 C.ar    1  UNL1        0.1390
     47 C           5.9805    1.0451   33.5213 C.ar    1  UNL1        0.0375
     48 C           5.3828    1.9622   34.5469 C.ar    1  UNL1        0.0403
     49 C           4.3529    1.1890   35.3160 C.ar    1  UNL1        0.1449
     50 O           4.3140   -0.2059   34.7658 O.2     1  UNL1       -0.4564
     51 C           3.5099    1.7179   36.4384 C.ar    1  UNL1        0.0345
     52 C           2.7738    3.0148   36.2767 C.ar    1  UNL1        0.0030
     53 C           1.9308    3.5437   37.3991 C.ar    1  UNL1        0.0001
     54 C           1.8239    2.7756   38.6830 C.ar    1  UNL1        0.0000
     55 C           2.5599    1.4786   38.8447 C.ar    1  UNL1        0.0001
     56 C           3.4029    0.9498   37.7224 C.ar    1  UNL1        0.0030
@<TRIPOS>BOND
     1     6     7    2
     2     7     8   am
     3    10     8    1
     4    10    11    1
     5    11    12   ar
     6    12    13   ar
     7    13    14   ar
     8    14    15   ar
     9    15    16   ar
    10    16    17    1
    11    17    18    1
    12    18    19    1
    13    19    20    1
    14     7     5    1
    15     5    22    1
    16    22    23    1
    17    23    24   ar
    18    24    25   ar
    19    25    26   ar
    20    26    27   ar
    21    27    28   ar
    22     5     4    1
    23     4     1    1
    24     1     2    1
    25     1    29    1
    26    29    30    1
    27    30    31    1
    28    31    32    1
    29    32    33    1
    30    33    45    1
    31    45    46    1
    32    46    47   ar
    33    47    48   ar
    34    48    49   ar
    35    49    51    1
    36    51    52   ar
    37    52    53   ar
    38    53    54   ar
    39    54    55   ar
    40    55    56   ar
    41    49    50   ar
    42    33    34    1
    43    34    35    1
    44    35    36    1
    45    36    37    2
    46    36    38   am
    47    38    40    1
    48    40    41    1
    49    41    42    1
    50    41    43    1
    51    41    44    1
    52    19    10    1
    53    28    23   ar
    54    35    30    1
    55    16    11   ar
    56    50    46   ar
    57    56    51   ar
    58     8     9    1
    59    20    21    1
    60     2     3    1
    61    38    39    1
@<TRIPOS>MOLECULE
*****
 56 61 0 0 0
SMALL
GASTEIGER

@<TRIPOS>ATOM
      1 C           4.8753   -1.5799   27.5493 C.3     1  UNL1        0.1269
      2 O           3.5244   -2.0106   27.0598 O.3     1  UNL1       -0.3830
      3 H           2.9327   -1.2427   27.0262 H       1  UNL1        0.2104
      4 C           5.9775   -2.5872   27.6919 C.3     1  UNL1        0.0401
      5 C           6.8018   -2.9710   26.4989 C.3     1  UNL1        0.0833
      6 O           7.2156   -1.6708   24.2880 O.2     1  UNL1       -0.2751
      7 C           6.3576   -2.5755   25.1218 C.2     1  UNL1        0.2226
      8 N           5.0555   -3.0848   24.5786 N.am    1  UNL1       -0.2999
      9 H           4.4924   -3.6786   25.1258 H       1  UNL1        0.1498
     10 C           4.6113   -2.6893   23.2015 C.3     1  UNL1        0.1278
     11 C           3.6484   -1.5534   23.0213 C.ar    1  UNL1        0.0320
     12 C           3.1296   -0.8129   24.2182 C.ar    1  UNL1        0.0004
     13 C           2.1667    0.3230   24.0380 C.ar    1  UNL1       -0.0001
     14 C           1.7226    0.7185   22.6610 C.ar    1  UNL1        0.0031
     15 C           2.2413   -0.0220   21.4641 C.ar    1  UNL1        0.0366
     16 C           3.2043   -1.1579   21.6443 C.ar    1  UNL1        0.1362
     17 O           3.7230   -1.8984   20.4473 O.3     1  UNL1       -0.4730
     18 C           4.6860   -3.0343   20.6275 C.3     1  UNL1        0.2364
     19 C           5.1301   -3.4297   22.0046 C.3     1  UNL1        0.1762
     20 O           6.0930   -4.5657   22.1848 O.3     1  UNL1       -0.3788
     21 H           6.3269   -4.9320   21.3176 H       1  UNL1        0.2106
     22 C           8.0701   -3.7504   26.6829 C.3     1  UNL1        0.0371
     23 C           8.0262   -5.2479   26.7573 C.ar    1  UNL1       -0.0025
     24 C           7.7446   -6.0522   25.5229 C.ar    1  UNL1       -0.0011
     25 C           7.7006   -7.5497   25.5973 C.ar    1  UNL1        0.0204
     26 C           7.9383   -8.2429   26.9061 C.ar    1  UNL1        0.0989
     27 N           8.2200   -7.4386   28.1405 N.ar    1  UNL1       -0.2426
     28 C           8.2639   -5.9411   28.0661 C.ar    1  UNL1        0.0946
     29 C           5.1239   -0.1419   27.8962 C.3     1  UNL1        0.1021
     30 N           5.0529    0.9101   26.8293 N.3     1  UNL1       -0.2621
     31 C           6.1170    0.9815   25.7744 C.3     1  UNL1        0.0901
     32 C           6.0460    2.0334   24.7074 C.3     1  UNL1        0.0900
     33 N           4.9109    3.0140   24.6954 N.3     1  UNL1       -0.2635
     34 C           3.8469    2.9426   25.7502 C.3     1  UNL1        0.0980
     35 C           3.9179    1.8907   26.8172 C.3     1  UNL1        0.1510
     36 C           2.8539    1.8193   27.8720 C.2     1  UNL1        0.2386
     37 O           3.1672    2.2242   29.2819 O.2     1  UNL1       -0.2736
     38 N           1.4765    1.3429   27.5170 N.am    1  UNL1       -0.2961
     39 H           1.2709    1.0772   26.5916 H       1  UNL1        0.1497
     40 C           0.4125    1.2715   28.5718 C.3     1  UNL1        0.1939
     41 C          -0.5330    0.1075   28.6058 C.3     1  UNL1        0.4154
     42 F          -1.4786   -1.0564   28.6398 F       1  UNL1       -0.1682
     43 F           0.6219   -0.8244   28.8238 F       1  UNL1       -0.1682
     44 F          -1.6880    1.0394   28.3878 F       1  UNL1       -0.1682
     45 C           4.8399    4.0660   23.6285 C.3     1  UNL1        0.1377
     46 C           4.5515    3.6762   22.2090 C.ar    1  UNL1        0.1390
     47 C           3.8704    4.5305   21.1811 C.ar    1  UNL1        0.0375
     48 C           3.7915    3.7461   19.9050 C.ar    1  UNL1        0.0403
     49 C           4.4237    2.4070   20.1442 C.ar    1  UNL1        0.1449
     50 O           4.8934    2.3639   21.5681 O.2     1  UNL1       -0.4564
     51 C           4.5620    1.3046   19.1364 C.ar    1  UNL1        0.0345
     52 C           3.3942    0.9253   18.2748 C.ar    1  UNL1        0.0030
     53 C           3.5325   -0.1771   17.2670 C.ar    1  UNL1        0.0001
     54 C           4.8385   -0.9001   17.1208 C.ar    1  UNL1        0.0000
     55 C           6.0064   -0.5207   17.9824 C.ar    1  UNL1        0.0001
     56 C           5.8681    0.5816   18.9901 C.ar    1  UNL1        0.0030
@<TRIPOS>BOND
     1     6     7    2
     2     7     8   am
     3    10     8    1
     4    10    11    1
     5    11    12   ar
     6    12    13   ar
     7    13    14   ar
     8    14    15   ar
     9    15    16   ar
    10    16    17    1
    11    17    18    1
    12    18    19    1
    13    19    20    1
    14     7     5    1
    15     5    22    1
    16    22    23    1
    17    23    24   ar
    18    24    25   ar
    19    25    26   ar
    20    26    27   ar
    21    27    28   ar
    22     5     4    1
    23     4     1    1
    24     1     2    1
    25     1    29    1
    26    29    30    1
    27    30    31    1
    28    31    32    1
    29    32    33    1
    30    33    45    1
    31    45    46    1
    32    46    47   ar
    33    47    48   ar
    34    48    49   ar
    35    49    51    1
    36    51    52   ar
    37    52    53   ar
    38    53    54   ar
    39    54    55   ar
    40    55    56   ar
    41    49    50   ar
    42    33    34    1
    43    34    35    1
    44    35    36    1
    45    36    37    2
    46    36    38   am
    47    38    40    1
    48    40    41    1
    49    41    42    1
    50    41    43    1
    51    41    44    1
    52    19    10    1
    53    28    23   ar
    54    35    30    1
    55    16    11   ar
    56    50    46   ar
    57    56    51   ar
    58     8     9    1
    59    20    21    1
    60     2     3    1
    61    38    39    1
@<TRIPOS>MOLECULE
*****
 56 61 0 0 0
SMALL
GASTEIGER

@<TRIPOS>ATOM
      1 C           6.5807   -2.6034   25.8763 C.3     1  UNL1        0.1269
      2 O           5.0889   -2.5732   26.0297 O.3     1  UNL1       -0.3830
      3 H           4.8620   -2.2890   26.9289 H       1  UNL1        0.2104
      4 C           7.1921   -3.0130   24.5693 C.3     1  UNL1        0.0401
      5 C           6.4087   -2.8721   23.2979 C.3     1  UNL1        0.0833
      6 O           5.9641   -0.3536   22.8402 O.2     1  UNL1       -0.2751
      7 C           5.4485   -1.7318   23.1311 C.2     1  UNL1        0.2226
      8 N           3.9727   -1.9698   23.2551 N.am    1  UNL1       -0.2999
      9 H           3.6343   -2.8744   23.4460 H       1  UNL1        0.1498
     10 C           3.0125   -0.8296   23.0883 C.3     1  UNL1        0.1278
     11 C           2.5548   -0.4289   21.7171 C.ar    1  UNL1        0.0320
     12 C           3.0574   -1.1685   20.5128 C.ar    1  UNL1        0.0004
     13 C           2.5997   -0.7678   19.1417 C.ar    1  UNL1       -0.0001
     14 C           1.6395    0.3724   18.9749 C.ar    1  UNL1        0.0031
     15 C           1.1370    1.1119   20.1792 C.ar    1  UNL1        0.0366
     16 C           1.5946    0.7113   21.5503 C.ar    1  UNL1        0.1362
     17 O           1.0920    1.4509   22.7547 O.3     1  UNL1       -0.4730
     18 C           1.5497    1.0503   24.1258 C.3     1  UNL1        0.2364
     19 C           2.5100   -0.0900   24.2926 C.3     1  UNL1        0.1762
     20 O           2.9676   -0.4907   25.6638 O.3     1  UNL1       -0.3788
     21 H           2.5514    0.0847   26.3245 H       1  UNL1        0.2106
     22 C           6.5855   -3.8714   22.1933 C.3     1  UNL1        0.0371
     23 C           6.2832   -3.4842   20.7761 C.ar    1  UNL1       -0.0025
     24 C           5.1348   -4.1229   20.0527 C.ar    1  UNL1       -0.0011
     25 C           4.8325   -3.7356   18.6354 C.ar    1  UNL1        0.0204
     26 C           5.6786   -2.7096   17.9416 C.ar    1  UNL1        0.0989
     27 N           6.8270   -2.0709   18.6649 N.ar    1  UNL1       -0.2426
     28 C           7.1293   -2.4582   20.0821 C.ar    1  UNL1        0.0946
     29 C           7.4611   -2.2240   27.0300 C.3     1  UNL1        0.1021
     30 N           6.9269   -2.2781   28.4306 N.3     1  UNL1       -0.2621
     31 C           6.2157   -1.0905   29.0084 C.3     1  UNL1        0.0901
     32 C           5.6815   -1.1446   30.4090 C.3     1  UNL1        0.0900
     33 N           5.8585   -2.3864   31.2318 N.3     1  UNL1       -0.2635
     34 C           6.5698   -3.5738   30.6540 C.3     1  UNL1        0.0980
     35 C           7.1040   -3.5197   29.2534 C.3     1  UNL1        0.1510
     36 C           7.8152   -4.7072   28.6755 C.2     1  UNL1        0.2386
     37 O           9.3003   -4.8435   28.8366 O.2     1  UNL1       -0.2736
     38 N           7.0414   -5.7585   27.9366 N.am    1  UNL1       -0.2961
     39 H           6.0667   -5.6691   27.8308 H       1  UNL1        0.1497
     40 C           7.7526   -6.9460   27.3588 C.3     1  UNL1        0.1939
     41 C           7.7241   -7.1905   25.8790 C.3     1  UNL1        0.4154
     42 F           7.6956   -7.4349   24.3994 F       1  UNL1       -0.1682
     43 F           6.8611   -8.3981   26.0951 F       1  UNL1       -0.1682
     44 F           8.5871   -5.9828   25.6629 F       1  UNL1       -0.1682
     45 C           5.3243   -2.4405   32.6324 C.3     1  UNL1        0.1377
     46 C           5.8001   -1.4518   33.6553 C.ar    1  UNL1        0.1390
     47 C           7.1587   -0.8177   33.7035 C.ar    1  UNL1        0.0375
     48 C           7.1992    0.1023   34.8875 C.ar    1  UNL1        0.0403
     49 C           5.8655    0.0368   35.5711 C.ar    1  UNL1        0.1449
     50 O           5.0009   -0.9236   34.8096 O.2     1  UNL1       -0.4564
     51 C           5.4666    0.7982   36.8004 C.ar    1  UNL1        0.0345
     52 C           6.4466    1.7211   37.4620 C.ar    1  UNL1        0.0030
     53 C           6.0477    2.4825   38.6913 C.ar    1  UNL1        0.0001
     54 C           4.6688    2.3209   39.2590 C.ar    1  UNL1        0.0000
     55 C           3.6886    1.3979   38.5974 C.ar    1  UNL1        0.0001
     56 C           4.0876    0.6367   37.3682 C.ar    1  UNL1        0.0030
@<TRIPOS>BOND
     1     6     7    2
     2     7     8   am
     3    10     8    1
     4    10    11    1
     5    11    12   ar
     6    12    13   ar
     7    13    14   ar
     8    14    15   ar
     9    15    16   ar
    10    16    17    1
    11    17    18    1
    12    18    19    1
    13    19    20    1
    14     7     5    1
    15     5    22    1
    16    22    23    1
    17    23    24   ar
    18    24    25   ar
    19    25    26   ar
    20    26    27   ar
    21    27    28   ar
    22     5     4    1
    23     4     1    1
    24     1     2    1
    25     1    29    1
    26    29    30    1
    27    30    31    1
    28    31    32    1
    29    32    33    1
    30    33    45    1
    31    45    46    1
    32    46    47   ar
    33    47    48   ar
    34    48    49   ar
    35    49    51    1
    36    51    52   ar
    37    52    53   ar
    38    53    54   ar
    39    54    55   ar
    40    55    56   ar
    41    49    50   ar
    42    33    34    1
    43    34    35    1
    44    35    36    1
    45    36    37    2
    46    36    38   am
    47    38    40    1
    48    40    41    1
    49    41    42    1
    50    41    43    1
    51    41    44    1
    52    19    10    1
    53    28    23   ar
    54    35    30    1
    55    16    11   ar
    56    50    46   ar
    57    56    51   ar
    58     8     9    1
    59    20    21    1
    60     2     3    1
    61    38    39    1
@<TRIPOS>MOLECULE
*****
 56 61 0 0 0
SMALL
GASTEIGER

@<TRIPOS>ATOM
      1 C           7.1012   -1.6557   27.4846 C.3     1  UNL1        0.1269
      2 O           5.9359   -2.5383   27.8205 O.3     1  UNL1       -0.3830
      3 H           6.0342   -3.3901   27.3670 H       1  UNL1        0.2104
      4 C           7.1875   -0.2746   28.0637 C.3     1  UNL1        0.0401
      5 C           6.3506    0.0937   29.2528 C.3     1  UNL1        0.0833
      6 O           4.6730    2.0774   29.2799 O.2     1  UNL1       -0.2751
      7 C           4.9605    0.6222   29.0568 C.2     1  UNL1        0.2226
      8 N           3.8579   -0.3045   28.6379 N.am    1  UNL1       -0.2999
      9 H           4.0466   -1.2596   28.4915 H       1  UNL1        0.1498
     10 C           2.4678    0.2240   28.4419 C.3     1  UNL1        0.1278
     11 C           1.9670    0.5229   27.0600 C.ar    1  UNL1        0.0320
     12 C           2.8561    0.2934   25.8740 C.ar    1  UNL1        0.0004
     13 C           2.3553    0.5923   24.4920 C.ar    1  UNL1       -0.0001
     14 C           0.9652    1.1208   24.2961 C.ar    1  UNL1        0.0031
     15 C           0.0760    1.3503   25.4821 C.ar    1  UNL1        0.0366
     16 C           0.5769    1.0514   26.8640 C.ar    1  UNL1        0.1362
     17 O          -0.3124    1.2809   28.0501 O.3     1  UNL1       -0.4730
     18 C           0.1885    0.9820   29.4320 C.3     1  UNL1        0.2364
     19 C           1.5787    0.4535   29.6279 C.3     1  UNL1        0.1762
     20 O           2.0795    0.1545   31.0099 O.3     1  UNL1       -0.3788
     21 H           1.3852    0.3569   31.6562 H       1  UNL1        0.2106
     22 C           6.9037   -0.0666   30.6378 C.3     1  UNL1        0.0371
     23 C           6.0379   -0.6167   31.7322 C.ar    1  UNL1       -0.0025
     24 C           5.7767   -2.0916   31.8122 C.ar    1  UNL1       -0.0011
     25 C           4.9109   -2.6417   32.9067 C.ar    1  UNL1        0.0204
     26 C           4.3062   -1.7168   33.9211 C.ar    1  UNL1        0.0989
     27 N           4.5674   -0.2419   33.8411 N.ar    1  UNL1       -0.2426
     28 C           5.4332    0.3082   32.7467 C.ar    1  UNL1        0.0946
     29 C           8.1804   -2.1540   26.5696 C.3     1  UNL1        0.1021
     30 N           7.8389   -2.5934   25.1767 N.3     1  UNL1       -0.2621
     31 C           7.6797   -1.5751   24.0868 C.3     1  UNL1        0.0901
     32 C           7.3382   -2.0145   22.6939 C.3     1  UNL1        0.0900
     33 N           7.1559   -3.4722   22.3908 N.3     1  UNL1       -0.2635
     34 C           7.3150   -4.4905   23.4806 C.3     1  UNL1        0.0980
     35 C           7.6565   -4.0511   24.8736 C.3     1  UNL1        0.1510
     36 C           7.8157   -5.0693   25.9634 C.2     1  UNL1        0.2386
     37 O           6.6892   -5.3266   26.9198 O.2     1  UNL1       -0.2736
     38 N           9.1015   -5.8303   26.0969 N.am    1  UNL1       -0.2961
     39 H           9.8409   -5.6614   25.4692 H       1  UNL1        0.1497
     40 C           9.2606   -6.8486   27.1867 C.3     1  UNL1        0.1939
     41 C           8.4169   -8.0888   27.1835 C.3     1  UNL1        0.4154
     42 F           7.5731   -9.3290   27.1803 F       1  UNL1       -0.1682
     43 F           8.7912   -8.3398   25.7528 F       1  UNL1       -0.1682
     44 F           8.0425   -7.8378   28.6141 F       1  UNL1       -0.1682
     45 C           6.8144   -3.9116   20.9978 C.3     1  UNL1        0.1377
     46 C           5.5171   -3.4886   20.3748 C.ar    1  UNL1        0.1390
     47 C           4.6410   -4.3362   19.5007 C.ar    1  UNL1        0.0375
     48 C           3.4506   -3.5152   19.1021 C.ar    1  UNL1        0.0403
     49 C           3.5910   -2.1600   19.7299 C.ar    1  UNL1        0.1449
     50 O           4.8682   -2.1436   20.5164 O.2     1  UNL1       -0.4564
     51 C           2.6241   -1.0213   19.5948 C.ar    1  UNL1        0.0345
     52 C           2.7669   -0.0462   18.4640 C.ar    1  UNL1        0.0030
     53 C           1.7999    1.0925   18.3289 C.ar    1  UNL1        0.0001
     54 C           0.6902    1.2561   19.3247 C.ar    1  UNL1        0.0000
     55 C           0.5473    0.2810   20.4556 C.ar    1  UNL1        0.0001
     56 C           1.5142   -0.8576   20.5906 C.ar    1  UNL1        0.0030
@<TRIPOS>BOND
     1     6     7    2
     2     7     8   am
     3    10     8    1
     4    10    11    1
     5    11    12   ar
     6    12    13   ar
     7    13    14   ar
     8    14    15   ar
     9    15    16   ar
    10    16    17    1
    11    17    18    1
    12    18    19    1
    13    19    20    1
    14     7     5    1
    15     5    22    1
    16    22    23    1
    17    23    24   ar
    18    24    25   ar
    19    25    26   ar
    20    26    27   ar
    21    27    28   ar
    22     5     4    1
    23     4     1    1
    24     1     2    1
    25     1    29    1
    26    29    30    1
    27    30    31    1
    28    31    32    1
    29    32    33    1
    30    33    45    1
    31    45    46    1
    32    46    47   ar
    33    47    48   ar
    34    48    49   ar
    35    49    51    1
    36    51    52   ar
    37    52    53   ar
    38    53    54   ar
    39    54    55   ar
    40    55    56   ar
    41    49    50   ar
    42    33    34    1
    43    34    35    1
    44    35    36    1
    45    36    37    2
    46    36    38   am
    47    38    40    1
    48    40    41    1
    49    41    42    1
    50    41    43    1
    51    41    44    1
    52    19    10    1
    53    28    23   ar
    54    35    30    1
    55    16    11   ar
    56    50    46   ar
    57    56    51   ar
    58     8     9    1
    59    20    21    1
    60     2     3    1
    61    38    39    1
