@<TRIPOS>MOLECULE
*****
 98 98 0 0 0
SMALL
GASTEIGER

@<TRIPOS>ATOM
      1 C           1.4717    0.6066   20.7339 C.3     1  UNL1        0.1789
      2 C           2.7281   -0.1618   21.0182 C.2     1  UNL1        0.2433
      3 O           2.9311   -0.6300   19.6076 O.2     1  UNL1       -0.2732
      4 N           3.9459   -0.8413   21.5706 N.am    1  UNL1       -0.2969
      5 C           5.0811   -1.4073   22.3712 C.3     1  UNL1        0.1488
      6 C           6.0927   -1.8392   23.3911 C.2     1  UNL1        0.2444
      7 O           6.9354   -2.6262   22.4317 O.2     1  UNL1       -0.2731
      8 N           6.9441   -2.1215   24.5934 N.am    1  UNL1       -0.2616
      9 C           7.9486   -2.9621   23.8625 C.3     1  UNL1        0.1161
     10 C           7.6045   -2.2439   25.9346 C.3     1  UNL1        0.2013
     11 C           8.0501   -2.2021   27.3662 C.2     1  UNL1        0.2548
     12 O           9.2649   -3.0581   27.1626 O.2     1  UNL1       -0.2721
     13 N           8.2646   -1.9975   28.8367 N.am    1  UNL1       -0.2691
     14 C           9.5202   -2.8147   28.9125 C.3     1  UNL1        0.1153
     15 C           8.2406   -1.6376   30.2927 C.3     1  UNL1        0.1542
     16 C           7.9787   -1.1354   31.6816 C.2     1  UNL1        0.2409
     17 O           8.6555   -1.4774   32.1393 O.2     1  UNL1       -0.2733
     18 N           7.4884   -0.5090   32.9533 N.am    1  UNL1       -0.2970
     19 C           6.7875    0.2190   34.0618 C.3     1  UNL1        0.1487
     20 C           5.9012    1.0223   34.9670 C.2     1  UNL1        0.2439
     21 O           6.7075    0.7792   36.2083 O.2     1  UNL1       -0.2731
     22 N           4.8617    1.8717   35.6362 N.am    1  UNL1       -0.2699
     23 C           5.4704    1.7901   37.0047 C.3     1  UNL1        0.1153
     24 C           3.7065    2.7366   36.0453 C.3     1  UNL1        0.1518
     25 C           2.4773    3.5858   36.1794 C.2     1  UNL1        0.2409
     26 O           2.6327    3.8301   37.6512 O.2     1  UNL1       -0.2733
     27 N           1.2186    4.3886   36.0337 N.am    1  UNL1       -0.2970
     28 C          -0.0242    5.1159   35.6134 C.3     1  UNL1        0.1486
     29 C          -0.3444    5.6510   36.9776 C.3     1  UNL1        0.0312
     30 C          -1.2060    5.7414   34.9338 C.2     1  UNL1        0.2406
     31 O          -1.7510    6.3955   36.1687 O.2     1  UNL1       -0.2733
     32 N          -2.2843    6.2425   34.0194 N.am    1  UNL1       -0.2970
     33 C          -3.2200    6.6013   32.9033 C.3     1  UNL1        0.1489
     34 C          -4.1479    7.4189   33.7522 C.3     1  UNL1        0.0312
     35 C          -3.9794    6.8046   31.6257 C.2     1  UNL1        0.2439
     36 O          -5.0515    7.6608   32.2318 O.2     1  UNL1       -0.2731
     37 N          -4.5348    6.8451   30.2330 N.am    1  UNL1       -0.2699
     38 C          -5.7126    7.7090   30.5743 C.3     1  UNL1        0.1153
     39 C          -4.8665    6.7214   28.7753 C.3     1  UNL1        0.1520
     40 C          -4.9621    6.4378   27.3055 C.2     1  UNL1        0.2441
     41 O          -6.2211    7.2243   27.0902 O.2     1  UNL1       -0.2731
     42 N          -4.8185    6.0048   25.8765 N.am    1  UNL1       -0.2699
     43 C          -6.0502    6.7090   25.3896 C.3     1  UNL1        0.1153
     44 C          -4.4407    5.4379   24.5401 C.3     1  UNL1        0.1520
     45 C          -3.8424    4.7576   23.3447 C.2     1  UNL1        0.2441
     46 O          -4.8885    5.2246   22.3764 O.2     1  UNL1       -0.2731
     47 N          -3.0452    3.9885   22.3333 N.am    1  UNL1       -0.2699
     48 C          -3.9398    4.3094   21.1727 C.3     1  UNL1        0.1153
     49 C          -2.0780    3.1584   21.5424 C.3     1  UNL1        0.1520
     50 C          -0.9756    2.2973   21.0009 C.2     1  UNL1        0.2441
     51 O          -1.4767    2.2966   19.5870 O.2     1  UNL1       -0.2731
     52 N           0.2220    1.4364   20.7280 N.am    1  UNL1       -0.2680
     53 C          -0.0514    1.2720   19.2623 C.3     1  UNL1        0.1154
     54 H           4.2311   -1.2334   20.7137 H       1  UNL1        0.1499
     55 H           8.2156   -0.8595   33.5167 H       1  UNL1        0.1499
     56 H           1.1635    4.6491   36.9815 H       1  UNL1        0.1499
     57 H          -2.7765    6.7344   34.7158 H       1  UNL1        0.1499
     58 C          -2.7887    3.3215   20.2316 C.3     1  UNL1        0.0271
     59 C          -4.0981    2.6284   19.9970 C.3     1  UNL1        0.0022
     60 C          -2.1899    4.1778   19.1553 C.3     1  UNL1        0.0022
     61 C           1.4358    0.2846   19.2693 C.3     1  UNL1        0.1377
     62 O           0.5960   -0.8545   18.7722 O.3     1  UNL1       -0.3822
     63 H           0.6854   -0.9258   17.8090 H       1  UNL1        0.2104
     64 C           2.2398    1.1016   18.3018 C.3     1  UNL1        0.0334
     65 C           1.8478    2.5200   18.0111 C.3     1  UNL1        0.0029
     66 C           3.4358    0.5002   17.6250 C.3     1  UNL1        0.0282
     67 C           6.9772    1.6502   16.2517 C.3     1  UNL1        0.0303
     68 C           5.7576    0.8136   16.5020 C.2     1  UNL1       -0.0304
     69 C           4.6554    1.3368   17.3747 C.2     1  UNL1       -0.0306
     70 C           7.7623   -0.1768   35.1310 C.3     1  UNL1        0.0269
     71 C           7.2699   -0.8156   36.3957 C.3     1  UNL1        0.0022
     72 C           9.2295    0.0664   34.9355 C.3     1  UNL1        0.0022
     73 C           5.7315   -2.1122   21.2180 C.3     1  UNL1        0.0290
     74 C           5.9700   -1.3810   19.9301 C.3     1  UNL1        0.0023
     75 C           9.4916   -2.3864   30.6453 C.3     1  UNL1        0.0561
     76 C           9.4004   -3.7508   31.2618 C.3     1  UNL1        0.0906
     77 C           9.3249   -4.2061   30.5059 C.3     1  UNL1        0.0294
     78 C           9.5181   -3.1416   32.6275 C.3     1  UNL1        0.0294
     79 O           9.3092   -5.1153   31.8784 O.3     1  UNL1       -0.3867
     80 H           9.2178   -5.7808   31.1787 H       1  UNL1        0.2102
     81 C          -5.6006    6.0343   23.7992 C.3     1  UNL1        0.0292
     82 C          -6.9325    5.3443   23.8104 C.3     1  UNL1        0.0021
     83 C          -7.0097    3.8596   23.6115 C.3     1  UNL1        0.0001
     84 C          -8.1871    6.1391   24.0204 C.3     1  UNL1        0.0001
     85 C          -6.1073    7.5617   28.8395 C.3     1  UNL1        0.0292
     86 C          -7.4574    6.9130   28.7593 C.3     1  UNL1        0.0021
     87 C          -7.7057    5.6091   29.4580 C.3     1  UNL1        0.0001
     88 C          -8.5593    7.5681   27.9805 C.3     1  UNL1        0.0001
     89 C           4.0955    2.8195   37.4916 C.3     1  UNL1        0.0292
     90 C           4.7200    4.0726   38.0297 C.3     1  UNL1        0.0021
     91 C           4.3348    4.5792   39.3880 C.3     1  UNL1        0.0001
     92 C           5.7299    4.8193   37.2095 C.3     1  UNL1        0.0001
     93 S           8.7346   -3.1079   25.4587 S.3     1  UNL1       -0.1107
     94 C           9.2273   -4.2369   26.3146 C.3     1  UNL1        0.0769
     95 C           8.9930   -5.6567   25.8910 C.3     1  UNL1        0.0840
     96 N           8.0789   -6.5367   26.6910 N.3     1  UNL1       -0.2695
     97 C           7.3568   -7.6703   26.0249 C.3     1  UNL1        0.0897
     98 C           7.8869   -6.2833   28.1568 C.3     1  UNL1        0.0897
@<TRIPOS>BOND
     1    67    68    1
     2    68    69    2
     3    69    66    1
     4    66    64    1
     5    64    65    1
     6    64    61    1
     7    61    62    1
     8    61     1    1
     9     1     2    1
    10     2     3    2
    11     2     4   am
    12     4     5    1
    13     5    73    1
    14    73    74    1
    15     5     6    1
    16     6     7    2
    17     6     8   am
    18     8     9    1
    19     8    10    1
    20    10    93    1
    21    93    94    1
    22    94    95    1
    23    95    96    1
    24    96    97    1
    25    96    98    1
    26    10    11    1
    27    11    12    2
    28    11    13   am
    29    13    14    1
    30    13    15    1
    31    15    75    1
    32    75    76    1
    33    76    77    1
    34    76    78    1
    35    76    79    1
    36    15    16    1
    37    16    17    2
    38    16    18   am
    39    18    19    1
    40    19    70    1
    41    70    71    1
    42    70    72    1
    43    19    20    1
    44    20    21    2
    45    20    22   am
    46    22    23    1
    47    22    24    1
    48    24    89    1
    49    89    90    1
    50    90    91    1
    51    90    92    1
    52    24    25    1
    53    25    26    2
    54    25    27   am
    55    27    28    1
    56    28    29    1
    57    28    30    1
    58    30    31    2
    59    30    32   am
    60    32    33    1
    61    33    34    1
    62    33    35    1
    63    35    36    2
    64    35    37   am
    65    37    38    1
    66    37    39    1
    67    39    85    1
    68    85    86    1
    69    86    87    1
    70    86    88    1
    71    39    40    1
    72    40    41    2
    73    40    42   am
    74    42    43    1
    75    42    44    1
    76    44    81    1
    77    81    82    1
    78    82    83    1
    79    82    84    1
    80    44    45    1
    81    45    46    2
    82    45    47   am
    83    47    48    1
    84    47    49    1
    85    49    58    1
    86    58    59    1
    87    58    60    1
    88    49    50    1
    89    50    51    2
    90    50    52   am
    91    52    53    1
    92     1    52    1
    93    62    63    1
    94     4    54    1
    95    79    80    1
    96    18    55    1
    97    27    56    1
    98    32    57    1
@<TRIPOS>MOLECULE
*****
 98 98 0 0 0
SMALL
GASTEIGER

@<TRIPOS>ATOM
      1 C           2.7941    0.1055   20.2508 C.3     1  UNL1        0.1789
      2 C           3.9860   -0.6584   20.7466 C.2     1  UNL1        0.2433
      3 O           4.3845   -1.1896   19.4016 O.2     1  UNL1       -0.2732
      4 N           5.1021   -1.3212   21.4982 N.am    1  UNL1       -0.2969
      5 C           6.1022   -1.8592   22.4782 C.3     1  UNL1        0.1488
      6 C           6.9499   -2.2527   23.6515 C.2     1  UNL1        0.2444
      7 O           7.9120   -3.0870   22.8587 O.2     1  UNL1       -0.2731
      8 N           7.6148   -2.4877   24.9754 N.am    1  UNL1       -0.2616
      9 C           8.7032   -3.3666   24.4343 C.3     1  UNL1        0.1161
     10 C           8.0728   -2.5556   26.4021 C.3     1  UNL1        0.2013
     11 C           8.3073   -2.4538   27.8802 C.2     1  UNL1        0.2548
     12 O           9.5273   -3.3263   27.8914 O.2     1  UNL1       -0.2721
     13 N           8.3097   -2.1862   29.3562 N.am    1  UNL1       -0.2691
     14 C           9.5303   -3.0079   29.6479 C.3     1  UNL1        0.1153
     15 C           8.0803   -1.7625   30.7766 C.3     1  UNL1        0.1542
     16 C           7.6270   -1.1977   32.0903 C.2     1  UNL1        0.2409
     17 O           8.2260   -1.5240   32.6554 O.2     1  UNL1       -0.2733
     18 N           6.9663   -0.5126   33.2496 N.am    1  UNL1       -0.2970
     19 C           6.1222    0.2683   34.2128 C.3     1  UNL1        0.1487
     20 C           5.1251    1.1166   34.9449 C.2     1  UNL1        0.2439
     21 O           5.7403    0.9229   36.2993 O.2     1  UNL1       -0.2731
     22 N           4.0111    2.0018   35.4197 N.am    1  UNL1       -0.2699
     23 C           4.4144    1.9764   36.8642 C.3     1  UNL1        0.1153
     24 C           2.8204    2.8918   35.6198 C.3     1  UNL1        0.1518
     25 C           1.5960    3.7546   35.5380 C.2     1  UNL1        0.2409
     26 O           1.5402    4.0623   37.0051 O.2     1  UNL1       -0.2733
     27 N           0.3823    4.5587   35.1774 N.am    1  UNL1       -0.2970
     28 C          -0.7770    5.2754   34.5508 C.3     1  UNL1        0.1486
     29 C          -1.2840    5.8722   35.8301 C.3     1  UNL1        0.0312
     30 C          -1.8399    5.8785   33.6811 C.2     1  UNL1        0.2406
     31 O          -2.5489    6.5900   34.7950 O.2     1  UNL1       -0.2733
     32 N          -2.7680    6.3463   32.5995 N.am    1  UNL1       -0.2970
     33 C          -3.5278    6.6620   31.3453 C.3     1  UNL1        0.1489
     34 C          -4.5577    7.5226   32.0152 C.3     1  UNL1        0.0312
     35 C          -4.0917    6.8141   29.9636 C.2     1  UNL1        0.2439
     36 O          -5.2288    7.7035   30.3709 O.2     1  UNL1       -0.2731
     37 N          -4.4395    6.7971   28.5046 N.am    1  UNL1       -0.2699
     38 C          -5.6428    7.6833   28.6345 C.3     1  UNL1        0.1153
     39 C          -4.5586    6.6116   27.0209 C.3     1  UNL1        0.1520
     40 C          -4.4445    6.2643   25.5662 C.2     1  UNL1        0.2441
     41 O          -5.6487    7.0492   25.1374 O.2     1  UNL1       -0.2731
     42 N          -4.1017    5.7679   24.1928 N.am    1  UNL1       -0.2699
     43 C          -5.2406    6.4584   23.5030 C.3     1  UNL1        0.1153
     44 C          -3.5422    5.1401   22.9507 C.3     1  UNL1        0.1520
     45 C          -2.7864    4.4038   21.8846 C.2     1  UNL1        0.2441
     46 O          -3.6753    4.8349   20.7560 O.2     1  UNL1       -0.2731
     47 N          -1.8616    3.5855   21.0331 N.am    1  UNL1       -0.2699
     48 C          -2.5747    3.8611   19.7426 C.3     1  UNL1        0.1153
     49 C          -0.8012    2.7147   20.4269 C.3     1  UNL1        0.1520
     50 C           0.3565    1.8230   20.0880 C.2     1  UNL1        0.2441
     51 O           0.0650    1.7636   18.6177 O.2     1  UNL1       -0.2731
     52 N           1.5695    0.9427   20.0286 N.am    1  UNL1       -0.2680
     53 C           1.5086    0.7159   18.5470 C.3     1  UNL1        0.1154
     54 H           5.5029   -1.7526   20.7092 H       1  UNL1        0.1499
     55 H           7.5998   -0.8431   33.9269 H       1  UNL1        0.1499
     56 H           0.1942    4.8611   36.0952 H       1  UNL1        0.1499
     57 H          -3.3492    6.8717   33.1957 H       1  UNL1        0.1499
     58 C          -1.3128    2.8248   19.0212 C.3     1  UNL1        0.0271
     59 C          -2.5570    2.0915   18.6161 C.3     1  UNL1        0.0022
     60 C          -0.5800    3.6685   18.0204 C.3     1  UNL1        0.0022
     61 C           2.9660   -0.2805   18.8115 C.3     1  UNL1        0.1377
     62 O           2.1667   -1.4127   18.2380 O.3     1  UNL1       -0.3822
     63 H           2.3968   -1.5300   17.3030 H       1  UNL1        0.2104
     64 C           3.9373    0.4658   17.9458 C.3     1  UNL1        0.0334
     65 C           4.2736   -0.0507   16.5782 C.3     1  UNL1        0.0029
     66 C           4.5725    1.7287   18.4475 C.3     1  UNL1        0.0282
     67 C           5.6726    5.2838   17.0685 C.3     1  UNL1        0.0303
     68 C           5.4010    4.1531   18.0161 C.2     1  UNL1       -0.0304
     69 C           4.8440    2.8594   17.5001 C.2     1  UNL1       -0.0306
     70 C           6.9270   -0.0868   35.4279 C.3     1  UNL1        0.0269
     71 C           8.3760    0.2932   35.5052 C.3     1  UNL1        0.0022
     72 C           6.2826   -0.8218   36.5657 C.3     1  UNL1        0.0022
     73 C           6.9030   -2.6187   21.4625 C.3     1  UNL1        0.0290
     74 C           7.4650   -1.9082   20.2669 C.3     1  UNL1        0.0023
     75 C           9.2572   -2.5035   31.3384 C.3     1  UNL1        0.0561
     76 C           9.1000   -3.9229   31.7976 C.3     1  UNL1        0.0906
     77 C           8.8356   -4.2587   31.0219 C.3     1  UNL1        0.0294
     78 C           9.5320   -3.5242   33.1777 C.3     1  UNL1        0.0294
     79 O           8.9429   -5.3422   32.2569 O.3     1  UNL1       -0.3867
     80 H           8.6457   -5.8912   31.5145 H       1  UNL1        0.2102
     81 C          -4.5748    5.7113   22.0247 C.3     1  UNL1        0.0292
     82 C          -4.2763    6.9581   21.2460 C.3     1  UNL1        0.0021
     83 C          -2.9765    7.6778   21.4518 C.3     1  UNL1        0.0001
     84 C          -5.2777    7.4852   20.2614 C.3     1  UNL1        0.0001
     85 C          -5.7844    7.4625   26.8687 C.3     1  UNL1        0.0292
     86 C          -7.1459    6.8472   27.0027 C.3     1  UNL1        0.0021
     87 C          -8.3690    7.6561   26.6872 C.3     1  UNL1        0.0001
     88 C          -7.2843    5.4229   27.4524 C.3     1  UNL1        0.0001
     89 C           2.9973    3.0356   37.1023 C.3     1  UNL1        0.0292
     90 C           2.2333    2.1470   38.0386 C.3     1  UNL1        0.0021
     91 C           1.8507    2.6450   39.4007 C.3     1  UNL1        0.0001
     92 C           1.8518    0.7603   37.6126 C.3     1  UNL1        0.0001
     93 S           9.2482   -3.4474   26.1323 S.3     1  UNL1       -0.1107
     94 C           9.3519   -4.7788   26.8153 C.3     1  UNL1        0.0769
     95 C           8.2969   -5.2043   27.7931 C.3     1  UNL1        0.0840
     96 N           6.9365   -5.6025   27.3024 N.3     1  UNL1       -0.2695
     97 C           5.7121   -4.9575   27.8812 C.3     1  UNL1        0.0897
     98 C           6.8004   -6.6454   26.2330 C.3     1  UNL1        0.0897
@<TRIPOS>BOND
     1    67    68    1
     2    68    69    2
     3    69    66    1
     4    66    64    1
     5    64    65    1
     6    64    61    1
     7    61    62    1
     8    61     1    1
     9     1     2    1
    10     2     3    2
    11     2     4   am
    12     4     5    1
    13     5    73    1
    14    73    74    1
    15     5     6    1
    16     6     7    2
    17     6     8   am
    18     8     9    1
    19     8    10    1
    20    10    93    1
    21    93    94    1
    22    94    95    1
    23    95    96    1
    24    96    97    1
    25    96    98    1
    26    10    11    1
    27    11    12    2
    28    11    13   am
    29    13    14    1
    30    13    15    1
    31    15    75    1
    32    75    76    1
    33    76    77    1
    34    76    78    1
    35    76    79    1
    36    15    16    1
    37    16    17    2
    38    16    18   am
    39    18    19    1
    40    19    70    1
    41    70    71    1
    42    70    72    1
    43    19    20    1
    44    20    21    2
    45    20    22   am
    46    22    23    1
    47    22    24    1
    48    24    89    1
    49    89    90    1
    50    90    91    1
    51    90    92    1
    52    24    25    1
    53    25    26    2
    54    25    27   am
    55    27    28    1
    56    28    29    1
    57    28    30    1
    58    30    31    2
    59    30    32   am
    60    32    33    1
    61    33    34    1
    62    33    35    1
    63    35    36    2
    64    35    37   am
    65    37    38    1
    66    37    39    1
    67    39    85    1
    68    85    86    1
    69    86    87    1
    70    86    88    1
    71    39    40    1
    72    40    41    2
    73    40    42   am
    74    42    43    1
    75    42    44    1
    76    44    81    1
    77    81    82    1
    78    82    83    1
    79    82    84    1
    80    44    45    1
    81    45    46    2
    82    45    47   am
    83    47    48    1
    84    47    49    1
    85    49    58    1
    86    58    59    1
    87    58    60    1
    88    49    50    1
    89    50    51    2
    90    50    52   am
    91    52    53    1
    92     1    52    1
    93    62    63    1
    94     4    54    1
    95    79    80    1
    96    18    55    1
    97    27    56    1
    98    32    57    1
