@<TRIPOS>MOLECULE
*****
 28 31 0 0 0
SMALL
GASTEIGER

@<TRIPOS>ATOM
      1 C         -10.0236  -17.3415   22.4590 C.3     1  UNL1        0.1041
      2 C         -10.9413  -16.3031   21.8850 C.3     1  UNL1        0.0251
      3 C         -11.4333  -16.4345   20.4740 C.3     1  UNL1        0.0116
      4 C         -11.0075  -17.6043   19.6372 C.3     1  UNL1        0.0854
      5 C         -10.0898  -18.6427   20.2112 C.2     1  UNL1        0.2261
      6 O          -9.6641  -19.8125   19.3744 O.2     1  UNL1       -0.2749
      7 N          -9.5979  -18.5113   21.6221 N.am    1  UNL1       -0.2715
      8 C         -10.1197  -18.0664   24.9521 C.ar    1  UNL1        0.1392
      9 C          -9.6277  -17.9350   26.3630 C.ar    1  UNL1        0.0368
     10 C          -8.5477  -16.9473   26.6918 C.ar    1  UNL1        0.0062
     11 C          -7.9597  -16.0910   25.6097 C.ar    1  UNL1        0.0368
     12 C          -8.4517  -16.2224   24.1988 C.ar    1  UNL1        0.1392
     13 C          -9.5316  -17.2101   23.8699 C.ar    1  UNL1        0.0636
     14 C         -12.6235  -18.5973   24.5064 C.3     1  UNL1        0.2525
     15 O         -11.1996  -19.0541   24.6233 O.3     1  UNL1       -0.4716
     16 O          -7.8637  -15.3661   23.1167 O.3     1  UNL1       -0.4716
     17 C          -6.4126  -14.9890   23.1639 C.3     1  UNL1        0.2525
     18 C          -8.6802  -19.5497   22.1962 C.3     1  UNL1        0.1395
     19 C          -7.2179  -19.5250   21.8629 C.ar    1  UNL1        0.0790
     20 C          -6.6872  -20.3824   20.7524 C.ar    1  UNL1        0.0165
     21 C          -5.2249  -20.3578   20.4192 C.ar    1  UNL1        0.0028
     22 C          -4.2933  -19.4757   21.1964 C.ar    1  UNL1        0.0177
     23 C          -2.8310  -19.4510   20.8632 C.ar    1  UNL1        0.0015
     24 C          -1.8994  -18.5690   21.6404 C.ar    1  UNL1        0.0001
     25 C          -2.4301  -17.7116   22.7509 C.ar    1  UNL1        0.0015
     26 C          -3.8924  -17.7363   23.0842 C.ar    1  UNL1        0.0191
     27 C          -4.8240  -18.6183   22.3069 C.ar    1  UNL1        0.0809
     28 N          -6.2863  -18.6430   22.6402 N.ar    1  UNL1       -0.2480
@<TRIPOS>BOND
     1    14    15    1
     2    15     8    1
     3     8     9   ar
     4     9    10   ar
     5    10    11   ar
     6    11    12   ar
     7    12    16    1
     8    16    17    1
     9    12    13   ar
    10    13     1    1
    11     1     2    1
    12     2     3    1
    13     3     4    1
    14     4     5    1
    15     5     6    2
    16     5     7   am
    17     7    18    1
    18    18    19    1
    19    19    20   ar
    20    20    21   ar
    21    21    22   ar
    22    22    23   ar
    23    23    24   ar
    24    24    25   ar
    25    25    26   ar
    26    26    27   ar
    27    27    28   ar
    28    13     8   ar
    29     7     1    1
    30    28    19   ar
    31    27    22   ar
@<TRIPOS>MOLECULE
*****
 28 31 0 0 0
SMALL
GASTEIGER

@<TRIPOS>ATOM
      1 C         -10.0249  -17.3455   22.4569 C.3     1  UNL1        0.1041
      2 C         -10.9436  -16.3079   21.8830 C.3     1  UNL1        0.0251
      3 C         -11.4359  -16.4398   20.4721 C.3     1  UNL1        0.0116
      4 C         -11.0094  -17.6093   19.6353 C.3     1  UNL1        0.0854
      5 C         -10.0907  -18.6469   20.2092 C.2     1  UNL1        0.2261
      6 O          -9.6642  -19.8164   19.3723 O.2     1  UNL1       -0.2749
      7 N          -9.5984  -18.5150   21.6199 N.am    1  UNL1       -0.2715
      8 C          -8.4495  -16.2288   24.1950 C.ar    1  UNL1        0.1392
      9 C          -7.9572  -16.0969   25.6058 C.ar    1  UNL1        0.0368
     10 C          -8.5481  -16.9497   26.6891 C.ar    1  UNL1        0.0062
     11 C          -9.6312  -17.9344   26.3618 C.ar    1  UNL1        0.0368
     12 C         -10.1235  -18.0663   24.9510 C.ar    1  UNL1        0.1392
     13 C          -9.5326  -17.2135   23.8676 C.ar    1  UNL1        0.0636
     14 C          -6.4116  -14.9853   23.1700 C.3     1  UNL1        0.2525
     15 O          -7.8586  -15.3761   23.1117 O.3     1  UNL1       -0.4716
     16 O         -11.2066  -19.0510   24.6236 O.3     1  UNL1       -0.4716
     17 C         -12.6283  -18.5887   24.5004 C.3     1  UNL1        0.2525
     18 C          -8.6797  -19.5526   22.1938 C.3     1  UNL1        0.1395
     19 C          -7.2175  -19.5266   21.8603 C.ar    1  UNL1        0.0790
     20 C          -6.6861  -20.3841   20.7503 C.ar    1  UNL1        0.0165
     21 C          -5.2239  -20.3581   20.4168 C.ar    1  UNL1        0.0028
     22 C          -4.2930  -19.4746   21.1933 C.ar    1  UNL1        0.0177
     23 C          -2.8308  -19.4486   20.8598 C.ar    1  UNL1        0.0015
     24 C          -1.9001  -18.5651   21.6364 C.ar    1  UNL1        0.0001
     25 C          -2.4315  -17.7076   22.7465 C.ar    1  UNL1        0.0015
     26 C          -3.8937  -17.7336   23.0800 C.ar    1  UNL1        0.0191
     27 C          -4.8245  -18.6171   22.3034 C.ar    1  UNL1        0.0809
     28 N          -6.2868  -18.6431   22.6369 N.ar    1  UNL1       -0.2480
@<TRIPOS>BOND
     1    14    15    1
     2    15     8    1
     3     8     9   ar
     4     9    10   ar
     5    10    11   ar
     6    11    12   ar
     7    12    16    1
     8    16    17    1
     9    12    13   ar
    10    13     1    1
    11     1     2    1
    12     2     3    1
    13     3     4    1
    14     4     5    1
    15     5     6    2
    16     5     7   am
    17     7    18    1
    18    18    19    1
    19    19    20   ar
    20    20    21   ar
    21    21    22   ar
    22    22    23   ar
    23    23    24   ar
    24    24    25   ar
    25    25    26   ar
    26    26    27   ar
    27    27    28   ar
    28    13     8   ar
    29     7     1    1
    30    28    19   ar
    31    27    22   ar
@<TRIPOS>MOLECULE
*****
 28 31 0 0 0
SMALL
GASTEIGER

@<TRIPOS>ATOM
      1 C          -9.0810  -18.1176   21.9586 C.3     1  UNL1        0.1041
      2 C         -10.2577  -17.7315   21.1123 C.3     1  UNL1        0.0251
      3 C         -10.4399  -18.3459   19.7561 C.3     1  UNL1        0.0116
      4 C          -9.4454  -19.3464   19.2462 C.3     1  UNL1        0.0854
      5 C          -8.2687  -19.7325   20.0925 C.2     1  UNL1        0.2261
      6 O          -7.2743  -20.7330   19.5827 O.2     1  UNL1       -0.2749
      7 N          -8.0865  -19.1182   21.4487 N.am    1  UNL1       -0.2715
      8 C          -8.1003  -16.2423   23.4659 C.ar    1  UNL1        0.1392
      9 C          -7.9180  -15.6279   24.8220 C.ar    1  UNL1        0.0368
     10 C          -8.5341  -16.2744   26.0272 C.ar    1  UNL1        0.0062
     11 C          -9.3325  -17.5352   25.8763 C.ar    1  UNL1        0.0368
     12 C          -9.5148  -18.1497   24.5200 C.ar    1  UNL1        0.1392
     13 C          -8.8987  -17.5032   23.3148 C.ar    1  UNL1        0.0636
     14 C          -8.3058  -14.6882   21.3940 C.3     1  UNL1        0.2525
     15 O          -7.4842  -15.5958   22.2607 O.3     1  UNL1       -0.4716
     16 O         -10.3132  -19.4105   24.3690 O.3     1  UNL1       -0.4716
     17 C          -9.6310  -20.7441   24.4476 C.3     1  UNL1        0.2525
     18 C          -6.9098  -19.5043   22.2950 C.3     1  UNL1        0.1395
     19 C          -5.5797  -18.8468   22.0749 C.ar    1  UNL1        0.0790
     20 C          -4.9856  -17.9794   23.1448 C.ar    1  UNL1        0.0165
     21 C          -3.6555  -17.3219   22.9247 C.ar    1  UNL1        0.0028
     22 C          -2.9194  -17.5318   21.6346 C.ar    1  UNL1        0.0177
     23 C          -1.5893  -16.8743   21.4145 C.ar    1  UNL1        0.0015
     24 C          -0.8533  -17.0842   20.1245 C.ar    1  UNL1        0.0001
     25 C          -1.4474  -17.9515   19.0546 C.ar    1  UNL1        0.0015
     26 C          -2.7775  -18.6090   19.2747 C.ar    1  UNL1        0.0191
     27 C          -3.5135  -18.3991   20.5647 C.ar    1  UNL1        0.0809
     28 N          -4.8437  -19.0567   20.7849 N.ar    1  UNL1       -0.2480
@<TRIPOS>BOND
     1    14    15    1
     2    15     8    1
     3     8     9   ar
     4     9    10   ar
     5    10    11   ar
     6    11    12   ar
     7    12    16    1
     8    16    17    1
     9    12    13   ar
    10    13     1    1
    11     1     2    1
    12     2     3    1
    13     3     4    1
    14     4     5    1
    15     5     6    2
    16     5     7   am
    17     7    18    1
    18    18    19    1
    19    19    20   ar
    20    20    21   ar
    21    21    22   ar
    22    22    23   ar
    23    23    24   ar
    24    24    25   ar
    25    25    26   ar
    26    26    27   ar
    27    27    28   ar
    28    13     8   ar
    29     7     1    1
    30    28    19   ar
    31    27    22   ar
@<TRIPOS>MOLECULE
*****
 28 31 0 0 0
SMALL
GASTEIGER

@<TRIPOS>ATOM
      1 C          -9.0678  -18.1201   22.0173 C.3     1  UNL1        0.1041
      2 C         -10.2507  -17.7409   21.1765 C.3     1  UNL1        0.0251
      3 C         -10.4260  -18.3426   19.8137 C.3     1  UNL1        0.0116
      4 C          -9.4184  -19.3234   19.2916 C.3     1  UNL1        0.0854
      5 C          -8.2355  -19.7027   20.1324 C.2     1  UNL1        0.2261
      6 O          -7.2279  -20.6836   19.6104 O.2     1  UNL1       -0.2749
      7 N          -8.0602  -19.1011   21.4952 N.am    1  UNL1       -0.2715
      8 C          -9.5205  -18.1725   24.5751 C.ar    1  UNL1        0.1392
      9 C          -9.3452  -17.5709   25.9379 C.ar    1  UNL1        0.0368
     10 C          -8.5420  -16.3153   26.1058 C.ar    1  UNL1        0.0062
     11 C          -7.9140  -15.6613   24.9109 C.ar    1  UNL1        0.0368
     12 C          -8.0893  -16.2629   23.5480 C.ar    1  UNL1        0.1392
     13 C          -8.8925  -17.5185   23.3801 C.ar    1  UNL1        0.0636
     14 C          -9.6514  -20.7661   24.4956 C.3     1  UNL1        0.2525
     15 O         -10.3237  -19.4282   24.4073 O.3     1  UNL1       -0.4716
     16 O          -7.4613  -15.6089   22.3531 O.3     1  UNL1       -0.4716
     17 C          -8.2812  -14.7164   21.4692 C.3     1  UNL1        0.2525
     18 C          -6.8773  -19.4803   22.3360 C.3     1  UNL1        0.1395
     19 C          -5.5487  -18.8251   22.1004 C.ar    1  UNL1        0.0790
     20 C          -4.9479  -17.9465   23.1573 C.ar    1  UNL1        0.0165
     21 C          -3.6193  -17.2912   22.9217 C.ar    1  UNL1        0.0028
     22 C          -2.8915  -17.5147   21.6292 C.ar    1  UNL1        0.0177
     23 C          -1.5629  -16.8595   21.3936 C.ar    1  UNL1        0.0015
     24 C          -0.8352  -17.0829   20.1012 C.ar    1  UNL1        0.0001
     25 C          -1.4360  -17.9616   19.0444 C.ar    1  UNL1        0.0015
     26 C          -2.7646  -18.6168   19.2799 C.ar    1  UNL1        0.0191
     27 C          -3.4923  -18.3933   20.5724 C.ar    1  UNL1        0.0809
     28 N          -4.8210  -19.0486   20.8080 N.ar    1  UNL1       -0.2480
@<TRIPOS>BOND
     1    14    15    1
     2    15     8    1
     3     8     9   ar
     4     9    10   ar
     5    10    11   ar
     6    11    12   ar
     7    12    16    1
     8    16    17    1
     9    12    13   ar
    10    13     1    1
    11     1     2    1
    12     2     3    1
    13     3     4    1
    14     4     5    1
    15     5     6    2
    16     5     7   am
    17     7    18    1
    18    18    19    1
    19    19    20   ar
    20    20    21   ar
    21    21    22   ar
    22    22    23   ar
    23    23    24   ar
    24    24    25   ar
    25    25    26   ar
    26    26    27   ar
    27    27    28   ar
    28    13     8   ar
    29     7     1    1
    30    28    19   ar
    31    27    22   ar
@<TRIPOS>MOLECULE
*****
 28 31 0 0 0
SMALL
GASTEIGER

@<TRIPOS>ATOM
      1 C         -11.6470   -4.9812   18.3235 C.3     1  UNL1        0.1041
      2 C         -10.4790   -5.1720   19.2451 C.3     1  UNL1        0.0251
      3 C          -9.5797   -6.3612   19.0799 C.3     1  UNL1        0.0116
      4 C          -9.8485   -7.3595   17.9931 C.3     1  UNL1        0.0854
      5 C         -11.0164   -7.1686   17.0715 C.2     1  UNL1        0.2261
      6 O         -11.2852   -8.1669   15.9847 O.2     1  UNL1       -0.2749
      7 N         -11.9157   -5.9795   17.2366 N.am    1  UNL1       -0.2715
      8 C         -13.8317   -3.9238   19.2505 C.ar    1  UNL1        0.1392
      9 C         -14.7309   -2.7347   19.4156 C.ar    1  UNL1        0.0368
     10 C         -14.3448   -1.4138   18.8190 C.ar    1  UNL1        0.0062
     11 C         -13.0594   -1.2819   18.0572 C.ar    1  UNL1        0.0368
     12 C         -12.1601   -2.4711   17.8920 C.ar    1  UNL1        0.1392
     13 C         -12.5462   -3.7920   18.4886 C.ar    1  UNL1        0.0636
     14 C         -15.6532   -5.6800   19.8403 C.3     1  UNL1        0.2525
     15 O         -14.2178   -5.2448   19.8471 O.3     1  UNL1       -0.4716
     16 O         -10.8747   -2.3393   17.1302 O.3     1  UNL1       -0.4716
     17 C         -10.4051   -0.9878   16.6797 C.3     1  UNL1        0.2525
     18 C         -13.0836   -5.7887   16.3150 C.3     1  UNL1        0.1395
     19 C         -14.3505   -6.5596   16.5401 C.ar    1  UNL1        0.0790
     20 C         -15.6560   -6.0213   16.0344 C.ar    1  UNL1        0.0165
     21 C         -16.9229   -6.7922   16.2595 C.ar    1  UNL1        0.0028
     22 C         -16.8842   -8.1016   16.9904 C.ar    1  UNL1        0.0177
     23 C         -18.1510   -8.8725   17.2156 C.ar    1  UNL1        0.0015
     24 C         -18.1123  -10.1818   17.9464 C.ar    1  UNL1        0.0001
     25 C         -16.8068  -10.7202   18.4521 C.ar    1  UNL1        0.0015
     26 C         -15.5400   -9.9492   18.2270 C.ar    1  UNL1        0.0191
     27 C         -15.5787   -8.6399   17.4961 C.ar    1  UNL1        0.0809
     28 N         -14.3118   -7.8689   17.2710 N.ar    1  UNL1       -0.2480
@<TRIPOS>BOND
     1    14    15    1
     2    15     8    1
     3     8     9   ar
     4     9    10   ar
     5    10    11   ar
     6    11    12   ar
     7    12    16    1
     8    16    17    1
     9    12    13   ar
    10    13     1    1
    11     1     2    1
    12     2     3    1
    13     3     4    1
    14     4     5    1
    15     5     6    2
    16     5     7   am
    17     7    18    1
    18    18    19    1
    19    19    20   ar
    20    20    21   ar
    21    21    22   ar
    22    22    23   ar
    23    23    24   ar
    24    24    25   ar
    25    25    26   ar
    26    26    27   ar
    27    27    28   ar
    28    13     8   ar
    29     7     1    1
    30    28    19   ar
    31    27    22   ar
@<TRIPOS>MOLECULE
*****
 28 31 0 0 0
SMALL
GASTEIGER

@<TRIPOS>ATOM
      1 C         -13.2692   -6.4926   17.3155 C.3     1  UNL1        0.1041
      2 C         -13.5802   -7.3773   16.1448 C.3     1  UNL1        0.0251
      3 C         -14.7492   -8.3154   16.2033 C.3     1  UNL1        0.0116
      4 C         -15.6071   -8.3689   17.4326 C.3     1  UNL1        0.0854
      5 C         -15.2961   -7.4842   18.6033 C.2     1  UNL1        0.2261
      6 O         -16.1540   -7.5377   19.8326 O.2     1  UNL1       -0.2749
      7 N         -14.1271   -6.5461   18.5448 N.am    1  UNL1       -0.2715
      8 C         -10.7668   -5.9833   17.7937 C.ar    1  UNL1        0.1392
      9 C          -9.5978   -5.0452   17.7352 C.ar    1  UNL1        0.0368
     10 C          -9.7623   -3.6782   17.1400 C.ar    1  UNL1        0.0062
     11 C         -11.0957   -3.2493   16.6033 C.ar    1  UNL1        0.0368
     12 C         -12.2647   -4.1875   16.6618 C.ar    1  UNL1        0.1392
     13 C         -12.1002   -5.5545   17.2570 C.ar    1  UNL1        0.0636
     14 C          -9.2758   -7.7694   18.9498 C.3     1  UNL1        0.2525
     15 O         -10.6023   -7.3503   18.3889 O.3     1  UNL1       -0.4716
     16 O         -13.5981   -3.7586   16.1251 O.3     1  UNL1       -0.4716
     17 C         -14.0251   -2.3249   16.2354 C.3     1  UNL1        0.2525
     18 C         -13.8161   -5.6614   19.7155 C.3     1  UNL1        0.1395
     19 C         -14.4119   -4.2872   19.7963 C.ar    1  UNL1        0.0790
     20 C         -13.5176   -3.0842   19.8518 C.ar    1  UNL1        0.0165
     21 C         -14.1134   -1.7099   19.9325 C.ar    1  UNL1        0.0028
     22 C         -15.6034   -1.5387   19.9578 C.ar    1  UNL1        0.0177
     23 C         -16.1991   -0.1645   20.0386 C.ar    1  UNL1        0.0015
     24 C         -17.6891    0.0067   20.0639 C.ar    1  UNL1        0.0001
     25 C         -18.5833   -1.1963   20.0084 C.ar    1  UNL1        0.0015
     26 C         -17.9876   -2.5705   19.9277 C.ar    1  UNL1        0.0191
     27 C         -16.4976   -2.7417   19.9024 C.ar    1  UNL1        0.0809
     28 N         -15.9018   -4.1160   19.8216 N.ar    1  UNL1       -0.2480
@<TRIPOS>BOND
     1    14    15    1
     2    15     8    1
     3     8     9   ar
     4     9    10   ar
     5    10    11   ar
     6    11    12   ar
     7    12    16    1
     8    16    17    1
     9    12    13   ar
    10    13     1    1
    11     1     2    1
    12     2     3    1
    13     3     4    1
    14     4     5    1
    15     5     6    2
    16     5     7   am
    17     7    18    1
    18    18    19    1
    19    19    20   ar
    20    20    21   ar
    21    21    22   ar
    22    22    23   ar
    23    23    24   ar
    24    24    25   ar
    25    25    26   ar
    26    26    27   ar
    27    27    28   ar
    28    13     8   ar
    29     7     1    1
    30    28    19   ar
    31    27    22   ar
@<TRIPOS>MOLECULE
*****
 28 31 0 0 0
SMALL
GASTEIGER

@<TRIPOS>ATOM
      1 C           5.5950   -0.8472   19.9823 C.3     1  UNL1        0.1041
      2 C           7.0023   -0.3996   19.7193 C.3     1  UNL1        0.0251
      3 C           7.4376   -0.0766   18.3206 C.3     1  UNL1        0.0116
      4 C           6.4656   -0.2012   17.1850 C.3     1  UNL1        0.0854
      5 C           5.0583   -0.6488   17.4480 C.2     1  UNL1        0.2261
      6 O           4.0863   -0.7734   16.3124 O.2     1  UNL1       -0.2749
      7 N           4.6230   -0.9718   18.8466 N.am    1  UNL1       -0.2715
      8 C           4.6442   -0.0826   22.2760 C.ar    1  UNL1        0.1392
      9 C           4.2089   -0.4056   23.6746 C.ar    1  UNL1        0.0368
     10 C           4.2891   -1.8163   24.1781 C.ar    1  UNL1        0.0062
     11 C           4.8045   -2.9040   23.2830 C.ar    1  UNL1        0.0368
     12 C           5.2399   -2.5810   21.8844 C.ar    1  UNL1        0.1392
     13 C           5.1597   -1.1703   21.3809 C.ar    1  UNL1        0.0636
     14 C           3.5768    2.2841   22.3737 C.3     1  UNL1        0.2525
     15 O           4.5641    1.3281   21.7725 O.3     1  UNL1       -0.4716
     16 O           5.7553   -3.6686   20.9893 O.3     1  UNL1       -0.4716
     17 C           7.2186   -3.9984   20.9757 C.3     1  UNL1        0.2525
     18 C           3.2157   -1.4194   19.1096 C.3     1  UNL1        0.1395
     19 C           2.1677   -0.4153   19.4880 C.ar    1  UNL1        0.0790
     20 C           1.5068   -0.4914   20.8324 C.ar    1  UNL1        0.0165
     21 C           0.4587    0.5127   21.2109 C.ar    1  UNL1        0.0028
     22 C           0.0715    1.5930   20.2449 C.ar    1  UNL1        0.0177
     23 C          -0.9765    2.5972   20.6234 C.ar    1  UNL1        0.0015
     24 C          -1.3637    3.6774   19.6575 C.ar    1  UNL1        0.0001
     25 C          -0.7028    3.7536   18.3131 C.ar    1  UNL1        0.0015
     26 C           0.3453    2.7495   17.9346 C.ar    1  UNL1        0.0191
     27 C           0.7324    1.6692   18.9005 C.ar    1  UNL1        0.0809
     28 N           1.7805    0.6650   18.5221 N.ar    1  UNL1       -0.2480
@<TRIPOS>BOND
     1    14    15    1
     2    15     8    1
     3     8     9   ar
     4     9    10   ar
     5    10    11   ar
     6    11    12   ar
     7    12    16    1
     8    16    17    1
     9    12    13   ar
    10    13     1    1
    11     1     2    1
    12     2     3    1
    13     3     4    1
    14     4     5    1
    15     5     6    2
    16     5     7   am
    17     7    18    1
    18    18    19    1
    19    19    20   ar
    20    20    21   ar
    21    21    22   ar
    22    22    23   ar
    23    23    24   ar
    24    24    25   ar
    25    25    26   ar
    26    26    27   ar
    27    27    28   ar
    28    13     8   ar
    29     7     1    1
    30    28    19   ar
    31    27    22   ar
@<TRIPOS>MOLECULE
*****
 28 31 0 0 0
SMALL
GASTEIGER

@<TRIPOS>ATOM
      1 C         -16.1973   -6.8108   18.9507 C.3     1  UNL1        0.1041
      2 C         -16.8397   -7.6871   19.9847 C.3     1  UNL1        0.0251
      3 C         -18.3347   -7.7481   20.0922 C.3     1  UNL1        0.0116
      4 C         -19.1871   -6.9328   19.1656 C.3     1  UNL1        0.0854
      5 C         -18.5447   -6.0565   18.1315 C.2     1  UNL1        0.2261
      6 O         -19.3971   -5.2413   17.2049 O.2     1  UNL1       -0.2749
      7 N         -17.0498   -5.9955   18.0240 N.am    1  UNL1       -0.2715
      8 C         -13.9372   -5.7108   19.6083 C.ar    1  UNL1        0.1392
      9 C         -12.4424   -5.6498   19.5008 C.ar    1  UNL1        0.0368
     10 C         -11.7126   -6.6276   18.6283 C.ar    1  UNL1        0.0062
     11 C         -12.4777   -7.6664   17.8632 C.ar    1  UNL1        0.0368
     12 C         -13.9726   -7.7275   17.9706 C.ar    1  UNL1        0.1392
     13 C         -14.7024   -6.7497   18.8432 C.ar    1  UNL1        0.0636
     14 C         -13.9890   -3.4697   20.9215 C.3     1  UNL1        0.2525
     15 O         -14.6670   -4.7330   20.4808 O.3     1  UNL1       -0.4716
     16 O         -14.7377   -8.7664   17.2056 O.3     1  UNL1       -0.4716
     17 C         -15.1710  -10.0311   17.8858 C.3     1  UNL1        0.2525
     18 C         -16.4074   -5.1192   16.9899 C.3     1  UNL1        0.1395
     19 C         -15.8825   -3.7674   17.3736 C.ar    1  UNL1        0.0790
     20 C         -16.7850   -2.7753   18.0452 C.ar    1  UNL1        0.0165
     21 C         -16.2601   -1.4236   18.4289 C.ar    1  UNL1        0.0028
     22 C         -14.8326   -1.0639   18.1410 C.ar    1  UNL1        0.0177
     23 C         -14.3077    0.2878   18.5247 C.ar    1  UNL1        0.0015
     24 C         -12.8802    0.6475   18.2367 C.ar    1  UNL1        0.0001
     25 C         -11.9777   -0.3447   17.5651 C.ar    1  UNL1        0.0015
     26 C         -12.5026   -1.6964   17.1814 C.ar    1  UNL1        0.0191
     27 C         -13.9300   -2.0560   17.4693 C.ar    1  UNL1        0.0809
     28 N         -14.4550   -3.4078   17.0857 N.ar    1  UNL1       -0.2480
@<TRIPOS>BOND
     1    14    15    1
     2    15     8    1
     3     8     9   ar
     4     9    10   ar
     5    10    11   ar
     6    11    12   ar
     7    12    16    1
     8    16    17    1
     9    12    13   ar
    10    13     1    1
    11     1     2    1
    12     2     3    1
    13     3     4    1
    14     4     5    1
    15     5     6    2
    16     5     7   am
    17     7    18    1
    18    18    19    1
    19    19    20   ar
    20    20    21   ar
    21    21    22   ar
    22    22    23   ar
    23    23    24   ar
    24    24    25   ar
    25    25    26   ar
    26    26    27   ar
    27    27    28   ar
    28    13     8   ar
    29     7     1    1
    30    28    19   ar
    31    27    22   ar
@<TRIPOS>MOLECULE
*****
 28 31 0 0 0
SMALL
GASTEIGER

@<TRIPOS>ATOM
      1 C           5.6952   -0.9090   20.0046 C.3     1  UNL1        0.1041
      2 C           7.1139   -0.4702   19.7935 C.3     1  UNL1        0.0251
      3 C           7.5924   -0.1160   18.4166 C.3     1  UNL1        0.0116
      4 C           6.6522   -0.2007   17.2510 C.3     1  UNL1        0.0854
      5 C           5.2335   -0.6395   17.4621 C.2     1  UNL1        0.2261
      6 O           4.2933   -0.7242   16.2965 O.2     1  UNL1       -0.2749
      7 N           4.7549   -0.9937   18.8389 N.am    1  UNL1       -0.2715
      8 C           5.3576   -2.6688   21.8859 C.ar    1  UNL1        0.1392
      9 C           4.8791   -3.0229   23.2627 C.ar    1  UNL1        0.0368
     10 C           4.2596   -1.9716   24.1350 C.ar    1  UNL1        0.0062
     11 C           4.1186   -0.5660   23.6305 C.ar    1  UNL1        0.0368
     12 C           4.5971   -0.2118   22.2536 C.ar    1  UNL1        0.1392
     13 C           5.2167   -1.2632   21.3814 C.ar    1  UNL1        0.0636
     14 C           7.4356   -4.0432   21.1492 C.3     1  UNL1        0.2525
     15 O           5.9772   -3.7201   21.0137 O.3     1  UNL1       -0.4716
     16 O           4.4562    1.1937   21.7491 O.3     1  UNL1       -0.4716
     17 C           3.3030    2.0404   22.2002 C.3     1  UNL1        0.2525
     18 C           3.3362   -1.4325   19.0500 C.3     1  UNL1        0.1395
     19 C           2.2825   -0.4228   19.3967 C.ar    1  UNL1        0.0790
     20 C           1.3044   -0.7074   20.4977 C.ar    1  UNL1        0.0165
     21 C           0.2507    0.3023   20.8444 C.ar    1  UNL1        0.0028
     22 C           0.1752    1.5967   20.0901 C.ar    1  UNL1        0.0177
     23 C          -0.8785    2.6063   20.4368 C.ar    1  UNL1        0.0015
     24 C          -0.9540    3.9007   19.6825 C.ar    1  UNL1        0.0001
     25 C           0.0241    4.1853   18.5815 C.ar    1  UNL1        0.0015
     26 C           1.0778    3.1756   18.2348 C.ar    1  UNL1        0.0191
     27 C           1.1533    1.8813   18.9891 C.ar    1  UNL1        0.0809
     28 N           2.2070    0.8715   18.6424 N.ar    1  UNL1       -0.2480
@<TRIPOS>BOND
     1    14    15    1
     2    15     8    1
     3     8     9   ar
     4     9    10   ar
     5    10    11   ar
     6    11    12   ar
     7    12    16    1
     8    16    17    1
     9    12    13   ar
    10    13     1    1
    11     1     2    1
    12     2     3    1
    13     3     4    1
    14     4     5    1
    15     5     6    2
    16     5     7   am
    17     7    18    1
    18    18    19    1
    19    19    20   ar
    20    20    21   ar
    21    21    22   ar
    22    22    23   ar
    23    23    24   ar
    24    24    25   ar
    25    25    26   ar
    26    26    27   ar
    27    27    28   ar
    28    13     8   ar
    29     7     1    1
    30    28    19   ar
    31    27    22   ar
