@<TRIPOS>MOLECULE
*****
 33 37 0 0 0
SMALL
GASTEIGER

@<TRIPOS>ATOM
      1 C          -4.9191  -15.8753   24.0028 C.ar    1  UNL1        0.0519
      2 C          -4.4313  -15.3496   25.3203 C.ar    1  UNL1        0.0148
      3 C          -5.3830  -15.2113   26.4714 C.ar    1  UNL1        0.0044
      4 C          -6.8226  -15.5987   26.3050 C.ar    1  UNL1        0.0402
      5 C          -7.9849  -15.5731   27.2528 C.ar    1  UNL1        0.1235
      6 N          -9.1910  -16.0829   26.5211 N.ar    1  UNL1       -0.1468
      7 N          -8.7741  -16.4236   25.1211 N.ar    1  UNL1       -0.1274
      8 C          -7.3103  -16.1244   24.9875 C.ar    1  UNL1        0.1053
      9 C          -6.3586  -16.2627   23.8364 C.ar    1  UNL1        0.0354
     10 O          -3.9828  -18.5946   23.1488 O.2     1  UNL1       -0.2748
     11 C          -3.4991  -17.3731   22.4248 C.2     1  UNL1        0.2257
     12 N          -3.9673  -16.0136   22.8518 N.am    1  UNL1       -0.2839
     13 H          -3.6498  -15.2119   22.3766 H       1  UNL1        0.1549
     14 C          -2.5473  -17.5113   21.2737 C.3     1  UNL1        0.0796
     15 C          -1.2416  -16.7730   21.2873 C.3     1  UNL1        0.0262
     16 C          -0.2898  -16.9111   20.1363 C.3     1  UNL1        0.0691
     17 N          -0.6436  -17.7877   18.9716 N.3     1  UNL1       -0.2974
     18 C          -1.9492  -18.5260   18.9580 C.3     1  UNL1        0.0691
     19 C          -2.9011  -18.3879   20.1090 C.3     1  UNL1        0.0262
     20 H           0.0925  -18.4898   18.8972 H       1  UNL1        0.1232
     21 S          -9.6646  -16.9680   24.0437 S.O2    1  UNL1        0.1006
     22 O          -9.7886  -18.2585   24.7983 O.2     1  UNL1       -0.1463
     23 O          -9.5407  -15.6775   23.2892 O.2     1  UNL1       -0.1463
     24 C         -10.5551  -17.5124   22.9664 C.ar    1  UNL1        0.1291
     25 C         -12.0414  -17.3331   23.0601 C.ar    1  UNL1        0.0204
     26 C         -12.9319  -17.8774   21.9827 C.ar    1  UNL1        0.0014
     27 C         -12.3362  -18.6011   20.8117 C.ar    1  UNL1        0.0001
     28 C         -10.8498  -18.7805   20.7180 C.ar    1  UNL1        0.0013
     29 C         -10.2541  -19.5042   19.5470 C.ar    1  UNL1        0.0000
     30 C          -8.7678  -19.6835   19.4533 C.ar    1  UNL1        0.0000
     31 C          -7.8773  -19.1391   20.5306 C.ar    1  UNL1        0.0000
     32 C          -8.4731  -18.4154   21.7017 C.ar    1  UNL1        0.0013
     33 C          -9.9593  -18.2361   21.7953 C.ar    1  UNL1        0.0191
@<TRIPOS>BOND
     1    10    11    2
     2    11    12   am
     3    12     1    1
     4     1     2   ar
     5     2     3   ar
     6     3     4   ar
     7     4     5   ar
     8     5     6   ar
     9     6     7   ar
    10     7    21    1
    11    21    22    2
    12    21    23    2
    13    21    24    1
    14    24    25   ar
    15    25    26   ar
    16    26    27   ar
    17    27    28   ar
    18    28    29   ar
    19    29    30   ar
    20    30    31   ar
    21    31    32   ar
    22    32    33   ar
    23     7     8   ar
    24     8     9   ar
    25    11    14    1
    26    14    15    1
    27    15    16    1
    28    16    17    1
    29    17    18    1
    30    18    19    1
    31     9     1   ar
    32    19    14    1
    33     8     4   ar
    34    33    24   ar
    35    33    28   ar
    36    12    13    1
    37    17    20    1
@<TRIPOS>MOLECULE
*****
 33 37 0 0 0
SMALL
GASTEIGER

@<TRIPOS>ATOM
      1 C          -7.3818  -19.0182   19.8162 C.ar    1  UNL1        0.0519
      2 C          -8.3431  -19.7010   18.8891 C.ar    1  UNL1        0.0148
      3 C          -9.7558  -19.9527   19.3258 C.ar    1  UNL1        0.0044
      4 C         -10.2073  -19.5215   20.6897 C.ar    1  UNL1        0.0402
      5 C         -11.5279  -19.6340   21.3920 C.ar    1  UNL1        0.1235
      6 N         -11.3828  -19.0207   22.7532 N.ar    1  UNL1       -0.1468
      7 N          -9.9724  -18.5292   22.8922 N.ar    1  UNL1       -0.1274
      8 C          -9.2459  -18.8387   21.6169 C.ar    1  UNL1        0.1053
      9 C          -7.8332  -18.5870   21.1801 C.ar    1  UNL1        0.0354
     10 O          -5.1392  -19.2258   21.7982 O.2     1  UNL1       -0.2748
     11 C          -4.8478  -18.8703   20.3703 C.2     1  UNL1        0.2257
     12 N          -5.9690  -18.7665   19.3794 N.am    1  UNL1       -0.2839
     13 H          -5.7777  -18.5333   18.4423 H       1  UNL1        0.1549
     14 C          -3.4350  -18.6187   19.9334 C.3     1  UNL1        0.0796
     15 C          -2.2929  -19.1774   20.7293 C.3     1  UNL1        0.0262
     16 C          -0.8802  -18.9258   20.2925 C.3     1  UNL1        0.0691
     17 N          -0.6096  -18.1154   19.0596 N.3     1  UNL1       -0.2974
     18 C          -1.7516  -17.5566   18.2637 C.3     1  UNL1        0.0691
     19 C          -3.1643  -17.8082   18.7005 C.3     1  UNL1        0.0262
     20 H          -0.0737  -18.7104   18.4278 H       1  UNL1        0.1232
     21 S          -9.3908  -17.8477   24.0952 S.O2    1  UNL1        0.1006
     22 O          -8.8600  -19.1630   24.5836 O.2     1  UNL1       -0.1463
     23 O          -9.9215  -16.5325   23.6069 O.2     1  UNL1       -0.1463
     24 C          -8.8091  -17.1663   25.2983 C.ar    1  UNL1        0.1291
     25 C          -9.4904  -17.2838   26.6294 C.ar    1  UNL1        0.0204
     26 C          -8.9087  -16.6023   27.8324 C.ar    1  UNL1        0.0014
     27 C          -7.6457  -15.8035   27.7043 C.ar    1  UNL1        0.0001
     28 C          -6.9643  -15.6860   26.3732 C.ar    1  UNL1        0.0013
     29 C          -5.7012  -14.8871   26.2451 C.ar    1  UNL1        0.0000
     30 C          -5.0199  -14.7696   24.9140 C.ar    1  UNL1        0.0000
     31 C          -5.6016  -15.4510   23.7109 C.ar    1  UNL1        0.0000
     32 C          -6.8646  -16.2499   23.8390 C.ar    1  UNL1        0.0013
     33 C          -7.5459  -16.3674   25.1701 C.ar    1  UNL1        0.0191
@<TRIPOS>BOND
     1    10    11    2
     2    11    12   am
     3    12     1    1
     4     1     2   ar
     5     2     3   ar
     6     3     4   ar
     7     4     5   ar
     8     5     6   ar
     9     6     7   ar
    10     7    21    1
    11    21    22    2
    12    21    23    2
    13    21    24    1
    14    24    25   ar
    15    25    26   ar
    16    26    27   ar
    17    27    28   ar
    18    28    29   ar
    19    29    30   ar
    20    30    31   ar
    21    31    32   ar
    22    32    33   ar
    23     7     8   ar
    24     8     9   ar
    25    11    14    1
    26    14    15    1
    27    15    16    1
    28    16    17    1
    29    17    18    1
    30    18    19    1
    31     9     1   ar
    32    19    14    1
    33     8     4   ar
    34    33    24   ar
    35    33    28   ar
    36    12    13    1
    37    17    20    1
@<TRIPOS>MOLECULE
*****
 33 37 0 0 0
SMALL
GASTEIGER

@<TRIPOS>ATOM
      1 C         -17.0390   -4.5269   19.5469 C.ar    1  UNL1        0.0519
      2 C         -18.0702   -3.5399   20.0081 C.ar    1  UNL1        0.0148
      3 C         -17.7652   -2.0714   19.9867 C.ar    1  UNL1        0.0044
      4 C         -16.4291   -1.5898   19.5041 C.ar    1  UNL1        0.0402
      5 C         -15.8466   -0.2141   19.3699 C.ar    1  UNL1        0.1235
      6 N         -14.4555   -0.3508   18.8258 N.ar    1  UNL1       -0.1468
      7 N         -14.1782   -1.8110   18.6237 N.ar    1  UNL1       -0.1274
      8 C         -15.3980   -2.5768   19.0429 C.ar    1  UNL1        0.1053
      9 C         -15.7029   -4.0453   19.0643 C.ar    1  UNL1        0.0354
     10 O         -17.1811   -6.0671   16.9763 O.2     1  UNL1       -0.2748
     11 C         -17.4151   -6.7654   18.2830 C.2     1  UNL1        0.2257
     12 N         -17.3441   -5.9953   19.5683 N.am    1  UNL1       -0.2839
     13 H         -17.4976   -6.4537   20.4259 H       1  UNL1        0.1549
     14 C         -17.7202   -8.2340   18.3045 C.3     1  UNL1        0.0796
     15 C         -18.8439   -8.7788   17.4735 C.3     1  UNL1        0.0262
     16 C         -19.1490  -10.2473   17.4949 C.3     1  UNL1        0.0691
     17 N         -18.3303  -11.1710   18.3474 N.3     1  UNL1       -0.2974
     18 C         -17.2066  -10.6261   19.1784 C.3     1  UNL1        0.0691
     19 C         -16.9015   -9.1577   19.1569 C.3     1  UNL1        0.0262
     20 H         -17.9235  -11.8661   17.7216 H       1  UNL1        0.1232
     21 S         -12.9048   -2.4017   18.0951 S.O2    1  UNL1        0.1006
     22 O         -13.5954   -2.7378   16.8067 O.2     1  UNL1       -0.1463
     23 O         -12.2141   -2.0657   19.3835 O.2     1  UNL1       -0.1463
     24 C         -11.6313   -2.9925   17.5666 C.ar    1  UNL1        0.1291
     25 C         -10.7338   -2.1744   16.6862 C.ar    1  UNL1        0.0204
     26 C          -9.4603   -2.7651   16.1576 C.ar    1  UNL1        0.0014
     27 C          -9.0844   -4.1739   16.5095 C.ar    1  UNL1        0.0001
     28 C          -9.9820   -4.9921   17.3899 C.ar    1  UNL1        0.0013
     29 C          -9.6060   -6.4009   17.7417 C.ar    1  UNL1        0.0000
     30 C         -10.5036   -7.2190   18.6221 C.ar    1  UNL1        0.0000
     31 C         -11.7770   -6.6283   19.1506 C.ar    1  UNL1        0.0000
     32 C         -12.1529   -5.2195   18.7988 C.ar    1  UNL1        0.0013
     33 C         -11.2554   -4.4014   17.9184 C.ar    1  UNL1        0.0191
@<TRIPOS>BOND
     1    10    11    2
     2    11    12   am
     3    12     1    1
     4     1     2   ar
     5     2     3   ar
     6     3     4   ar
     7     4     5   ar
     8     5     6   ar
     9     6     7   ar
    10     7    21    1
    11    21    22    2
    12    21    23    2
    13    21    24    1
    14    24    25   ar
    15    25    26   ar
    16    26    27   ar
    17    27    28   ar
    18    28    29   ar
    19    29    30   ar
    20    30    31   ar
    21    31    32   ar
    22    32    33   ar
    23     7     8   ar
    24     8     9   ar
    25    11    14    1
    26    14    15    1
    27    15    16    1
    28    16    17    1
    29    17    18    1
    30    18    19    1
    31     9     1   ar
    32    19    14    1
    33     8     4   ar
    34    33    24   ar
    35    33    28   ar
    36    12    13    1
    37    17    20    1
@<TRIPOS>MOLECULE
*****
 33 37 0 0 0
SMALL
GASTEIGER

@<TRIPOS>ATOM
      1 C           7.5808   -5.6147   25.6433 C.ar    1  UNL1        0.0519
      2 C           8.7257   -6.5044   25.2592 C.ar    1  UNL1        0.0148
      3 C           9.1939   -6.5515   23.8349 C.ar    1  UNL1        0.0044
      4 C           8.5172   -5.7089   22.7947 C.ar    1  UNL1        0.0402
      5 C           8.7565   -5.5469   21.3228 C.ar    1  UNL1        0.1235
      6 N           7.7594   -4.5572   20.7973 N.ar    1  UNL1       -0.1468
      7 N           6.9039   -4.1073   21.9443 N.ar    1  UNL1       -0.1274
      8 C           7.3722   -4.8191   23.1788 C.ar    1  UNL1        0.1053
      9 C           6.9040   -4.7721   24.6031 C.ar    1  UNL1        0.0354
     10 O           8.9517   -3.8159   27.6143 O.2     1  UNL1       -0.2748
     11 C           7.7980   -4.6683   28.0531 C.2     1  UNL1        0.2257
     12 N           7.1126   -5.5677   27.0675 N.am    1  UNL1       -0.2839
     13 H           6.3555   -6.1272   27.3555 H       1  UNL1        0.1549
     14 C           7.3298   -4.6213   29.4774 C.3     1  UNL1        0.0796
     15 C           7.4160   -5.8483   30.3361 C.3     1  UNL1        0.0262
     16 C           6.9478   -5.8014   31.7603 C.3     1  UNL1        0.0691
     17 N           6.3934   -4.5275   32.3259 N.3     1  UNL1       -0.2974
     18 C           6.3073   -3.3006   31.4673 C.3     1  UNL1        0.0691
     19 C           6.7755   -3.3475   30.0431 C.3     1  UNL1        0.0262
     20 H           6.9737   -4.2848   33.1289 H       1  UNL1        0.1232
     21 S           5.7778   -3.1192   21.8700 S.O2    1  UNL1        0.1006
     22 O           6.7593   -1.9915   21.9920 O.2     1  UNL1       -0.1463
     23 O           4.7963   -4.2470   21.7479 O.2     1  UNL1       -0.1463
     24 C           4.6517   -2.1311   21.7956 C.ar    1  UNL1        0.1291
     25 C           3.9645   -1.6813   23.0507 C.ar    1  UNL1        0.0204
     26 C           2.8384   -0.6932   22.9763 C.ar    1  UNL1        0.0014
     27 C           2.3995   -0.1549   21.6469 C.ar    1  UNL1        0.0001
     28 C           3.0867   -0.6047   20.3917 C.ar    1  UNL1        0.0013
     29 C           2.6478   -0.0664   19.0622 C.ar    1  UNL1        0.0000
     30 C           3.3351   -0.5162   17.8071 C.ar    1  UNL1        0.0000
     31 C           4.4612   -1.5043   17.8814 C.ar    1  UNL1        0.0000
     32 C           4.9001   -2.0426   19.2109 C.ar    1  UNL1        0.0013
     33 C           4.2128   -1.5928   20.4660 C.ar    1  UNL1        0.0191
@<TRIPOS>BOND
     1    10    11    2
     2    11    12   am
     3    12     1    1
     4     1     2   ar
     5     2     3   ar
     6     3     4   ar
     7     4     5   ar
     8     5     6   ar
     9     6     7   ar
    10     7    21    1
    11    21    22    2
    12    21    23    2
    13    21    24    1
    14    24    25   ar
    15    25    26   ar
    16    26    27   ar
    17    27    28   ar
    18    28    29   ar
    19    29    30   ar
    20    30    31   ar
    21    31    32   ar
    22    32    33   ar
    23     7     8   ar
    24     8     9   ar
    25    11    14    1
    26    14    15    1
    27    15    16    1
    28    16    17    1
    29    17    18    1
    30    18    19    1
    31     9     1   ar
    32    19    14    1
    33     8     4   ar
    34    33    24   ar
    35    33    28   ar
    36    12    13    1
    37    17    20    1
@<TRIPOS>MOLECULE
*****
 33 37 0 0 0
SMALL
GASTEIGER

@<TRIPOS>ATOM
      1 C           7.5506   -5.5665   25.6364 C.ar    1  UNL1        0.0519
      2 C           8.7254   -6.4205   25.2614 C.ar    1  UNL1        0.0148
      3 C           9.1940   -6.4678   23.8373 C.ar    1  UNL1        0.0044
      4 C           8.4879   -5.6612   22.7881 C.ar    1  UNL1        0.0402
      5 C           8.7204   -5.5081   21.3142 C.ar    1  UNL1        0.1235
      6 N           7.6894   -4.5596   20.7783 N.ar    1  UNL1       -0.1468
      7 N           6.8196   -4.1264   21.9210 N.ar    1  UNL1       -0.1274
      8 C           7.3131   -4.8072   23.1632 C.ar    1  UNL1        0.1053
      9 C           6.8445   -4.7599   24.5873 C.ar    1  UNL1        0.0354
     10 O           8.9946   -3.8572   27.6347 O.2     1  UNL1       -0.2748
     11 C           7.8041   -4.6646   28.0597 C.2     1  UNL1        0.2257
     12 N           7.0821   -5.5193   27.0605 N.am    1  UNL1       -0.2839
     13 H           6.3007   -6.0492   27.3395 H       1  UNL1        0.1549
     14 C           7.3354   -4.6174   29.4839 C.3     1  UNL1        0.0796
     15 C           6.7806   -3.3435   30.0490 C.3     1  UNL1        0.0262
     16 C           6.3120   -3.2962   31.4731 C.3     1  UNL1        0.0691
     17 N           6.3983   -4.5229   32.3321 N.3     1  UNL1       -0.2974
     18 C           6.9531   -5.7968   31.7670 C.3     1  UNL1        0.0691
     19 C           7.4217   -5.8440   30.3429 C.3     1  UNL1        0.0262
     20 H           5.4503   -4.7289   32.6473 H       1  UNL1        0.1232
     21 S           5.6599   -3.1787   21.8365 S.O2    1  UNL1        0.1006
     22 O           6.6113   -2.0226   21.7456 O.2     1  UNL1       -0.1463
     23 O           4.7085   -4.3348   21.9274 O.2     1  UNL1       -0.1463
     24 C           4.5003   -2.2311   21.7519 C.ar    1  UNL1        0.1291
     25 C           3.8333   -1.9778   20.4325 C.ar    1  UNL1        0.0204
     26 C           2.6737   -1.0302   20.3479 C.ar    1  UNL1        0.0014
     27 C           2.1809   -0.3358   21.5828 C.ar    1  UNL1        0.0001
     28 C           2.8479   -0.5890   22.9023 C.ar    1  UNL1        0.0013
     29 C           2.3551    0.1053   24.1372 C.ar    1  UNL1        0.0000
     30 C           3.0221   -0.1479   25.4567 C.ar    1  UNL1        0.0000
     31 C           4.1817   -1.0956   25.5412 C.ar    1  UNL1        0.0000
     32 C           4.6745   -1.7899   24.3063 C.ar    1  UNL1        0.0013
     33 C           4.0075   -1.5367   22.9869 C.ar    1  UNL1        0.0191
@<TRIPOS>BOND
     1    10    11    2
     2    11    12   am
     3    12     1    1
     4     1     2   ar
     5     2     3   ar
     6     3     4   ar
     7     4     5   ar
     8     5     6   ar
     9     6     7   ar
    10     7    21    1
    11    21    22    2
    12    21    23    2
    13    21    24    1
    14    24    25   ar
    15    25    26   ar
    16    26    27   ar
    17    27    28   ar
    18    28    29   ar
    19    29    30   ar
    20    30    31   ar
    21    31    32   ar
    22    32    33   ar
    23     7     8   ar
    24     8     9   ar
    25    11    14    1
    26    14    15    1
    27    15    16    1
    28    16    17    1
    29    17    18    1
    30    18    19    1
    31     9     1   ar
    32    19    14    1
    33     8     4   ar
    34    33    24   ar
    35    33    28   ar
    36    12    13    1
    37    17    20    1
@<TRIPOS>MOLECULE
*****
 33 37 0 0 0
SMALL
GASTEIGER

@<TRIPOS>ATOM
      1 C         -18.2365   -4.1373   19.1793 C.ar    1  UNL1        0.0519
      2 C         -19.3074   -5.1628   19.4062 C.ar    1  UNL1        0.0148
      3 C         -18.9380   -6.6049   19.5899 C.ar    1  UNL1        0.0044
      4 C         -17.4977   -7.0215   19.5469 C.ar    1  UNL1        0.0402
      5 C         -16.8349   -8.3590   19.6942 C.ar    1  UNL1        0.1235
      6 N         -15.3543   -8.1601   19.5585 N.ar    1  UNL1       -0.1468
      7 N         -15.1021   -6.6997   19.3272 N.ar    1  UNL1       -0.1274
      8 C         -16.4267   -5.9960   19.3201 C.ar    1  UNL1        0.1053
      9 C         -16.7961   -4.5539   19.1363 C.ar    1  UNL1        0.0354
     10 O         -19.3429   -2.5668   21.4837 O.2     1  UNL1       -0.2748
     11 C         -19.1592   -1.9099   20.1477 C.2     1  UNL1        0.2257
     12 N         -18.6060   -2.6952   18.9956 N.am    1  UNL1       -0.2839
     13 H         -18.4854   -2.2640   18.1188 H       1  UNL1        0.1549
     14 C         -19.5287   -0.4677   19.9639 C.3     1  UNL1        0.0796
     15 C         -20.0933    0.3141   21.1127 C.3     1  UNL1        0.0262
     16 C         -20.4628    1.7562   20.9289 C.3     1  UNL1        0.0691
     17 N         -20.2676    2.4164   19.5963 N.3     1  UNL1       -0.2974
     18 C         -19.7030    1.6345   18.4474 C.3     1  UNL1        0.0691
     19 C         -19.3335    0.1925   18.6312 C.3     1  UNL1        0.0262
     20 H         -19.6431    3.2084   19.7486 H       1  UNL1        0.1232
     21 S         -13.7607   -6.0559   19.1366 S.O2    1  UNL1        0.1006
     22 O         -13.7482   -5.6541   20.5817 O.2     1  UNL1       -0.1463
     23 O         -13.7732   -6.4578   17.6915 O.2     1  UNL1       -0.1463
     24 C         -12.4193   -5.4122   18.9460 C.ar    1  UNL1        0.1291
     25 C         -11.1831   -6.2593   18.8828 C.ar    1  UNL1        0.0204
     26 C          -9.8417   -5.6156   18.6922 C.ar    1  UNL1        0.0014
     27 C          -9.7366   -4.1248   18.5647 C.ar    1  UNL1        0.0001
     28 C         -10.9728   -3.2776   18.6279 C.ar    1  UNL1        0.0013
     29 C         -10.8677   -1.7867   18.5005 C.ar    1  UNL1        0.0000
     30 C         -12.1040   -0.9396   18.5636 C.ar    1  UNL1        0.0000
     31 C         -13.4453   -1.5833   18.7542 C.ar    1  UNL1        0.0000
     32 C         -13.5505   -3.0742   18.8817 C.ar    1  UNL1        0.0013
     33 C         -12.3142   -3.9213   18.8185 C.ar    1  UNL1        0.0191
@<TRIPOS>BOND
     1    10    11    2
     2    11    12   am
     3    12     1    1
     4     1     2   ar
     5     2     3   ar
     6     3     4   ar
     7     4     5   ar
     8     5     6   ar
     9     6     7   ar
    10     7    21    1
    11    21    22    2
    12    21    23    2
    13    21    24    1
    14    24    25   ar
    15    25    26   ar
    16    26    27   ar
    17    27    28   ar
    18    28    29   ar
    19    29    30   ar
    20    30    31   ar
    21    31    32   ar
    22    32    33   ar
    23     7     8   ar
    24     8     9   ar
    25    11    14    1
    26    14    15    1
    27    15    16    1
    28    16    17    1
    29    17    18    1
    30    18    19    1
    31     9     1   ar
    32    19    14    1
    33     8     4   ar
    34    33    24   ar
    35    33    28   ar
    36    12    13    1
    37    17    20    1
@<TRIPOS>MOLECULE
*****
 33 37 0 0 0
SMALL
GASTEIGER

@<TRIPOS>ATOM
      1 C           0.6726    1.0240   19.6743 C.ar    1  UNL1        0.0519
      2 C           0.8250    1.5171   18.2659 C.ar    1  UNL1        0.0148
      3 C           0.2050    2.8201   17.8562 C.ar    1  UNL1        0.0044
      4 C          -0.5673    3.6300   18.8550 C.ar    1  UNL1        0.0402
      5 C          -1.2847    4.9425   18.7432 C.ar    1  UNL1        0.1235
      6 N          -1.8805    5.2606   20.0826 N.ar    1  UNL1       -0.1468
      7 N          -1.5313    4.1447   21.0221 N.ar    1  UNL1       -0.1274
      8 C          -0.7197    3.1369   20.2634 C.ar    1  UNL1        0.1053
      9 C          -0.0997    1.8339   20.6730 C.ar    1  UNL1        0.0354
     10 O           3.6044    0.8875   20.2957 O.2     1  UNL1       -0.2748
     11 C           2.7585   -0.3473   20.3945 C.2     1  UNL1        0.2257
     12 N           1.2926   -0.2790   20.0838 N.am    1  UNL1       -0.2839
     13 H           0.7374   -1.0894   20.1487 H       1  UNL1        0.1549
     14 C           3.3784   -1.6504   20.8041 C.3     1  UNL1        0.0796
     15 C           3.8619   -1.8415   22.2112 C.3     1  UNL1        0.0262
     16 C           4.4818   -3.1445   22.6208 C.3     1  UNL1        0.0691
     17 N           4.6183   -4.2565   21.6233 N.3     1  UNL1       -0.2974
     18 C           4.1348   -4.0654   20.2163 C.3     1  UNL1        0.0691
     19 C           3.5149   -2.7624   19.8066 C.3     1  UNL1        0.0262
     20 H           4.1115   -5.0562   22.0027 H       1  UNL1        0.1232
     21 S          -1.9246    4.0526   22.4667 S.O2    1  UNL1        0.1006
     22 O          -3.0254    3.0996   22.1063 O.2     1  UNL1       -0.1463
     23 O          -0.8238    5.0057   22.8271 O.2     1  UNL1       -0.1463
     24 C          -2.3179    3.9606   23.9113 C.ar    1  UNL1        0.1291
     25 C          -3.4819    4.7558   24.4238 C.ar    1  UNL1        0.0204
     26 C          -3.8753    4.6638   25.8684 C.ar    1  UNL1        0.0014
     27 C          -3.1046    3.7766   26.8005 C.ar    1  UNL1        0.0001
     28 C          -1.9405    2.9813   26.2880 C.ar    1  UNL1        0.0013
     29 C          -1.1698    2.0941   27.2201 C.ar    1  UNL1        0.0000
     30 C          -0.0058    1.2989   26.7076 C.ar    1  UNL1        0.0000
     31 C           0.3875    1.3909   25.2630 C.ar    1  UNL1        0.0000
     32 C          -0.3831    2.2782   24.3309 C.ar    1  UNL1        0.0013
     33 C          -1.5472    3.0733   24.8434 C.ar    1  UNL1        0.0191
@<TRIPOS>BOND
     1    10    11    2
     2    11    12   am
     3    12     1    1
     4     1     2   ar
     5     2     3   ar
     6     3     4   ar
     7     4     5   ar
     8     5     6   ar
     9     6     7   ar
    10     7    21    1
    11    21    22    2
    12    21    23    2
    13    21    24    1
    14    24    25   ar
    15    25    26   ar
    16    26    27   ar
    17    27    28   ar
    18    28    29   ar
    19    29    30   ar
    20    30    31   ar
    21    31    32   ar
    22    32    33   ar
    23     7     8   ar
    24     8     9   ar
    25    11    14    1
    26    14    15    1
    27    15    16    1
    28    16    17    1
    29    17    18    1
    30    18    19    1
    31     9     1   ar
    32    19    14    1
    33     8     4   ar
    34    33    24   ar
    35    33    28   ar
    36    12    13    1
    37    17    20    1
@<TRIPOS>MOLECULE
*****
 33 37 0 0 0
SMALL
GASTEIGER

@<TRIPOS>ATOM
      1 C          -1.6163    3.2675   21.6439 C.ar    1  UNL1        0.0519
      2 C          -1.8784    3.6282   23.0761 C.ar    1  UNL1        0.0148
      3 C          -0.9871    3.0959   24.1588 C.ar    1  UNL1        0.0044
      4 C           0.1663    2.2030   23.8093 C.ar    1  UNL1        0.0402
      5 C           1.2081    1.5318   24.6544 C.ar    1  UNL1        0.1235
      6 N           2.1141    0.7563   23.7445 N.ar    1  UNL1       -0.1468
      7 N           1.6322    0.9482   22.3370 N.ar    1  UNL1       -0.1274
      8 C           0.4285    1.8423   22.3770 C.ar    1  UNL1        0.1053
      9 C          -0.4628    2.3746   21.2944 C.ar    1  UNL1        0.0354
     10 O          -4.5156    2.4998   21.5751 O.2     1  UNL1       -0.2748
     11 C          -3.9573    3.4160   20.5269 C.2     1  UNL1        0.2257
     12 N          -2.5076    3.7999   20.5613 N.am    1  UNL1       -0.2839
     13 H          -2.1412    4.4012   19.8733 H       1  UNL1        0.1549
     14 C          -4.8486    3.9484   19.4442 C.3     1  UNL1        0.0796
     15 C          -6.3060    4.1760   19.7167 C.3     1  UNL1        0.0262
     16 C          -7.1973    4.7083   18.6342 C.3     1  UNL1        0.0691
     17 N          -6.6313    5.0132   17.2789 N.3     1  UNL1       -0.2974
     18 C          -5.1739    4.7857   17.0064 C.3     1  UNL1        0.0691
     19 C          -4.2825    4.2533   18.0890 C.3     1  UNL1        0.0262
     20 H          -6.8139    6.0004   17.0988 H       1  UNL1        0.1232
     21 S           2.2463    0.3510   21.1057 S.O2    1  UNL1        0.1006
     22 O           3.4683    1.1978   21.3043 O.2     1  UNL1       -0.1463
     23 O           1.0243   -0.4959   20.9070 O.2     1  UNL1       -0.1463
     24 C           2.8604   -0.2463   19.8743 C.ar    1  UNL1        0.1291
     25 C           2.6882    0.4301   18.5467 C.ar    1  UNL1        0.0204
     26 C           3.3022   -0.1672   17.3154 C.ar    1  UNL1        0.0014
     27 C           4.0886   -1.4409   17.4117 C.ar    1  UNL1        0.0001
     28 C           4.2609   -2.1174   18.7394 C.ar    1  UNL1        0.0013
     29 C           5.0472   -3.3911   18.8358 C.ar    1  UNL1        0.0000
     30 C           5.2195   -4.0675   20.1635 C.ar    1  UNL1        0.0000
     31 C           4.6054   -3.4702   21.3948 C.ar    1  UNL1        0.0000
     32 C           3.8191   -2.1965   21.2984 C.ar    1  UNL1        0.0013
     33 C           3.6468   -1.5201   19.9707 C.ar    1  UNL1        0.0191
@<TRIPOS>BOND
     1    10    11    2
     2    11    12   am
     3    12     1    1
     4     1     2   ar
     5     2     3   ar
     6     3     4   ar
     7     4     5   ar
     8     5     6   ar
     9     6     7   ar
    10     7    21    1
    11    21    22    2
    12    21    23    2
    13    21    24    1
    14    24    25   ar
    15    25    26   ar
    16    26    27   ar
    17    27    28   ar
    18    28    29   ar
    19    29    30   ar
    20    30    31   ar
    21    31    32   ar
    22    32    33   ar
    23     7     8   ar
    24     8     9   ar
    25    11    14    1
    26    14    15    1
    27    15    16    1
    28    16    17    1
    29    17    18    1
    30    18    19    1
    31     9     1   ar
    32    19    14    1
    33     8     4   ar
    34    33    24   ar
    35    33    28   ar
    36    12    13    1
    37    17    20    1
@<TRIPOS>MOLECULE
*****
 33 37 0 0 0
SMALL
GASTEIGER

@<TRIPOS>ATOM
      1 C           0.4363    1.4648   25.1340 C.ar    1  UNL1        0.0519
      2 C          -0.6283    2.4793   25.4295 C.ar    1  UNL1        0.0148
      3 C          -1.2743    3.2371   24.3077 C.ar    1  UNL1        0.0044
      4 C          -0.8555    2.9804   22.8904 C.ar    1  UNL1        0.0402
      5 C          -1.3092    3.5690   21.5875 C.ar    1  UNL1        0.1235
      6 N          -0.5250    2.9183   20.4868 N.ar    1  UNL1       -0.1468
      7 N           0.4135    1.9276   21.1094 N.ar    1  UNL1       -0.1274
      8 C           0.2092    1.9659   22.5949 C.ar    1  UNL1        0.1053
      9 C           0.8551    1.2081   23.7167 C.ar    1  UNL1        0.0354
     10 O           2.6192    2.7434   26.7467 O.2     1  UNL1       -0.2748
     11 C           2.1736    1.3463   27.0622 C.2     1  UNL1        0.2257
     12 N           1.0822    0.7070   26.2559 N.am    1  UNL1       -0.2839
     13 H           0.7897   -0.2099   26.4630 H       1  UNL1        0.1549
     14 C           2.8195    0.5884   28.1841 C.3     1  UNL1        0.0796
     15 C           4.2851    0.2736   28.1306 C.3     1  UNL1        0.0262
     16 C           4.9309   -0.4842   29.2524 C.3     1  UNL1        0.0691
     17 N           4.1111   -0.9272   30.4278 N.3     1  UNL1       -0.2974
     18 C           2.6455   -0.6124   30.4814 C.3     1  UNL1        0.0691
     19 C           1.9997    0.1454   29.3596 C.3     1  UNL1        0.0262
     20 H           4.5330   -0.5072   31.2561 H       1  UNL1        0.1232
     21 S           1.3855    1.0521   20.3754 S.O2    1  UNL1        0.1006
     22 O           2.4485    2.0982   20.5355 O.2     1  UNL1       -0.1463
     23 O           0.3225    0.0060   20.2153 O.2     1  UNL1       -0.1463
     24 C           2.3575    0.1767   19.6414 C.ar    1  UNL1        0.1291
     25 C           2.5287    0.3249   18.1586 C.ar    1  UNL1        0.0204
     26 C           3.5007   -0.5505   17.4246 C.ar    1  UNL1        0.0014
     27 C           4.3016   -1.5742   18.1734 C.ar    1  UNL1        0.0001
     28 C           4.1305   -1.7224   19.6563 C.ar    1  UNL1        0.0013
     29 C           4.9314   -2.7460   20.4050 C.ar    1  UNL1        0.0000
     30 C           4.7602   -2.8942   21.8878 C.ar    1  UNL1        0.0000
     31 C           3.7882   -2.0188   22.6218 C.ar    1  UNL1        0.0000
     32 C           2.9873   -0.9952   21.8730 C.ar    1  UNL1        0.0013
     33 C           3.1585   -0.8470   20.3903 C.ar    1  UNL1        0.0191
@<TRIPOS>BOND
     1    10    11    2
     2    11    12   am
     3    12     1    1
     4     1     2   ar
     5     2     3   ar
     6     3     4   ar
     7     4     5   ar
     8     5     6   ar
     9     6     7   ar
    10     7    21    1
    11    21    22    2
    12    21    23    2
    13    21    24    1
    14    24    25   ar
    15    25    26   ar
    16    26    27   ar
    17    27    28   ar
    18    28    29   ar
    19    29    30   ar
    20    30    31   ar
    21    31    32   ar
    22    32    33   ar
    23     7     8   ar
    24     8     9   ar
    25    11    14    1
    26    14    15    1
    27    15    16    1
    28    16    17    1
    29    17    18    1
    30    18    19    1
    31     9     1   ar
    32    19    14    1
    33     8     4   ar
    34    33    24   ar
    35    33    28   ar
    36    12    13    1
    37    17    20    1
