@<TRIPOS>MOLECULE
*****
 37 40 0 0 0
SMALL
GASTEIGER

@<TRIPOS>ATOM
      1 C          -7.5666  -20.1242   20.9026 C.ar    1  UNL1        0.2490
      2 N          -7.2019  -20.2548   19.4536 N.ar    1  UNL1       -0.1863
      3 C          -8.2555  -20.0966   18.3977 C.ar    1  UNL1        0.2225
      4 N          -9.6739  -19.8077   18.7909 N.ar    1  UNL1       -0.1420
      5 N         -10.0386  -19.6770   20.2400 N.ar    1  UNL1       -0.2193
      6 C         -11.3433  -19.3977   20.9254 C.ar    1  UNL1        0.1371
      7 C         -11.0961  -19.3833   22.4048 C.ar    1  UNL1        0.1554
      8 C          -9.6385  -19.6537   22.6337 C.ar    1  UNL1        0.0359
      9 C          -8.9546  -19.7294   23.9666 C.3     1  UNL1        0.0360
     10 C          -8.9850  -19.8352   21.2958 C.ar    1  UNL1        0.1353
     11 O          -6.5129  -20.2824   21.9585 O.3     1  UNL1       -0.4328
     12 C           0.5109  -17.3892   19.9789 C.3     1  UNL1        0.0521
     13 C          -0.8354  -17.7264   20.5479 C.2     1  UNL1        0.0591
     14 C          -1.7141  -18.8639   20.1191 C.2     1  UNL1        0.0182
     15 C          -2.9612  -18.8258   20.9518 C.2     1  UNL1        0.0455
     16 C          -4.1811  -19.6984   20.9729 C.2     1  UNL1        0.1752
     17 F          -4.2890  -20.8595   20.0295 F       1  UNL1       -0.2009
     18 C          -5.2931  -19.4098   21.9374 C.2     1  UNL1        0.1706
     19 C          -5.1851  -18.2487   22.8808 C.2     1  UNL1        0.0201
     20 C          -3.9652  -17.3761   22.8598 C.3     1  UNL1        0.0751
     21 C          -2.8533  -17.6647   21.8953 C.2     1  UNL1        0.0653
     22 N          -1.5395  -16.9852   21.6456 N.2     1  UNL1       -0.2536
     23 O         -12.1256  -19.1410   23.4685 O.3     1  UNL1       -0.4703
     24 C         -12.6023  -17.7464   23.7470 C.3     1  UNL1        0.2486
     25 C         -11.8770  -16.5738   23.1563 C.3     1  UNL1        0.2123
     26 C         -12.4622  -15.8428   21.9844 C.3     1  UNL1        0.0514
     27 O         -10.5666  -16.1322   23.7374 O.3     1  UNL1       -0.4475
     28 C          -9.3388  -16.0953   22.8766 C.2     1  UNL1        0.3311
     29 O          -9.4484  -16.3502   21.4025 O.2     1  UNL1       -0.2486
     30 C          -8.0014  -15.8034   23.4898 C.3     1  UNL1        0.1512
     31 N          -7.0627  -14.8438   22.8204 N.3     1  UNL1       -0.3134
     32 H          -6.2073  -14.7654   23.3704 H       1  UNL1        0.1193
     33 H          -7.5063  -13.9280   22.7492 H       1  UNL1        0.1193
     34 C          -7.6026  -16.4710   24.7725 C.3     1  UNL1        0.0269
     35 C          -7.2314  -15.6415   25.9659 C.3     1  UNL1        0.0019
     36 C          -8.2699  -15.2962   26.9917 C.3     1  UNL1        0.0001
     37 C          -5.8216  -15.1573   26.1335 C.3     1  UNL1        0.0001
@<TRIPOS>BOND
     1    12    13    1
     2    13    14    2
     3    14    15    1
     4    15    16    2
     5    16    17    1
     6    16    18    1
     7    18    11    1
     8    11     1    1
     9     1     2   ar
    10     2     3   ar
    11     3     4   ar
    12     4     5   ar
    13     5     6   ar
    14     6     7   ar
    15     7    23    1
    16    23    24    1
    17    24    25    1
    18    25    26    1
    19    25    27    1
    20    27    28    1
    21    28    29    2
    22    28    30    1
    23    30    31    1
    24    30    34    1
    25    34    35    1
    26    35    36    1
    27    35    37    1
    28     7     8   ar
    29     8     9    1
    30     8    10   ar
    31    18    19    2
    32    19    20    1
    33    20    21    1
    34    21    22    2
    35    22    13    1
    36    21    15    1
    37    10     1   ar
    38    10     5   ar
    39    31    32    1
    40    31    33    1
@<TRIPOS>MOLECULE
*****
 37 40 0 0 0
SMALL
GASTEIGER

@<TRIPOS>ATOM
      1 C          -8.7452  -19.0310   19.9369 C.ar    1  UNL1        0.2490
      2 N          -9.4162  -19.8414   18.8678 N.ar    1  UNL1       -0.1863
      3 C          -8.7984  -21.1265   18.4019 C.ar    1  UNL1        0.2225
      4 N          -7.5096  -21.6010   19.0051 N.ar    1  UNL1       -0.1420
      5 N          -6.8386  -20.7906   20.0741 N.ar    1  UNL1       -0.2193
      6 C          -5.5716  -21.0032   20.8484 C.ar    1  UNL1        0.1371
      7 C          -5.4063  -19.8496   21.7928 C.ar    1  UNL1        0.1554
      8 C          -6.5712  -18.9240   21.6022 C.ar    1  UNL1        0.0359
      9 C          -6.8091  -17.6420   22.3436 C.3     1  UNL1        0.0360
     10 C          -7.4564  -19.5055   20.5400 C.ar    1  UNL1        0.1353
     11 O          -9.3630  -17.7460   20.4028 O.3     1  UNL1       -0.4328
     12 C         -14.4611  -18.6846   26.2978 C.3     1  UNL1        0.0521
     13 C         -13.7183  -18.4223   25.0213 C.2     1  UNL1        0.0591
     14 C         -12.2442  -18.5988   24.8068 C.2     1  UNL1        0.0182
     15 C         -11.9340  -18.2231   23.3881 C.2     1  UNL1        0.0455
     16 C         -10.6496  -18.2003   22.6138 C.2     1  UNL1        0.1752
     17 F          -9.3672  -18.6089   23.2760 F       1  UNL1       -0.2009
     18 C         -10.6474  -17.7688   21.1771 C.2     1  UNL1        0.1706
     19 C         -11.9298  -17.3601   20.5149 C.2     1  UNL1        0.0201
     20 C         -13.2143  -17.3829   21.2893 C.3     1  UNL1        0.0751
     21 C         -13.2164  -17.8144   22.7259 C.2     1  UNL1        0.0653
     22 N         -14.3191  -17.9376   23.7353 N.2     1  UNL1       -0.2536
     23 O          -4.2748  -19.6557   22.7583 O.3     1  UNL1       -0.4703
     24 C          -3.1342  -18.7482   22.4044 C.3     1  UNL1        0.2486
     25 C          -3.1803  -17.2996   22.7912 C.3     1  UNL1        0.2123
     26 C          -2.3434  -16.2987   22.0511 C.3     1  UNL1        0.0514
     27 O          -4.0634  -16.8520   23.9181 O.3     1  UNL1       -0.4475
     28 C          -4.8220  -15.5626   23.8097 C.2     1  UNL1        0.3311
     29 O          -4.4685  -14.5720   22.7403 O.2     1  UNL1       -0.2486
     30 C          -5.9342  -15.2638   24.7708 C.3     1  UNL1        0.1512
     31 N          -7.1090  -14.4435   24.3268 N.3     1  UNL1       -0.3134
     32 H          -7.7638  -14.3399   25.1020 H       1  UNL1        0.1193
     33 H          -7.5747  -14.9100   23.5483 H       1  UNL1        0.1193
     34 C          -5.8717  -15.7851   26.1758 C.3     1  UNL1        0.0269
     35 C          -7.0178  -15.5502   27.1147 C.3     1  UNL1        0.0019
     36 C          -8.1769  -16.5021   27.1362 C.3     1  UNL1        0.0001
     37 C          -7.0048  -14.3635   28.0319 C.3     1  UNL1        0.0001
@<TRIPOS>BOND
     1    12    13    1
     2    13    14    2
     3    14    15    1
     4    15    16    2
     5    16    17    1
     6    16    18    1
     7    18    11    1
     8    11     1    1
     9     1     2   ar
    10     2     3   ar
    11     3     4   ar
    12     4     5   ar
    13     5     6   ar
    14     6     7   ar
    15     7    23    1
    16    23    24    1
    17    24    25    1
    18    25    26    1
    19    25    27    1
    20    27    28    1
    21    28    29    2
    22    28    30    1
    23    30    31    1
    24    30    34    1
    25    34    35    1
    26    35    36    1
    27    35    37    1
    28     7     8   ar
    29     8     9    1
    30     8    10   ar
    31    18    19    2
    32    19    20    1
    33    20    21    1
    34    21    22    2
    35    22    13    1
    36    21    15    1
    37    10     1   ar
    38    10     5   ar
    39    31    32    1
    40    31    33    1
@<TRIPOS>MOLECULE
*****
 37 40 0 0 0
SMALL
GASTEIGER

@<TRIPOS>ATOM
      1 C          -6.4411  -17.7273   23.0230 C.ar    1  UNL1        0.2490
      2 N          -5.6901  -16.4324   23.1188 N.ar    1  UNL1       -0.1863
      3 C          -6.3513  -15.2241   23.7126 C.ar    1  UNL1        0.2225
      4 N          -7.7635  -15.3106   24.2107 N.ar    1  UNL1       -0.1420
      5 N          -8.5145  -16.6055   24.1149 N.ar    1  UNL1       -0.2193
      6 C          -9.9067  -16.9906   24.5193 C.ar    1  UNL1        0.1371
      7 C         -10.1059  -18.4370   24.1754 C.ar    1  UNL1        0.1554
      8 C          -8.8369  -18.9457   23.5584 C.ar    1  UNL1        0.0359
      9 C          -8.5939  -20.3414   23.0654 C.3     1  UNL1        0.0360
     10 C          -7.8533  -17.8138   23.5210 C.ar    1  UNL1        0.1353
     11 O          -5.7799  -18.9357   22.4291 O.3     1  UNL1       -0.4328
     12 C           1.4482  -17.2734   19.8571 C.3     1  UNL1        0.0521
     13 C           0.0169  -17.6659   20.0750 C.2     1  UNL1        0.0591
     14 C          -0.7239  -17.6103   21.3781 C.2     1  UNL1        0.0182
     15 C          -2.1235  -18.0929   21.1366 C.2     1  UNL1        0.0455
     16 C          -3.3009  -18.2558   22.0515 C.2     1  UNL1        0.1752
     17 F          -3.1768  -17.9019   23.5039 F       1  UNL1       -0.2009
     18 C          -4.6025  -18.7727   21.5142 C.2     1  UNL1        0.1706
     19 C          -4.7266  -19.1267   20.0618 C.2     1  UNL1        0.0201
     20 C          -3.5491  -18.9638   19.1469 C.3     1  UNL1        0.0751
     21 C          -2.2476  -18.4469   19.6843 C.2     1  UNL1        0.0653
     22 N          -0.9248  -18.1830   19.0282 N.2     1  UNL1       -0.2536
     23 O         -11.3549  -19.2346   24.4076 O.3     1  UNL1       -0.4703
     24 C         -12.6303  -18.5391   24.7811 C.3     1  UNL1        0.2486
     25 C         -13.6498  -18.2248   23.7267 C.3     1  UNL1        0.2123
     26 C         -15.1103  -18.2354   24.0687 C.3     1  UNL1        0.0514
     27 O         -13.2088  -17.9001   22.3302 O.3     1  UNL1       -0.4475
     28 C         -12.3730  -16.6816   22.0719 C.2     1  UNL1        0.3311
     29 O         -12.6347  -15.4171   22.8349 O.2     1  UNL1       -0.2486
     30 C         -11.2755  -16.7278   21.0505 C.3     1  UNL1        0.1512
     31 N         -10.1441  -15.7453   21.1203 N.3     1  UNL1       -0.3134
     32 H          -9.4939  -15.9204   20.3542 H       1  UNL1        0.1193
     33 H          -9.6570  -15.8502   22.0103 H       1  UNL1        0.1193
     34 C         -11.3092  -17.7564   19.9593 C.3     1  UNL1        0.0269
     35 C         -10.6146  -19.0726   20.1476 C.3     1  UNL1        0.0019
     36 C          -9.3045  -19.3336   19.4653 C.3     1  UNL1        0.0001
     37 C         -11.2302  -20.1277   21.0182 C.3     1  UNL1        0.0001
@<TRIPOS>BOND
     1    12    13    1
     2    13    14    2
     3    14    15    1
     4    15    16    2
     5    16    17    1
     6    16    18    1
     7    18    11    1
     8    11     1    1
     9     1     2   ar
    10     2     3   ar
    11     3     4   ar
    12     4     5   ar
    13     5     6   ar
    14     6     7   ar
    15     7    23    1
    16    23    24    1
    17    24    25    1
    18    25    26    1
    19    25    27    1
    20    27    28    1
    21    28    29    2
    22    28    30    1
    23    30    31    1
    24    30    34    1
    25    34    35    1
    26    35    36    1
    27    35    37    1
    28     7     8   ar
    29     8     9    1
    30     8    10   ar
    31    18    19    2
    32    19    20    1
    33    20    21    1
    34    21    22    2
    35    22    13    1
    36    21    15    1
    37    10     1   ar
    38    10     5   ar
    39    31    32    1
    40    31    33    1
@<TRIPOS>MOLECULE
*****
 37 40 0 0 0
SMALL
GASTEIGER

@<TRIPOS>ATOM
      1 C          -2.3011  -17.4511   22.1750 C.ar    1  UNL1        0.2490
      2 N          -1.1884  -16.5831   21.6666 N.ar    1  UNL1       -0.1863
      3 C          -0.7906  -16.6434   20.2216 C.ar    1  UNL1        0.2225
      4 N          -1.5055  -17.5716   19.2850 N.ar    1  UNL1       -0.1420
      5 N          -2.6181  -18.4396   19.7934 N.ar    1  UNL1       -0.2193
      6 C          -3.4988  -19.4445   19.1117 C.ar    1  UNL1        0.1371
      7 C          -4.4408  -20.0053   20.1354 C.ar    1  UNL1        0.1554
      8 C          -4.1424  -19.3470   21.4498 C.ar    1  UNL1        0.0359
      9 C          -4.8468  -19.6101   22.7477 C.3     1  UNL1        0.0360
     10 C          -3.0159  -18.3793   21.2384 C.ar    1  UNL1        0.1353
     11 O          -2.6989  -17.3908   23.6201 O.3     1  UNL1       -0.4328
     12 C          -8.7440  -14.9161   27.9738 C.3     1  UNL1        0.0521
     13 C          -7.7187  -15.2444   26.9293 C.2     1  UNL1        0.0591
     14 C          -6.4865  -16.0750   27.1338 C.2     1  UNL1        0.0182
     15 C          -5.7518  -16.1438   25.8278 C.2     1  UNL1        0.0455
     16 C          -4.4748  -16.8222   25.4291 C.2     1  UNL1        0.1752
     17 F          -3.6967  -17.6103   26.4408 F       1  UNL1       -0.2009
     18 C          -3.9759  -16.7124   24.0188 C.2     1  UNL1        0.1706
     19 C          -4.7540  -15.9243   23.0071 C.2     1  UNL1        0.0201
     20 C          -6.0310  -15.2459   23.4059 C.3     1  UNL1        0.0751
     21 C          -6.5299  -15.3556   24.8162 C.2     1  UNL1        0.0653
     22 N          -7.7455  -14.7998   25.4970 N.2     1  UNL1       -0.2536
     23 O          -5.4960  -21.0424   19.8882 O.3     1  UNL1       -0.4703
     24 C          -6.8932  -20.8249   20.3887 C.3     1  UNL1        0.2486
     25 C          -7.6642  -19.6127   19.9573 C.3     1  UNL1        0.2123
     26 C          -8.6909  -19.7248   18.8694 C.3     1  UNL1        0.0514
     27 O          -7.4086  -18.2884   20.6138 O.3     1  UNL1       -0.4475
     28 C          -8.2819  -17.8307   21.7442 C.2     1  UNL1        0.3311
     29 O          -7.9424  -18.2098   23.1552 O.2     1  UNL1       -0.2486
     30 C          -9.4947  -16.9939   21.4636 C.3     1  UNL1        0.1512
     31 N          -9.3978  -15.4974   21.4980 N.3     1  UNL1       -0.3134
     32 H         -10.3095  -15.0926   21.2853 H       1  UNL1        0.1193
     33 H          -8.7171  -15.1847   20.8056 H       1  UNL1        0.1193
     34 C         -10.8046  -17.6535   21.1485 C.3     1  UNL1        0.0269
     35 C         -11.4146  -18.6144   22.1256 C.3     1  UNL1        0.0019
     36 C         -11.0142  -20.0598   22.1055 C.3     1  UNL1        0.0001
     37 C         -12.4250  -18.1298   23.1227 C.3     1  UNL1        0.0001
@<TRIPOS>BOND
     1    12    13    1
     2    13    14    2
     3    14    15    1
     4    15    16    2
     5    16    17    1
     6    16    18    1
     7    18    11    1
     8    11     1    1
     9     1     2   ar
    10     2     3   ar
    11     3     4   ar
    12     4     5   ar
    13     5     6   ar
    14     6     7   ar
    15     7    23    1
    16    23    24    1
    17    24    25    1
    18    25    26    1
    19    25    27    1
    20    27    28    1
    21    28    29    2
    22    28    30    1
    23    30    31    1
    24    30    34    1
    25    34    35    1
    26    35    36    1
    27    35    37    1
    28     7     8   ar
    29     8     9    1
    30     8    10   ar
    31    18    19    2
    32    19    20    1
    33    20    21    1
    34    21    22    2
    35    22    13    1
    36    21    15    1
    37    10     1   ar
    38    10     5   ar
    39    31    32    1
    40    31    33    1
@<TRIPOS>MOLECULE
*****
 37 40 0 0 0
SMALL
GASTEIGER

@<TRIPOS>ATOM
      1 C          -3.5076  -17.8319   21.8862 C.ar    1  UNL1        0.2490
      2 N          -2.0343  -18.1029   21.9636 N.ar    1  UNL1       -0.1863
      3 C          -1.4846  -19.4075   21.4676 C.ar    1  UNL1        0.2225
      4 N          -2.4082  -20.4410   20.8943 N.ar    1  UNL1       -0.1420
      5 N          -3.8815  -20.1700   20.8169 N.ar    1  UNL1       -0.2193
      6 C          -5.0277  -20.9919   20.3064 C.ar    1  UNL1        0.1371
      7 C          -6.2859  -20.1953   20.4868 C.ar    1  UNL1        0.1554
      8 C          -5.9171  -18.8811   21.1089 C.ar    1  UNL1        0.0359
      9 C          -6.8675  -17.7764   21.4645 C.3     1  UNL1        0.0360
     10 C          -4.4312  -18.8655   21.3129 C.ar    1  UNL1        0.1353
     11 O          -4.0573  -16.5274   22.3822 O.3     1  UNL1       -0.4328
     12 C          -9.0279  -14.7352   28.1877 C.3     1  UNL1        0.0521
     13 C          -7.9291  -15.2121   27.2849 C.2     1  UNL1        0.0591
     14 C          -7.8284  -14.9604   25.8096 C.2     1  UNL1        0.0182
     15 C          -6.5751  -15.6172   25.3117 C.2     1  UNL1        0.0455
     16 C          -5.9605  -15.7013   23.9460 C.2     1  UNL1        0.1752
     17 F          -6.6344  -15.0437   22.7784 F       1  UNL1       -0.2009
     18 C          -4.6719  -16.4432   23.7479 C.2     1  UNL1        0.1706
     19 C          -3.9979  -17.1008   24.9155 C.2     1  UNL1        0.0201
     20 C          -4.6126  -17.0166   26.2812 C.3     1  UNL1        0.0751
     21 C          -5.9012  -16.2748   26.4793 C.2     1  UNL1        0.0653
     22 N          -6.7380  -16.0244   27.6988 N.2     1  UNL1       -0.2536
     23 O          -7.6697  -20.6355   20.1111 O.3     1  UNL1       -0.4703
     24 C          -8.5424  -19.7405   19.2821 C.3     1  UNL1        0.2486
     25 C          -9.8052  -19.1768   19.8630 C.3     1  UNL1        0.2123
     26 C         -10.6473  -20.0130   20.7805 C.3     1  UNL1        0.0514
     27 O         -10.2260  -17.7770   19.5263 O.3     1  UNL1       -0.4475
     28 C         -11.0855  -17.0022   20.4808 C.2     1  UNL1        0.3311
     29 O         -12.5798  -17.0949   20.3891 O.2     1  UNL1       -0.2486
     30 C         -10.4507  -16.1346   21.5268 C.3     1  UNL1        0.1512
     31 N          -9.3948  -15.1423   21.1386 N.3     1  UNL1       -0.3134
     32 H          -9.0764  -14.6424   21.9687 H       1  UNL1        0.1193
     33 H          -9.7826  -14.4775   20.4692 H       1  UNL1        0.1193
     34 C         -10.8718  -16.2591   22.9611 C.3     1  UNL1        0.0269
     35 C         -10.8035  -17.5900   23.6499 C.3     1  UNL1        0.0019
     36 C         -12.0577  -18.3793   23.8824 C.3     1  UNL1        0.0001
     37 C          -9.4812  -18.1314   24.1062 C.3     1  UNL1        0.0001
@<TRIPOS>BOND
     1    12    13    1
     2    13    14    2
     3    14    15    1
     4    15    16    2
     5    16    17    1
     6    16    18    1
     7    18    11    1
     8    11     1    1
     9     1     2   ar
    10     2     3   ar
    11     3     4   ar
    12     4     5   ar
    13     5     6   ar
    14     6     7   ar
    15     7    23    1
    16    23    24    1
    17    24    25    1
    18    25    26    1
    19    25    27    1
    20    27    28    1
    21    28    29    2
    22    28    30    1
    23    30    31    1
    24    30    34    1
    25    34    35    1
    26    35    36    1
    27    35    37    1
    28     7     8   ar
    29     8     9    1
    30     8    10   ar
    31    18    19    2
    32    19    20    1
    33    20    21    1
    34    21    22    2
    35    22    13    1
    36    21    15    1
    37    10     1   ar
    38    10     5   ar
    39    31    32    1
    40    31    33    1
@<TRIPOS>MOLECULE
*****
 37 40 0 0 0
SMALL
GASTEIGER

@<TRIPOS>ATOM
      1 C         -11.2025  -17.7062   22.3161 C.ar    1  UNL1        0.2490
      2 N         -12.1586  -16.6951   21.7561 N.ar    1  UNL1       -0.1863
      3 C         -12.1532  -16.3909   20.2873 C.ar    1  UNL1        0.2225
      4 N         -11.1918  -17.0977   19.3785 N.ar    1  UNL1       -0.1420
      5 N         -10.2357  -18.1088   19.9384 N.ar    1  UNL1       -0.2193
      6 C          -9.1812  -18.9581   19.2930 C.ar    1  UNL1        0.1371
      7 C          -8.5348  -19.7873   20.3629 C.ar    1  UNL1        0.1554
      8 C          -9.1899  -19.4505   21.6695 C.ar    1  UNL1        0.0359
      9 C          -8.8529  -20.0463   23.0042 C.3     1  UNL1        0.0360
     10 C         -10.2411  -18.4131   21.4072 C.ar    1  UNL1        0.1353
     11 O         -11.2079  -18.0105   23.7849 O.3     1  UNL1       -0.4328
     12 C          -4.7955  -14.1592   26.1664 C.3     1  UNL1        0.0521
     13 C          -6.0232  -15.0005   25.9793 C.2     1  UNL1        0.0591
     14 C          -6.8304  -15.1145   24.7202 C.2     1  UNL1        0.0182
     15 C          -7.9653  -16.0600   24.9812 C.2     1  UNL1        0.0455
     16 C          -9.0815  -16.5534   24.1089 C.2     1  UNL1        0.1752
     17 F          -9.1873  -16.0830   22.6885 F       1  UNL1       -0.2009
     18 C         -10.0918  -17.5172   24.6571 C.2     1  UNL1        0.1706
     19 C          -9.9859  -17.9875   26.0775 C.2     1  UNL1        0.0201
     20 C          -8.8697  -17.4941   26.9498 C.3     1  UNL1        0.0751
     21 C          -7.8595  -16.5303   26.4016 C.2     1  UNL1        0.0653
     22 N          -6.6592  -15.8756   27.0184 N.2     1  UNL1       -0.2536
     23 O          -7.4277  -20.7792   20.1614 O.3     1  UNL1       -0.4703
     24 C          -6.1169  -20.5935   20.8664 C.3     1  UNL1        0.2486
     25 C          -5.3811  -19.2914   20.7511 C.3     1  UNL1        0.2123
     26 C          -4.8519  -18.8444   19.4206 C.3     1  UNL1        0.0514
     27 O          -5.1745  -18.4365   21.9661 O.3     1  UNL1       -0.4475
     28 C          -3.8297  -18.3870   22.6286 C.2     1  UNL1        0.3311
     29 O          -3.7292  -18.1370   24.1041 O.2     1  UNL1       -0.2486
     30 C          -2.5853  -18.5875   21.8154 C.3     1  UNL1        0.1512
     31 N          -2.0421  -19.9697   21.6041 N.3     1  UNL1       -0.3134
     32 H          -1.1987  -19.9199   21.0324 H       1  UNL1        0.1193
     33 H          -2.7412  -20.5409   21.1294 H       1  UNL1        0.1193
     34 C          -1.8840  -17.4060   21.2137 C.3     1  UNL1        0.0269
     35 C          -1.0530  -17.5771   19.9766 C.3     1  UNL1        0.0019
     36 C           0.4423  -17.6359   20.0797 C.3     1  UNL1        0.0001
     37 C          -1.7174  -17.6893   18.6365 C.3     1  UNL1        0.0001
@<TRIPOS>BOND
     1    12    13    1
     2    13    14    2
     3    14    15    1
     4    15    16    2
     5    16    17    1
     6    16    18    1
     7    18    11    1
     8    11     1    1
     9     1     2   ar
    10     2     3   ar
    11     3     4   ar
    12     4     5   ar
    13     5     6   ar
    14     6     7   ar
    15     7    23    1
    16    23    24    1
    17    24    25    1
    18    25    26    1
    19    25    27    1
    20    27    28    1
    21    28    29    2
    22    28    30    1
    23    30    31    1
    24    30    34    1
    25    34    35    1
    26    35    36    1
    27    35    37    1
    28     7     8   ar
    29     8     9    1
    30     8    10   ar
    31    18    19    2
    32    19    20    1
    33    20    21    1
    34    21    22    2
    35    22    13    1
    36    21    15    1
    37    10     1   ar
    38    10     5   ar
    39    31    32    1
    40    31    33    1
@<TRIPOS>MOLECULE
*****
 37 40 0 0 0
SMALL
GASTEIGER

@<TRIPOS>ATOM
      1 C          -0.6676    3.5738   18.6219 C.ar    1  UNL1        0.2490
      2 N          -0.6364    3.8380   17.1457 N.ar    1  UNL1       -0.1863
      3 C          -1.9154    4.0758   16.3991 C.ar    1  UNL1        0.2225
      4 N          -3.2257    4.0495   17.1286 N.ar    1  UNL1       -0.1420
      5 N          -3.2570    3.7853   18.6048 N.ar    1  UNL1       -0.2193
      6 C          -4.3890    3.6993   19.5853 C.ar    1  UNL1        0.1371
      7 C          -3.8095    3.4083   20.9379 C.ar    1  UNL1        0.1554
      8 C          -2.3195    3.3145   20.7934 C.ar    1  UNL1        0.0359
      9 C          -1.3423    3.0365   21.8970 C.3     1  UNL1        0.0360
     10 C          -1.9780    3.5475   19.3515 C.ar    1  UNL1        0.1353
     11 O           0.6114    3.3360   19.3685 O.3     1  UNL1       -0.4328
     12 C           5.5942   -2.6002   18.1214 C.3     1  UNL1        0.0521
     13 C           4.4882   -1.6619   18.5040 C.2     1  UNL1        0.0591
     14 C           4.4033   -0.2073   18.1478 C.2     1  UNL1        0.0182
     15 C           3.1355    0.3401   18.7336 C.2     1  UNL1        0.0455
     16 C           2.5271    1.7108   18.7059 C.2     1  UNL1        0.1752
     17 F           3.2256    2.8271   17.9877 F       1  UNL1       -0.2009
     18 C           1.2199    1.9653   19.3963 C.2     1  UNL1        0.1706
     19 C           0.5213    0.8490   20.1145 C.2     1  UNL1        0.0201
     20 C           1.1299   -0.5218   20.1423 C.3     1  UNL1        0.0751
     21 C           2.4369   -0.7762   19.4518 C.2     1  UNL1        0.0653
     22 N           3.2730   -2.0135   19.3099 N.2     1  UNL1       -0.2536
     23 O          -4.5841    3.2406   22.2114 O.3     1  UNL1       -0.4703
     24 C          -4.7299    4.3949   23.1581 C.3     1  UNL1        0.2486
     25 C          -5.5846    4.2569   24.3831 C.3     1  UNL1        0.2123
     26 C          -6.9620    4.8503   24.4073 C.3     1  UNL1        0.0514
     27 O          -5.0619    3.5254   25.5838 O.3     1  UNL1       -0.4475
     28 C          -4.1978    4.2403   26.5800 C.2     1  UNL1        0.3311
     29 O          -4.8270    4.9965   27.7124 O.2     1  UNL1       -0.2486
     30 C          -2.7046    4.1989   26.4439 C.3     1  UNL1        0.1512
     31 N          -1.8525    5.1421   27.2404 N.3     1  UNL1       -0.3134
     32 H          -0.8693    4.9761   27.0254 H       1  UNL1        0.1193
     33 H          -2.0135    4.9879   28.2357 H       1  UNL1        0.1193
     34 C          -2.0635    3.2144   25.5114 C.3     1  UNL1        0.0269
     35 C          -1.0486    2.2399   26.0316 C.3     1  UNL1        0.0019
     36 C          -0.0093    1.6753   25.1090 C.3     1  UNL1        0.0001
     37 C          -1.0730    1.8301   27.4742 C.3     1  UNL1        0.0001
@<TRIPOS>BOND
     1    12    13    1
     2    13    14    2
     3    14    15    1
     4    15    16    2
     5    16    17    1
     6    16    18    1
     7    18    11    1
     8    11     1    1
     9     1     2   ar
    10     2     3   ar
    11     3     4   ar
    12     4     5   ar
    13     5     6   ar
    14     6     7   ar
    15     7    23    1
    16    23    24    1
    17    24    25    1
    18    25    26    1
    19    25    27    1
    20    27    28    1
    21    28    29    2
    22    28    30    1
    23    30    31    1
    24    30    34    1
    25    34    35    1
    26    35    36    1
    27    35    37    1
    28     7     8   ar
    29     8     9    1
    30     8    10   ar
    31    18    19    2
    32    19    20    1
    33    20    21    1
    34    21    22    2
    35    22    13    1
    36    21    15    1
    37    10     1   ar
    38    10     5   ar
    39    31    32    1
    40    31    33    1
@<TRIPOS>MOLECULE
*****
 37 40 0 0 0
SMALL
GASTEIGER

@<TRIPOS>ATOM
      1 C          -3.5443  -17.8462   21.8727 C.ar    1  UNL1        0.2490
      2 N          -2.0739  -18.1312   21.9537 N.ar    1  UNL1       -0.1863
      3 C          -1.5355  -19.4412   21.4595 C.ar    1  UNL1        0.2225
      4 N          -2.4675  -20.4661   20.8843 N.ar    1  UNL1       -0.1420
      5 N          -3.9379  -20.1811   20.8033 N.ar    1  UNL1       -0.2193
      6 C          -5.0907  -20.9921   20.2903 C.ar    1  UNL1        0.1371
      7 C          -6.3416  -20.1835   20.4674 C.ar    1  UNL1        0.1554
      8 C          -5.9619  -18.8727   21.0899 C.ar    1  UNL1        0.0359
      9 C          -6.9026  -17.7589   21.4429 C.3     1  UNL1        0.0360
     10 C          -4.4763  -18.8712   21.2975 C.ar    1  UNL1        0.1353
     11 O          -4.0828  -16.5363   22.3669 O.3     1  UNL1       -0.4328
     12 C          -8.9983  -14.7017   28.2060 C.3     1  UNL1        0.0521
     13 C          -7.9080  -15.1850   27.2963 C.2     1  UNL1        0.0591
     14 C          -7.8216  -14.9446   25.8182 C.2     1  UNL1        0.0182
     15 C          -6.5728  -15.6047   25.3134 C.2     1  UNL1        0.0455
     16 C          -5.9713  -15.6991   23.9425 C.2     1  UNL1        0.1752
     17 F          -6.6568  -15.0507   22.7764 F       1  UNL1       -0.2009
     18 C          -4.6843  -16.4419   23.7377 C.2     1  UNL1        0.1706
     19 C          -3.9988  -17.0903   24.9038 C.2     1  UNL1        0.0201
     20 C          -4.6004  -16.9958   26.2747 C.3     1  UNL1        0.0751
     21 C          -5.8874  -16.2531   26.4795 C.2     1  UNL1        0.0653
     22 N          -6.7125  -15.9937   27.7050 N.2     1  UNL1       -0.2536
     23 O          -7.7287  -20.6107   20.0886 O.3     1  UNL1       -0.4703
     24 C          -8.6832  -19.6180   19.4942 C.3     1  UNL1        0.2486
     25 C          -9.9678  -19.2977   20.1992 C.3     1  UNL1        0.2123
     26 C         -10.7730  -18.1019   19.7846 C.3     1  UNL1        0.0514
     27 O         -10.4473  -20.1731   21.3189 O.3     1  UNL1       -0.4475
     28 C          -9.9837  -19.9172   22.7223 C.2     1  UNL1        0.3311
     29 O          -8.5766  -20.2516   23.1200 O.2     1  UNL1       -0.2486
     30 C         -10.9271  -19.3268   23.7279 C.3     1  UNL1        0.1512
     31 N         -10.8882  -19.7891   25.1545 N.3     1  UNL1       -0.3134
     32 H         -11.5922  -19.2857   25.6943 H       1  UNL1        0.1193
     33 H          -9.9644  -19.6060   25.5461 H       1  UNL1        0.1193
     34 C         -11.9095  -18.2743   23.3071 C.3     1  UNL1        0.0269
     35 C         -11.4453  -16.8681   23.0676 C.3     1  UNL1        0.0019
     36 C         -10.0637  -16.4539   23.4794 C.3     1  UNL1        0.0001
     37 C         -12.3628  -15.8761   22.4163 C.3     1  UNL1        0.0001
@<TRIPOS>BOND
     1    12    13    1
     2    13    14    2
     3    14    15    1
     4    15    16    2
     5    16    17    1
     6    16    18    1
     7    18    11    1
     8    11     1    1
     9     1     2   ar
    10     2     3   ar
    11     3     4   ar
    12     4     5   ar
    13     5     6   ar
    14     6     7   ar
    15     7    23    1
    16    23    24    1
    17    24    25    1
    18    25    26    1
    19    25    27    1
    20    27    28    1
    21    28    29    2
    22    28    30    1
    23    30    31    1
    24    30    34    1
    25    34    35    1
    26    35    36    1
    27    35    37    1
    28     7     8   ar
    29     8     9    1
    30     8    10   ar
    31    18    19    2
    32    19    20    1
    33    20    21    1
    34    21    22    2
    35    22    13    1
    36    21    15    1
    37    10     1   ar
    38    10     5   ar
    39    31    32    1
    40    31    33    1
@<TRIPOS>MOLECULE
*****
 37 40 0 0 0
SMALL
GASTEIGER

@<TRIPOS>ATOM
      1 C           6.4958   -3.0893   27.7993 C.ar    1  UNL1        0.2490
      2 N           6.5148   -3.9758   29.0091 N.ar    1  UNL1       -0.1863
      3 C           6.7706   -5.4460   28.8577 C.ar    1  UNL1        0.2225
      4 N           7.0076   -6.0297   27.4964 N.ar    1  UNL1       -0.1420
      5 N           6.9887   -5.1432   26.2866 N.ar    1  UNL1       -0.2193
      6 C           7.1875   -5.4313   24.8280 C.ar    1  UNL1        0.1371
      7 C           7.0545   -4.1391   24.0779 C.ar    1  UNL1        0.1554
      8 C           6.7735   -3.0525   25.0730 C.ar    1  UNL1        0.0359
      9 C           6.5690   -1.6001   24.7583 C.3     1  UNL1        0.0360
     10 C           6.7328   -3.6730   26.4380 C.ar    1  UNL1        0.1353
     11 O           6.2399   -1.6190   27.9507 O.3     1  UNL1       -0.4328
     12 C          -1.2379    0.4653   29.1171 C.3     1  UNL1        0.0521
     13 C           0.2240    0.1338   29.1724 C.2     1  UNL1        0.0591
     14 C           1.0576   -0.3697   28.0316 C.2     1  UNL1        0.0182
     15 C           2.4578   -0.5671   28.5323 C.2     1  UNL1        0.0455
     16 C           3.7079   -1.0449   27.8550 C.2     1  UNL1        0.1752
     17 F           3.6762   -1.4265   26.4047 F       1  UNL1       -0.2009
     18 C           4.9898   -1.1412   28.6280 C.2     1  UNL1        0.1706
     19 C           5.0215   -0.7596   30.0783 C.2     1  UNL1        0.0201
     20 C           3.7713   -0.2818   30.7556 C.3     1  UNL1        0.0751
     21 C           2.4894   -0.1855   29.9826 C.2     1  UNL1        0.0653
     22 N           1.1089    0.2477   30.3782 N.2     1  UNL1       -0.2536
     23 O           7.1804   -3.9643   22.5935 O.3     1  UNL1       -0.4703
     24 C           5.9647   -3.6640   21.7679 C.3     1  UNL1        0.2486
     25 C           6.0560   -2.7018   20.6208 C.3     1  UNL1        0.2123
     26 C           6.8581   -1.4419   20.7608 C.3     1  UNL1        0.0514
     27 O           5.3451   -2.9992   19.3339 O.3     1  UNL1       -0.4475
     28 C           5.5679   -2.1260   18.1349 C.2     1  UNL1        0.3311
     29 O           6.8510   -2.2232   17.3642 O.2     1  UNL1       -0.2486
     30 C           4.5074   -1.1555   17.7065 C.3     1  UNL1        0.1512
     31 N           3.7922   -1.3532   16.4028 N.3     1  UNL1       -0.3134
     32 H           3.1098   -0.6063   16.2727 H       1  UNL1        0.1193
     33 H           3.3133   -2.2537   16.4109 H       1  UNL1        0.1193
     34 C           4.1621    0.0128   18.5817 C.3     1  UNL1        0.0269
     35 C           3.4103   -0.2051   19.8613 C.3     1  UNL1        0.0019
     36 C           3.7155    0.6385   21.0634 C.3     1  UNL1        0.0001
     37 C           2.3533   -1.2666   19.9387 C.3     1  UNL1        0.0001
@<TRIPOS>BOND
     1    12    13    1
     2    13    14    2
     3    14    15    1
     4    15    16    2
     5    16    17    1
     6    16    18    1
     7    18    11    1
     8    11     1    1
     9     1     2   ar
    10     2     3   ar
    11     3     4   ar
    12     4     5   ar
    13     5     6   ar
    14     6     7   ar
    15     7    23    1
    16    23    24    1
    17    24    25    1
    18    25    26    1
    19    25    27    1
    20    27    28    1
    21    28    29    2
    22    28    30    1
    23    30    31    1
    24    30    34    1
    25    34    35    1
    26    35    36    1
    27    35    37    1
    28     7     8   ar
    29     8     9    1
    30     8    10   ar
    31    18    19    2
    32    19    20    1
    33    20    21    1
    34    21    22    2
    35    22    13    1
    36    21    15    1
    37    10     1   ar
    38    10     5   ar
    39    31    32    1
    40    31    33    1
