@<TRIPOS>MOLECULE
*****
 44 47 0 0 0
SMALL
GASTEIGER

@<TRIPOS>ATOM
      1 C           4.1427   -2.1299   18.5969 C.3     1  UNL1        0.0678
      2 C           3.7440   -0.9838   17.7153 C.2     1  UNL1        0.1889
      3 O           3.9453   -1.0735   16.2316 O.2     1  UNL1       -0.2898
      4 C           3.1439    0.2521   18.3174 C.ar    1  UNL1        0.0989
      5 C           1.7012    0.6564   18.2462 C.ar    1  UNL1        0.0219
      6 C           1.5469    1.9549   18.9812 C.ar    1  UNL1        0.0185
      7 C           0.3535    2.8261   19.2398 C.ar    1  UNL1        0.0129
      8 C           0.5076    4.0955   20.0240 C.ar    1  UNL1        0.0578
      9 CL         -0.6858    4.9668   20.2827 Cl      1  UNL1       -0.0822
     10 C           1.8549    4.4937   20.5494 C.ar    1  UNL1        0.0129
     11 C           3.0482    3.6225   20.2907 C.ar    1  UNL1        0.0184
     12 C           2.8942    2.3531   19.5066 C.ar    1  UNL1        0.0641
     13 N           3.8812    1.3007   19.0963 N.ar    1  UNL1       -0.3038
     14 C           5.3481    1.2976   19.4100 C.ar    1  UNL1        0.0640
     15 C           6.3355    1.7688   18.3838 C.ar    1  UNL1        0.0175
     16 C           7.8024    1.7656   18.6975 C.ar    1  UNL1        0.0014
     17 C           8.2818    1.2913   20.0373 C.ar    1  UNL1        0.0039
     18 C           7.2944    0.8201   21.0634 C.ar    1  UNL1        0.0729
     19 C           5.8276    0.8232   20.7498 C.ar    1  UNL1        0.0214
     20 C           7.7738    0.3457   22.4032 C.3     1  UNL1        0.4186
     21 F           8.2533   -0.1287   23.7431 F       1  UNL1       -0.1659
     22 F           9.1746    0.2640   21.8731 F       1  UNL1       -0.1659
     23 F           6.3730    0.4274   22.9334 F       1  UNL1       -0.1659
     24 C           5.4639   -2.8099   18.3915 C.3     1  UNL1        0.0081
     25 C           6.7092   -1.9920   18.2167 C.3     1  UNL1        0.0005
     26 C           7.9190   -2.2792   19.0557 C.3     1  UNL1        0.0000
     27 C           7.7905   -4.2229   20.7748 C.3     1  UNL1        0.0000
     28 C           7.7559   -2.7549   20.4689 C.3     1  UNL1        0.0000
     29 C           3.2203   -2.5962   19.6841 C.3     1  UNL1        0.0341
     30 C           3.4480   -2.1576   21.1003 C.ar    1  UNL1       -0.0217
     31 C           2.7303   -0.9550   21.6377 C.ar    1  UNL1       -0.0041
     32 C           2.9581   -0.5164   23.0539 C.ar    1  UNL1        0.0042
     33 C           3.9035   -1.2804   23.9328 C.ar    1  UNL1        0.0533
     34 C           4.6212   -2.4829   23.3955 C.ar    1  UNL1        0.0042
     35 C           4.3934   -2.9216   21.9792 C.ar    1  UNL1       -0.0041
     36 C           4.1313   -0.8418   25.3490 C.2     1  UNL1        0.2459
     37 O           5.0016    0.3458   25.6356 O.2     1  UNL1       -0.2701
     38 N           3.4886   -1.5908   26.4787 N.am    1  UNL1       -0.3005
     39 H           2.9174   -2.3702   26.2906 H       1  UNL1        0.1498
     40 C           3.7164   -1.1522   27.8949 C.3     1  UNL1        0.0956
     41 C           2.8388   -0.0994   28.5043 C.3     1  UNL1        0.0629
     42 C           1.8774   -0.4643   29.5964 C.2     1  UNL1        0.0520
     43 O           0.3999   -0.3495   29.3642 O.co2   1  UNL1       -0.5491
     44 O           2.3935   -0.9440   30.9206 O.co2   1  UNL1       -0.5491
@<TRIPOS>UNITY_ATOM_ATTR
43 1
charge -1
@<TRIPOS>BOND
     1    27    28    1
     2    28    26    1
     3    26    25    1
     4    25    24    1
     5     1    24    1
     6     1    29    1
     7    29    30    1
     8    30    31   ar
     9    31    32   ar
    10    32    33   ar
    11    33    36    1
    12    36    37    2
    13    36    38   am
    14    38    40    1
    15    40    41    1
    16    41    42    1
    17    42    43   ar
    18    42    44   ar
    19    33    34   ar
    20    34    35   ar
    21     1     2    1
    22     2     3    2
    23     2     4    1
    24     4     5   ar
    25     5     6   ar
    26     6     7   ar
    27     7     8   ar
    28     8     9    1
    29     8    10   ar
    30    10    11   ar
    31    11    12   ar
    32    12    13   ar
    33    13    14    1
    34    14    15   ar
    35    15    16   ar
    36    16    17   ar
    37    17    18   ar
    38    18    20    1
    39    20    21    1
    40    20    22    1
    41    20    23    1
    42    18    19   ar
    43    35    30   ar
    44    13     4   ar
    45    19    14   ar
    46    12     6   ar
    47    38    39    1
@<TRIPOS>MOLECULE
*****
 44 47 0 0 0
SMALL
GASTEIGER

@<TRIPOS>ATOM
      1 C           0.4377    1.7858   22.3632 C.3     1  UNL1        0.0678
      2 C          -0.0575    3.1933   22.5163 C.2     1  UNL1        0.1889
      3 O           0.8615    4.3460   22.2392 O.2     1  UNL1       -0.2898
      4 C          -1.4717    3.4483   22.9464 C.ar    1  UNL1        0.0989
      5 C          -2.6417    3.6802   22.0369 C.ar    1  UNL1        0.0219
      6 C          -3.8573    3.8914   22.8900 C.ar    1  UNL1        0.0185
      7 C          -5.2914    4.1629   22.5441 C.ar    1  UNL1        0.0129
      8 C          -6.3067    4.3330   23.6350 C.ar    1  UNL1        0.0578
      9 CL         -7.7409    4.6045   23.2892 Cl      1  UNL1       -0.0822
     10 C          -5.8880    4.2316   25.0718 C.ar    1  UNL1        0.0129
     11 C          -4.4539    3.9601   25.4177 C.ar    1  UNL1        0.0184
     12 C          -3.4386    3.7900   24.3268 C.ar    1  UNL1        0.0641
     13 N          -1.9642    3.5161   24.3617 N.ar    1  UNL1       -0.3038
     14 C          -1.1290    3.3409   25.5952 C.ar    1  UNL1        0.0640
     15 C          -0.2476    4.4584   26.0692 C.ar    1  UNL1        0.0175
     16 C           0.5876    4.2832   27.3028 C.ar    1  UNL1        0.0014
     17 C           0.5416    2.9905   28.0624 C.ar    1  UNL1        0.0039
     18 C          -0.3397    1.8731   27.5884 C.ar    1  UNL1        0.0729
     19 C          -1.1750    2.0484   26.3548 C.ar    1  UNL1        0.0214
     20 C          -0.3858    0.5805   28.3479 C.3     1  UNL1        0.4186
     21 F          -0.4318   -0.7121   29.1075 F       1  UNL1       -0.1659
     22 F          -1.8610    0.7551   28.5556 F       1  UNL1       -0.1659
     23 F           1.0895    0.4059   28.1403 F       1  UNL1       -0.1659
     24 C           0.9187    1.0252   23.5633 C.3     1  UNL1        0.0081
     25 C           2.2428    1.3612   24.1829 C.3     1  UNL1        0.0005
     26 C           3.4567    0.5471   23.8459 C.3     1  UNL1        0.0000
     27 C           4.5224   -1.7181   23.1506 C.3     1  UNL1        0.0000
     28 C           3.3209   -0.9193   23.5609 C.3     1  UNL1        0.0000
     29 C           0.4519    1.1387   21.0100 C.3     1  UNL1        0.0341
     30 C           1.6913    0.4497   20.5210 C.ar    1  UNL1       -0.0217
     31 C           2.9528    1.2342   20.3127 C.ar    1  UNL1       -0.0041
     32 C           4.1923    0.5452   19.8238 C.ar    1  UNL1        0.0042
     33 C           4.1703   -0.9281   19.5431 C.ar    1  UNL1        0.0533
     34 C           2.9088   -1.7125   19.7514 C.ar    1  UNL1        0.0042
     35 C           1.6693   -1.0236   20.2404 C.ar    1  UNL1       -0.0041
     36 C           5.4097   -1.6170   19.0542 C.2     1  UNL1        0.2459
     37 O           5.4408   -2.2195   17.6808 O.2     1  UNL1       -0.2701
     38 N           6.6182   -1.7036   19.9386 N.am    1  UNL1       -0.3005
     39 H           6.5978   -1.3082   20.8400 H       1  UNL1        0.1498
     40 C           7.8576   -2.3925   19.4497 C.3     1  UNL1        0.0956
     41 C           8.5649   -3.3787   20.3313 C.3     1  UNL1        0.0629
     42 C           7.7984   -4.5002   20.9677 C.2     1  UNL1        0.0520
     43 O           8.4183   -5.8612   21.0836 O.co2   1  UNL1       -0.5491
     44 O           6.4122   -4.2607   21.4881 O.co2   1  UNL1       -0.5491
@<TRIPOS>UNITY_ATOM_ATTR
43 1
charge -1
@<TRIPOS>BOND
     1    27    28    1
     2    28    26    1
     3    26    25    1
     4    25    24    1
     5     1    24    1
     6     1    29    1
     7    29    30    1
     8    30    31   ar
     9    31    32   ar
    10    32    33   ar
    11    33    36    1
    12    36    37    2
    13    36    38   am
    14    38    40    1
    15    40    41    1
    16    41    42    1
    17    42    43   ar
    18    42    44   ar
    19    33    34   ar
    20    34    35   ar
    21     1     2    1
    22     2     3    2
    23     2     4    1
    24     4     5   ar
    25     5     6   ar
    26     6     7   ar
    27     7     8   ar
    28     8     9    1
    29     8    10   ar
    30    10    11   ar
    31    11    12   ar
    32    12    13   ar
    33    13    14    1
    34    14    15   ar
    35    15    16   ar
    36    16    17   ar
    37    17    18   ar
    38    18    20    1
    39    20    21    1
    40    20    22    1
    41    20    23    1
    42    18    19   ar
    43    35    30   ar
    44    13     4   ar
    45    19    14   ar
    46    12     6   ar
    47    38    39    1
@<TRIPOS>MOLECULE
*****
 44 47 0 0 0
SMALL
GASTEIGER

@<TRIPOS>ATOM
      1 C           6.5266   -1.4131   18.2025 C.3     1  UNL1        0.0678
      2 C           7.5634   -1.3047   19.2810 C.2     1  UNL1        0.1889
      3 O           8.6140   -0.2367   19.2067 O.2     1  UNL1       -0.2898
      4 C           7.5495   -2.2642   20.4339 C.ar    1  UNL1        0.0989
      5 C           8.4228   -3.4744   20.5843 C.ar    1  UNL1        0.0219
      6 C           8.0729   -4.1402   21.8822 C.ar    1  UNL1        0.0185
      7 C           8.6057   -5.3705   22.5547 C.ar    1  UNL1        0.0129
      8 C           8.0489   -5.8021   23.8790 C.ar    1  UNL1        0.0578
      9 CL          8.5816   -7.0325   24.5515 Cl      1  UNL1       -0.0822
     10 C           6.9594   -5.0032   24.5307 C.ar    1  UNL1        0.0129
     11 C           6.4266   -3.7728   23.8582 C.ar    1  UNL1        0.0184
     12 C           6.9834   -3.3413   22.5339 C.ar    1  UNL1        0.0641
     13 N           6.6599   -2.1819   21.6388 N.ar    1  UNL1       -0.3038
     14 C           5.6280   -1.1257   21.9025 C.ar    1  UNL1        0.0640
     15 C           5.9954    0.1050   22.6775 C.ar    1  UNL1        0.0175
     16 C           4.9635    1.1613   22.9411 C.ar    1  UNL1        0.0014
     17 C           3.5642    0.9869   22.4298 C.ar    1  UNL1        0.0039
     18 C           3.1968   -0.2437   21.6548 C.ar    1  UNL1        0.0729
     19 C           4.2287   -1.3000   21.3912 C.ar    1  UNL1        0.0214
     20 C           1.7975   -0.4181   21.1435 C.3     1  UNL1        0.4186
     21 F           0.3981   -0.5925   20.6322 F       1  UNL1       -0.1659
     22 F           1.3539    0.7631   21.9546 F       1  UNL1       -0.1659
     23 F           2.2411   -1.5993   20.3324 F       1  UNL1       -0.1659
     24 C           5.9293   -2.7477   17.8677 C.3     1  UNL1        0.0081
     25 C           4.6852   -3.2093   18.5670 C.3     1  UNL1        0.0005
     26 C           4.3551   -4.6715   18.6233 C.3     1  UNL1        0.0000
     27 C           3.8525   -4.7073   21.1720 C.3     1  UNL1        0.0000
     28 C           3.5881   -5.2229   19.7885 C.3     1  UNL1        0.0000
     29 C           6.0869   -0.1868   17.4588 C.3     1  UNL1        0.0341
     30 C           4.9296    0.6224   17.9644 C.ar    1  UNL1       -0.0217
     31 C           3.5246    0.1691   17.6990 C.ar    1  UNL1       -0.0041
     32 C           2.3673    0.9783   18.2047 C.ar    1  UNL1        0.0042
     33 C           2.6149    2.2409   18.9757 C.ar    1  UNL1        0.0533
     34 C           4.0199    2.6943   19.2411 C.ar    1  UNL1        0.0042
     35 C           5.1773    1.8850   18.7355 C.ar    1  UNL1       -0.0041
     36 C           1.4576    3.0502   19.4814 C.2     1  UNL1        0.2459
     37 O           1.7050    4.3242   20.2336 O.2     1  UNL1       -0.2701
     38 N           0.0529    2.5854   19.2349 N.am    1  UNL1       -0.3005
     39 H          -0.1095    1.7493   18.7412 H       1  UNL1        0.1498
     40 C          -1.1044    3.3947   19.7405 C.3     1  UNL1        0.0956
     41 C          -1.6430    3.1530   21.1195 C.3     1  UNL1        0.0629
     42 C          -3.0259    3.6121   21.4758 C.2     1  UNL1        0.0520
     43 O          -4.2016    2.7145   21.2264 O.co2   1  UNL1       -0.5491
     44 O          -3.2331    4.9686   22.0813 O.co2   1  UNL1       -0.5491
@<TRIPOS>UNITY_ATOM_ATTR
43 1
charge -1
@<TRIPOS>BOND
     1    27    28    1
     2    28    26    1
     3    26    25    1
     4    25    24    1
     5     1    24    1
     6     1    29    1
     7    29    30    1
     8    30    31   ar
     9    31    32   ar
    10    32    33   ar
    11    33    36    1
    12    36    37    2
    13    36    38   am
    14    38    40    1
    15    40    41    1
    16    41    42    1
    17    42    43   ar
    18    42    44   ar
    19    33    34   ar
    20    34    35   ar
    21     1     2    1
    22     2     3    2
    23     2     4    1
    24     4     5   ar
    25     5     6   ar
    26     6     7   ar
    27     7     8   ar
    28     8     9    1
    29     8    10   ar
    30    10    11   ar
    31    11    12   ar
    32    12    13   ar
    33    13    14    1
    34    14    15   ar
    35    15    16   ar
    36    16    17   ar
    37    17    18   ar
    38    18    20    1
    39    20    21    1
    40    20    22    1
    41    20    23    1
    42    18    19   ar
    43    35    30   ar
    44    13     4   ar
    45    19    14   ar
    46    12     6   ar
    47    38    39    1
@<TRIPOS>MOLECULE
*****
 44 47 0 0 0
SMALL
GASTEIGER

@<TRIPOS>ATOM
      1 C           5.5202   -2.8925   20.0875 C.3     1  UNL1        0.0678
      2 C           5.1266   -3.6805   21.3015 C.2     1  UNL1        0.1889
      3 O           4.0649   -4.7352   21.1993 O.2     1  UNL1       -0.2898
      4 C           5.7946   -3.4139   22.6179 C.ar    1  UNL1        0.0989
      5 C           6.8011   -4.2991   23.2911 C.ar    1  UNL1        0.0219
      6 C           7.2019   -3.6476   24.5814 C.ar    1  UNL1        0.0185
      7 C           8.1598   -4.0606   25.6592 C.ar    1  UNL1        0.0129
      8 C           8.3589   -3.1858   26.8613 C.ar    1  UNL1        0.0578
      9 CL          9.3168   -3.5988   27.9392 Cl      1  UNL1       -0.0822
     10 C           7.6000   -1.8979   26.9855 C.ar    1  UNL1        0.0129
     11 C           6.6421   -1.4848   25.9077 C.ar    1  UNL1        0.0184
     12 C           6.4431   -2.3597   24.7056 C.ar    1  UNL1        0.0641
     13 N           5.5733   -2.2153   23.4921 N.ar    1  UNL1       -0.3038
     14 C           4.6452   -1.0728   23.2035 C.ar    1  UNL1        0.0640
     15 C           3.3522   -0.9489   23.9539 C.ar    1  UNL1        0.0175
     16 C           2.4241    0.1936   23.6653 C.ar    1  UNL1        0.0014
     17 C           2.7888    1.2122   22.6263 C.ar    1  UNL1        0.0039
     18 C           4.0817    1.0883   21.8760 C.ar    1  UNL1        0.0729
     19 C           5.0099   -0.0542   22.1646 C.ar    1  UNL1        0.0214
     20 C           4.4465    2.1069   20.8371 C.3     1  UNL1        0.4186
     21 F           4.8113    3.1255   19.7981 F       1  UNL1       -0.1659
     22 F           5.6809    1.3232   20.5021 F       1  UNL1       -0.1659
     23 F           3.2122    2.8906   21.1720 F       1  UNL1       -0.1659
     24 C           6.8902   -2.2882   19.9973 C.3     1  UNL1        0.0081
     25 C           7.4060   -1.7927   18.6788 C.3     1  UNL1        0.0005
     26 C           7.5624   -0.3201   18.4401 C.3     1  UNL1        0.0000
     27 C           6.5664    1.7750   17.2702 C.3     1  UNL1        0.0000
     28 C           6.9219    0.3179   17.2432 C.3     1  UNL1        0.0000
     29 C           4.5440   -2.7087   18.9635 C.3     1  UNL1        0.0341
     30 C           3.5301   -1.6049   19.0237 C.ar    1  UNL1       -0.0217
     31 C           2.4008   -1.6767   20.0084 C.ar    1  UNL1       -0.0041
     32 C           1.3869   -0.5729   20.0686 C.ar    1  UNL1        0.0042
     33 C           1.5023    0.6027   19.1441 C.ar    1  UNL1        0.0533
     34 C           2.6316    0.6745   18.1594 C.ar    1  UNL1        0.0042
     35 C           3.6455   -0.4293   18.0992 C.ar    1  UNL1       -0.0041
     36 C           0.4885    1.7065   19.2042 C.2     1  UNL1        0.2459
     37 O           0.1471    2.4797   17.9650 O.2     1  UNL1       -0.2701
     38 N          -0.1841    2.0372   20.5037 N.am    1  UNL1       -0.3005
     39 H           0.0400    1.5297   21.3170 H       1  UNL1        0.1498
     40 C          -1.1979    3.1410   20.5638 C.3     1  UNL1        0.0956
     41 C          -1.9329    3.4154   21.8423 C.3     1  UNL1        0.0629
     42 C          -3.4098    3.6765   21.8172 C.2     1  UNL1        0.0520
     43 O          -4.3453    2.6404   21.2682 O.co2   1  UNL1       -0.5491
     44 O          -3.9512    4.9735   22.3412 O.co2   1  UNL1       -0.5491
@<TRIPOS>UNITY_ATOM_ATTR
43 1
charge -1
@<TRIPOS>BOND
     1    27    28    1
     2    28    26    1
     3    26    25    1
     4    25    24    1
     5     1    24    1
     6     1    29    1
     7    29    30    1
     8    30    31   ar
     9    31    32   ar
    10    32    33   ar
    11    33    36    1
    12    36    37    2
    13    36    38   am
    14    38    40    1
    15    40    41    1
    16    41    42    1
    17    42    43   ar
    18    42    44   ar
    19    33    34   ar
    20    34    35   ar
    21     1     2    1
    22     2     3    2
    23     2     4    1
    24     4     5   ar
    25     5     6   ar
    26     6     7   ar
    27     7     8   ar
    28     8     9    1
    29     8    10   ar
    30    10    11   ar
    31    11    12   ar
    32    12    13   ar
    33    13    14    1
    34    14    15   ar
    35    15    16   ar
    36    16    17   ar
    37    17    18   ar
    38    18    20    1
    39    20    21    1
    40    20    22    1
    41    20    23    1
    42    18    19   ar
    43    35    30   ar
    44    13     4   ar
    45    19    14   ar
    46    12     6   ar
    47    38    39    1
@<TRIPOS>MOLECULE
*****
 44 47 0 0 0
SMALL
GASTEIGER

@<TRIPOS>ATOM
      1 C           4.5003    0.2500   22.3369 C.3     1  UNL1        0.0678
      2 C           5.3486    0.3468   23.5702 C.2     1  UNL1        0.1889
      3 O           5.8725    1.6793   24.0173 O.2     1  UNL1       -0.2898
      4 C           5.6730   -0.8889   24.3562 C.ar    1  UNL1        0.0989
      5 C           5.6999   -1.0007   25.8518 C.ar    1  UNL1        0.0219
      6 C           6.0709   -2.4106   26.2047 C.ar    1  UNL1        0.0185
      7 C           6.2506   -3.1008   27.5242 C.ar    1  UNL1        0.0129
      8 C           6.6327   -4.5507   27.5662 C.ar    1  UNL1        0.0578
      9 CL          6.8125   -5.2411   28.8858 Cl      1  UNL1       -0.0822
     10 C           6.8352   -5.3103   26.2887 C.ar    1  UNL1        0.0129
     11 C           6.6555   -4.6200   24.9692 C.ar    1  UNL1        0.0184
     12 C           6.2733   -3.1702   24.9272 C.ar    1  UNL1        0.0641
     13 N           6.0274   -2.2297   23.7848 N.ar    1  UNL1       -0.3038
     14 C           6.1197   -2.5703   22.3269 C.ar    1  UNL1        0.0640
     15 C           7.3903   -2.3073   21.5742 C.ar    1  UNL1        0.0175
     16 C           7.4825   -2.6479   20.1163 C.ar    1  UNL1        0.0014
     17 C           6.3043   -3.2515   19.4110 C.ar    1  UNL1        0.0039
     18 C           5.0338   -3.5145   20.1637 C.ar    1  UNL1        0.0729
     19 C           4.9415   -3.1739   21.6216 C.ar    1  UNL1        0.0214
     20 C           3.8555   -4.1181   19.4585 C.3     1  UNL1        0.4186
     21 F           2.6773   -4.7217   18.7533 F       1  UNL1       -0.1659
     22 F           3.0213   -2.9297   19.8350 F       1  UNL1       -0.1659
     23 F           4.6897   -5.3065   19.0820 F       1  UNL1       -0.1659
     24 C           5.0563    0.6717   21.0091 C.3     1  UNL1        0.0081
     25 C           4.5597    0.0268   19.7491 C.3     1  UNL1        0.0005
     26 C           4.3359    0.8567   18.5197 C.3     1  UNL1        0.0000
     27 C           2.9202    2.9680   19.0561 C.3     1  UNL1        0.0000
     28 C           3.0684    1.6440   18.3668 C.3     1  UNL1        0.0000
     29 C           3.0959   -0.2686   22.4314 C.3     1  UNL1        0.0341
     30 C           1.9521    0.5708   21.9444 C.ar    1  UNL1       -0.0217
     31 C           1.0532    0.0566   20.8591 C.ar    1  UNL1       -0.0041
     32 C          -0.0905    0.8960   20.3722 C.ar    1  UNL1        0.0042
     33 C          -0.3355    2.2496   20.9703 C.ar    1  UNL1        0.0533
     34 C           0.5633    2.7638   22.0555 C.ar    1  UNL1        0.0042
     35 C           1.7072    1.9244   22.5426 C.ar    1  UNL1       -0.0041
     36 C          -1.4793    3.0889   20.4834 C.2     1  UNL1        0.2459
     37 O          -1.2146    4.4236   19.8519 O.2     1  UNL1       -0.2701
     38 N          -2.8878    2.5937   20.6278 N.am    1  UNL1       -0.3005
     39 H          -3.0616    1.7177   21.0422 H       1  UNL1        0.1498
     40 C          -4.0316    3.4330   20.1408 C.3     1  UNL1        0.0956
     41 C          -5.1316    3.8214   21.0837 C.3     1  UNL1        0.0629
     42 C          -4.8199    4.1065   22.5230 C.2     1  UNL1        0.0520
     43 O          -5.8734    3.9080   23.5721 O.co2   1  UNL1       -0.5491
     44 O          -3.4547    4.5902   22.9132 O.co2   1  UNL1       -0.5491
@<TRIPOS>UNITY_ATOM_ATTR
43 1
charge -1
@<TRIPOS>BOND
     1    27    28    1
     2    28    26    1
     3    26    25    1
     4    25    24    1
     5     1    24    1
     6     1    29    1
     7    29    30    1
     8    30    31   ar
     9    31    32   ar
    10    32    33   ar
    11    33    36    1
    12    36    37    2
    13    36    38   am
    14    38    40    1
    15    40    41    1
    16    41    42    1
    17    42    43   ar
    18    42    44   ar
    19    33    34   ar
    20    34    35   ar
    21     1     2    1
    22     2     3    2
    23     2     4    1
    24     4     5   ar
    25     5     6   ar
    26     6     7   ar
    27     7     8   ar
    28     8     9    1
    29     8    10   ar
    30    10    11   ar
    31    11    12   ar
    32    12    13   ar
    33    13    14    1
    34    14    15   ar
    35    15    16   ar
    36    16    17   ar
    37    17    18   ar
    38    18    20    1
    39    20    21    1
    40    20    22    1
    41    20    23    1
    42    18    19   ar
    43    35    30   ar
    44    13     4   ar
    45    19    14   ar
    46    12     6   ar
    47    38    39    1
@<TRIPOS>MOLECULE
*****
 44 47 0 0 0
SMALL
GASTEIGER

@<TRIPOS>ATOM
      1 C           1.2410    2.3994   18.7781 C.3     1  UNL1        0.0678
      2 C           0.2117    3.4663   19.0063 C.2     1  UNL1        0.1889
      3 O          -0.0160    4.5234   17.9668 O.2     1  UNL1       -0.2898
      4 C          -0.5900    3.4761   20.2741 C.ar    1  UNL1        0.0989
      5 C          -2.0869    3.4779   20.3707 C.ar    1  UNL1        0.0219
      6 C          -2.4577    3.4887   21.8241 C.ar    1  UNL1        0.0185
      7 C          -3.7858    3.4947   22.5211 C.ar    1  UNL1        0.0129
      8 C          -3.8462    3.5056   24.0198 C.ar    1  UNL1        0.0578
      9 CL         -5.1745    3.5116   24.7169 Cl      1  UNL1       -0.0822
     10 C          -2.5785    3.5104   24.8215 C.ar    1  UNL1        0.0129
     11 C          -1.2503    3.5044   24.1245 C.ar    1  UNL1        0.0184
     12 C          -1.1899    3.4935   22.6258 C.ar    1  UNL1        0.0641
     13 N          -0.0357    3.4857   21.6678 N.ar    1  UNL1       -0.3038
     14 C           1.4178    3.4873   22.0386 C.ar    1  UNL1        0.0640
     15 C           2.2560    4.7046   21.7819 C.ar    1  UNL1        0.0175
     16 C           3.7095    4.7062   22.1526 C.ar    1  UNL1        0.0014
     17 C           4.3248    3.4906   22.7800 C.ar    1  UNL1        0.0039
     18 C           3.4866    2.2733   23.0367 C.ar    1  UNL1        0.0729
     19 C           2.0332    2.2718   22.6659 C.ar    1  UNL1        0.0214
     20 C           4.1019    1.0577   23.6641 C.3     1  UNL1        0.4186
     21 F           4.7173   -0.1579   24.2915 F       1  UNL1       -0.1659
     22 F           2.8230    0.7907   24.4010 F       1  UNL1       -0.1659
     23 F           5.3809    1.3248   22.9272 F       1  UNL1       -0.1659
     24 C           0.8278    0.9586   18.7206 C.3     1  UNL1        0.0081
     25 C           0.7768    0.1422   19.9781 C.3     1  UNL1        0.0005
     26 C           1.6958   -1.0310   20.1483 C.3     1  UNL1        0.0000
     27 C           3.8620   -2.0024   21.2036 C.3     1  UNL1        0.0000
     28 C           2.7237   -1.0263   21.2407 C.3     1  UNL1        0.0000
     29 C           2.6837    2.7733   18.6074 C.3     1  UNL1        0.0341
     30 C           3.7395    1.7079   18.6060 C.ar    1  UNL1       -0.0217
     31 C           4.8054    1.7069   19.6615 C.ar    1  UNL1       -0.0041
     32 C           5.8613    0.6415   19.6601 C.ar    1  UNL1        0.0042
     33 C           5.8512   -0.4230   18.6033 C.ar    1  UNL1        0.0533
     34 C           4.7854   -0.4221   17.5479 C.ar    1  UNL1        0.0042
     35 C           3.7295    0.6434   17.5492 C.ar    1  UNL1       -0.0041
     36 C           6.9071   -1.4884   18.6020 C.2     1  UNL1        0.2459
     37 O           7.0356   -2.4155   17.4297 O.2     1  UNL1       -0.2701
     38 N           7.8344   -1.6269   19.7728 N.am    1  UNL1       -0.3005
     39 H           7.7501   -1.0184   20.5422 H       1  UNL1        0.1498
     40 C           8.8903   -2.6923   19.7715 C.3     1  UNL1        0.0956
     41 C           8.9717   -3.6688   20.9071 C.3     1  UNL1        0.0629
     42 C           7.7654   -4.4725   21.2932 C.2     1  UNL1        0.0520
     43 O           7.8057   -5.3481   22.5104 O.co2   1  UNL1       -0.5491
     44 O           6.5188   -4.4005   20.4621 O.co2   1  UNL1       -0.5491
@<TRIPOS>UNITY_ATOM_ATTR
43 1
charge -1
@<TRIPOS>BOND
     1    27    28    1
     2    28    26    1
     3    26    25    1
     4    25    24    1
     5     1    24    1
     6     1    29    1
     7    29    30    1
     8    30    31   ar
     9    31    32   ar
    10    32    33   ar
    11    33    36    1
    12    36    37    2
    13    36    38   am
    14    38    40    1
    15    40    41    1
    16    41    42    1
    17    42    43   ar
    18    42    44   ar
    19    33    34   ar
    20    34    35   ar
    21     1     2    1
    22     2     3    2
    23     2     4    1
    24     4     5   ar
    25     5     6   ar
    26     6     7   ar
    27     7     8   ar
    28     8     9    1
    29     8    10   ar
    30    10    11   ar
    31    11    12   ar
    32    12    13   ar
    33    13    14    1
    34    14    15   ar
    35    15    16   ar
    36    16    17   ar
    37    17    18   ar
    38    18    20    1
    39    20    21    1
    40    20    22    1
    41    20    23    1
    42    18    19   ar
    43    35    30   ar
    44    13     4   ar
    45    19    14   ar
    46    12     6   ar
    47    38    39    1
@<TRIPOS>MOLECULE
*****
 44 47 0 0 0
SMALL
GASTEIGER

@<TRIPOS>ATOM
      1 C           2.0712    2.1520   21.8031 C.3     1  UNL1        0.0678
      2 C           1.2706    3.3414   22.2440 C.2     1  UNL1        0.1889
      3 O           1.9456    4.4797   22.9502 O.2     1  UNL1       -0.2898
      4 C          -0.2048    3.3925   21.9787 C.ar    1  UNL1        0.0989
      5 C          -0.8588    3.3838   20.6288 C.ar    1  UNL1        0.0219
      6 C          -2.3436    3.4472   20.8326 C.ar    1  UNL1        0.0185
      7 C          -3.4895    3.4676   19.8649 C.ar    1  UNL1        0.0129
      8 C          -4.8991    3.5358   20.3731 C.ar    1  UNL1        0.0578
      9 CL         -6.0451    3.5561   19.4055 Cl      1  UNL1       -0.0822
     10 C          -5.1628    3.5836   21.8490 C.ar    1  UNL1        0.0129
     11 C          -4.0168    3.5633   22.8167 C.ar    1  UNL1        0.0184
     12 C          -2.6072    3.4951   22.3084 C.ar    1  UNL1        0.0641
     13 N          -1.2854    3.4613   23.0168 N.ar    1  UNL1       -0.3038
     14 C          -1.0803    3.4910   24.5024 C.ar    1  UNL1        0.0640
     15 C          -1.1094    4.7983   25.2376 C.ar    1  UNL1        0.0175
     16 C          -0.9042    4.8280   26.7232 C.ar    1  UNL1        0.0014
     17 C          -0.6700    3.5505   27.4737 C.ar    1  UNL1        0.0039
     18 C          -0.6410    2.2433   26.7385 C.ar    1  UNL1        0.0729
     19 C          -0.8461    2.2136   25.2529 C.ar    1  UNL1        0.0214
     20 C          -0.4068    0.9659   27.4890 C.3     1  UNL1        0.4186
     21 F          -0.1726   -0.3116   28.2395 F       1  UNL1       -0.1659
     22 F           0.8840    0.7689   26.7509 F       1  UNL1       -0.1659
     23 F          -1.6977    1.1629   28.2272 F       1  UNL1       -0.1659
     24 C           3.3494    2.3482   21.0430 C.3     1  UNL1        0.0081
     25 C           3.3093    2.6668   19.5777 C.3     1  UNL1        0.0005
     26 C           3.5573    1.5856   18.5681 C.3     1  UNL1        0.0000
     27 C           1.0319    0.9898   18.4360 C.3     1  UNL1        0.0000
     28 C           2.4685    0.6106   18.2305 C.3     1  UNL1        0.0000
     29 C           1.5935    0.7663   22.1223 C.3     1  UNL1        0.0341
     30 C           2.5854   -0.3196   22.4170 C.ar    1  UNL1       -0.0217
     31 C           3.0996   -0.5069   23.8136 C.ar    1  UNL1       -0.0041
     32 C           4.0915   -1.5928   24.1084 C.ar    1  UNL1        0.0042
     33 C           4.5692   -2.4915   23.0065 C.ar    1  UNL1        0.0533
     34 C           4.0551   -2.3042   21.6099 C.ar    1  UNL1        0.0042
     35 C           3.0631   -1.2183   21.3151 C.ar    1  UNL1       -0.0041
     36 C           5.5611   -3.5774   23.3012 C.2     1  UNL1        0.2459
     37 O           6.0915   -4.4311   22.1877 O.2     1  UNL1       -0.2701
     38 N           6.0226   -3.8097   24.7095 N.am    1  UNL1       -0.3005
     39 H           5.6744   -3.2494   25.4403 H       1  UNL1        0.1498
     40 C           7.0145   -4.8956   25.0042 C.3     1  UNL1        0.0956
     41 C           7.1234   -5.4555   26.3915 C.3     1  UNL1        0.0629
     42 C           6.6128   -4.6668   27.5608 C.2     1  UNL1        0.0520
     43 O           5.9184   -5.3664   28.6915 O.co2   1  UNL1       -0.5491
     44 O           6.7966   -3.1786   27.5995 O.co2   1  UNL1       -0.5491
@<TRIPOS>UNITY_ATOM_ATTR
43 1
charge -1
@<TRIPOS>BOND
     1    27    28    1
     2    28    26    1
     3    26    25    1
     4    25    24    1
     5     1    24    1
     6     1    29    1
     7    29    30    1
     8    30    31   ar
     9    31    32   ar
    10    32    33   ar
    11    33    36    1
    12    36    37    2
    13    36    38   am
    14    38    40    1
    15    40    41    1
    16    41    42    1
    17    42    43   ar
    18    42    44   ar
    19    33    34   ar
    20    34    35   ar
    21     1     2    1
    22     2     3    2
    23     2     4    1
    24     4     5   ar
    25     5     6   ar
    26     6     7   ar
    27     7     8   ar
    28     8     9    1
    29     8    10   ar
    30    10    11   ar
    31    11    12   ar
    32    12    13   ar
    33    13    14    1
    34    14    15   ar
    35    15    16   ar
    36    16    17   ar
    37    17    18   ar
    38    18    20    1
    39    20    21    1
    40    20    22    1
    41    20    23    1
    42    18    19   ar
    43    35    30   ar
    44    13     4   ar
    45    19    14   ar
    46    12     6   ar
    47    38    39    1
@<TRIPOS>MOLECULE
*****
 44 47 0 0 0
SMALL
GASTEIGER

@<TRIPOS>ATOM
      1 C           7.5003   -4.8403   27.2353 C.3     1  UNL1        0.0678
      2 C           7.8769   -3.8144   26.2078 C.2     1  UNL1        0.1889
      3 O           9.1873   -3.0922   26.3144 O.2     1  UNL1       -0.2898
      4 C           6.9432   -3.5107   25.0738 C.ar    1  UNL1        0.0989
      5 C           6.8943   -4.2259   23.7563 C.ar    1  UNL1        0.0219
      6 C           5.8153   -3.5957   22.9264 C.ar    1  UNL1        0.0185
      7 C           5.3157   -3.8851   21.5420 C.ar    1  UNL1        0.0129
      8 C           4.1981   -3.0697   20.9624 C.ar    1  UNL1        0.0578
      9 CL          3.6985   -3.3590   19.5779 Cl      1  UNL1       -0.0822
     10 C           3.5802   -1.9649   21.7671 C.ar    1  UNL1        0.0129
     11 C           4.0798   -1.6756   23.1515 C.ar    1  UNL1        0.0184
     12 C           5.1974   -2.4910   23.7312 C.ar    1  UNL1        0.0641
     13 N           5.8944   -2.4384   25.0583 N.ar    1  UNL1       -0.3038
     14 C           5.5952   -1.4816   26.1741 C.ar    1  UNL1        0.0640
     15 C           6.6421   -0.5080   26.6283 C.ar    1  UNL1        0.0175
     16 C           6.3429    0.4489   27.7440 C.ar    1  UNL1        0.0014
     17 C           4.9968    0.4322   28.4056 C.ar    1  UNL1        0.0039
     18 C           3.9499   -0.5413   27.9514 C.ar    1  UNL1        0.0729
     19 C           4.2492   -1.4982   26.8357 C.ar    1  UNL1        0.0214
     20 C           2.6038   -0.5580   28.6130 C.3     1  UNL1        0.4186
     21 F           1.2577   -0.5747   29.2746 F       1  UNL1       -0.1659
     22 F           3.2111   -1.1852   29.8328 F       1  UNL1       -0.1659
     23 F           1.9966    0.0692   27.3932 F       1  UNL1       -0.1659
     24 C           6.4991   -5.9056   26.8995 C.3     1  UNL1        0.0081
     25 C           6.9424   -7.1595   26.2057 C.3     1  UNL1        0.0005
     26 C           8.3848   -7.5691   26.2459 C.3     1  UNL1        0.0000
     27 C           8.6400   -7.4493   23.6632 C.3     1  UNL1        0.0000
     28 C           9.2490   -7.3916   25.0328 C.3     1  UNL1        0.0000
     29 C           8.1249   -4.8009   28.5985 C.3     1  UNL1        0.0341
     30 C           7.3939   -4.1589   29.7401 C.ar    1  UNL1       -0.0217
     31 C           6.8373   -2.7740   29.5903 C.ar    1  UNL1       -0.0041
     32 C           6.1062   -2.1319   30.7319 C.ar    1  UNL1        0.0042
     33 C           5.9317   -2.8747   32.0234 C.ar    1  UNL1        0.0533
     34 C           6.4883   -4.2595   32.1732 C.ar    1  UNL1        0.0042
     35 C           7.2194   -4.9016   31.0316 C.ar    1  UNL1       -0.0041
     36 C           5.2007   -2.2326   33.1650 C.2     1  UNL1        0.2459
     37 O           3.9059   -2.8151   33.6489 O.2     1  UNL1       -0.2701
     38 N           5.7645   -1.0080   33.8227 N.am    1  UNL1       -0.3005
     39 H           6.6143   -0.6256   33.5051 H       1  UNL1        0.1498
     40 C           5.0334   -0.3659   34.9643 C.3     1  UNL1        0.0956
     41 C           3.9367    0.6206   34.6925 C.3     1  UNL1        0.0629
     42 C           3.6745    1.7362   35.6605 C.2     1  UNL1        0.0520
     43 O           2.2977    2.3199   35.7771 O.co2   1  UNL1       -0.5491
     44 O           4.7892    2.2681   36.5117 O.co2   1  UNL1       -0.5491
@<TRIPOS>UNITY_ATOM_ATTR
43 1
charge -1
@<TRIPOS>BOND
     1    27    28    1
     2    28    26    1
     3    26    25    1
     4    25    24    1
     5     1    24    1
     6     1    29    1
     7    29    30    1
     8    30    31   ar
     9    31    32   ar
    10    32    33   ar
    11    33    36    1
    12    36    37    2
    13    36    38   am
    14    38    40    1
    15    40    41    1
    16    41    42    1
    17    42    43   ar
    18    42    44   ar
    19    33    34   ar
    20    34    35   ar
    21     1     2    1
    22     2     3    2
    23     2     4    1
    24     4     5   ar
    25     5     6   ar
    26     6     7   ar
    27     7     8   ar
    28     8     9    1
    29     8    10   ar
    30    10    11   ar
    31    11    12   ar
    32    12    13   ar
    33    13    14    1
    34    14    15   ar
    35    15    16   ar
    36    16    17   ar
    37    17    18   ar
    38    18    20    1
    39    20    21    1
    40    20    22    1
    41    20    23    1
    42    18    19   ar
    43    35    30   ar
    44    13     4   ar
    45    19    14   ar
    46    12     6   ar
    47    38    39    1
@<TRIPOS>MOLECULE
*****
 44 47 0 0 0
SMALL
GASTEIGER

@<TRIPOS>ATOM
      1 C           5.5604   -2.8918   19.8812 C.3     1  UNL1        0.0678
      2 C           5.1673   -3.6456   21.1170 C.2     1  UNL1        0.1889
      3 O           4.0559   -4.6514   21.0601 O.2     1  UNL1       -0.2898
      4 C           5.8854   -3.3937   22.4095 C.ar    1  UNL1        0.0989
      5 C           6.8572   -4.3232   23.0740 C.ar    1  UNL1        0.0219
      6 C           7.3303   -3.6720   24.3397 C.ar    1  UNL1        0.0185
      7 C           8.2919   -4.1198   25.4002 C.ar    1  UNL1        0.0129
      8 C           8.5742   -3.2356   26.5785 C.ar    1  UNL1        0.0578
      9 CL          9.5359   -3.6834   27.6390 Cl      1  UNL1       -0.0822
     10 C           7.8948   -1.9035   26.6963 C.ar    1  UNL1        0.0129
     11 C           6.9331   -1.4556   25.6358 C.ar    1  UNL1        0.0184
     12 C           6.6509   -2.3399   24.4575 C.ar    1  UNL1        0.0641
     13 N           5.7579   -2.1679   23.2646 N.ar    1  UNL1       -0.3038
     14 C           4.8898   -0.9788   22.9773 C.ar    1  UNL1        0.0640
     15 C           5.2818   -0.0056   21.9052 C.ar    1  UNL1        0.0175
     16 C           4.4137    1.1835   21.6179 C.ar    1  UNL1        0.0014
     17 C           3.1537    1.3994   22.4025 C.ar    1  UNL1        0.0039
     18 C           2.7618    0.4262   23.4745 C.ar    1  UNL1        0.0729
     19 C           3.6298   -0.7629   23.7619 C.ar    1  UNL1        0.0214
     20 C           1.5017    0.6420   24.2592 C.3     1  UNL1        0.4186
     21 F           0.2417    0.8579   25.0438 F       1  UNL1       -0.1659
     22 F           0.7745    0.9924   22.9949 F       1  UNL1       -0.1659
     23 F           2.2290    0.2917   25.5234 F       1  UNL1       -0.1659
     24 C           6.9619   -2.3791   19.7295 C.3     1  UNL1        0.0081
     25 C           7.2903   -1.4062   18.6360 C.3     1  UNL1        0.0005
     26 C           7.4890    0.0453   18.9582 C.3     1  UNL1        0.0000
     27 C           6.8048    0.7599   16.5559 C.3     1  UNL1        0.0000
     28 C           7.0108    1.0980   18.0027 C.3     1  UNL1        0.0000
     29 C           4.5521   -2.6507   18.7971 C.3     1  UNL1        0.0341
     30 C           3.5381   -1.5554   18.9460 C.ar    1  UNL1       -0.0217
     31 C           3.6198   -0.3346   18.0782 C.ar    1  UNL1       -0.0041
     32 C           2.6058    0.7606   18.2271 C.ar    1  UNL1        0.0042
     33 C           1.5101    0.6351   19.2438 C.ar    1  UNL1        0.0533
     34 C           1.4284   -0.5856   20.1117 C.ar    1  UNL1        0.0042
     35 C           2.4425   -1.6809   19.9628 C.ar    1  UNL1       -0.0041
     36 C           0.4962    1.7304   19.3928 C.2     1  UNL1        0.2459
     37 O          -0.6038    1.6017   20.4045 O.2     1  UNL1       -0.2701
     38 N           0.5821    2.9544   18.5300 N.am    1  UNL1       -0.3005
     39 H           1.3040    3.0389   17.8659 H       1  UNL1        0.1498
     40 C          -0.4319    4.0497   18.6789 C.3     1  UNL1        0.0956
     41 C          -1.7372    3.9682   17.9445 C.3     1  UNL1        0.0629
     42 C          -3.0297    4.0150   18.7045 C.2     1  UNL1        0.0520
     43 O          -4.3110    3.6239   18.0298 O.co2   1  UNL1       -0.5491
     44 O          -3.0407    4.4531   20.1390 O.co2   1  UNL1       -0.5491
@<TRIPOS>UNITY_ATOM_ATTR
43 1
charge -1
@<TRIPOS>BOND
     1    27    28    1
     2    28    26    1
     3    26    25    1
     4    25    24    1
     5     1    24    1
     6     1    29    1
     7    29    30    1
     8    30    31   ar
     9    31    32   ar
    10    32    33   ar
    11    33    36    1
    12    36    37    2
    13    36    38   am
    14    38    40    1
    15    40    41    1
    16    41    42    1
    17    42    43   ar
    18    42    44   ar
    19    33    34   ar
    20    34    35   ar
    21     1     2    1
    22     2     3    2
    23     2     4    1
    24     4     5   ar
    25     5     6   ar
    26     6     7   ar
    27     7     8   ar
    28     8     9    1
    29     8    10   ar
    30    10    11   ar
    31    11    12   ar
    32    12    13   ar
    33    13    14    1
    34    14    15   ar
    35    15    16   ar
    36    16    17   ar
    37    17    18   ar
    38    18    20    1
    39    20    21    1
    40    20    22    1
    41    20    23    1
    42    18    19   ar
    43    35    30   ar
    44    13     4   ar
    45    19    14   ar
    46    12     6   ar
    47    38    39    1
