@<TRIPOS>MOLECULE
*****
 31 36 0 0 0
SMALL
GASTEIGER

@<TRIPOS>ATOM
      1 C         -15.8187   -3.7785   19.5853 C.3     1  UNL1        0.1161
      2 C         -14.3238   -3.7827   19.4616 C.3     1  UNL1        0.0510
      3 C         -13.5963   -5.0685   19.2022 C.2     1  UNL1       -0.0044
      4 C         -14.3637   -6.3502   19.0665 C.2     1  UNL1        0.0690
      5 N         -13.3806   -7.4546   18.8142 N.2     1  UNL1       -0.2526
      6 C         -12.0055   -6.8555   18.7940 C.2     1  UNL1        0.0627
      7 C         -10.6493   -7.4623   18.5882 C.3     1  UNL1        0.0717
      8 C          -9.4264   -6.5944   18.6222 C.2     1  UNL1       -0.0198
      9 C          -9.5597   -5.1197   18.8620 C.2     1  UNL1       -0.0042
     10 C         -10.9160   -4.5129   19.0678 C.2     1  UNL1        0.0006
     11 C         -12.1389   -5.3808   19.0338 C.2     1  UNL1        0.0111
     12 C         -15.8586   -6.3460   19.1902 C.3     1  UNL1        0.0972
     13 N         -16.5861   -5.0601   19.4496 N.3     1  UNL1       -0.2887
     14 H         -17.1055   -5.1857   20.3184 H       1  UNL1        0.1239
     15 C         -17.0119   -0.1707   20.3764 C.ar    1  UNL1        0.0769
     16 C         -18.3192   -0.8567   20.1114 C.ar    1  UNL1        0.1171
     17 N         -18.0313   -2.2917   19.7828 N.ar    1  UNL1       -0.2282
     18 C         -16.5462   -2.4925   19.8447 C.ar    1  UNL1        0.1318
     19 N         -15.9160   -1.1817   20.2116 N.ar    1  UNL1       -0.3397
     20 H         -14.9525   -1.0143   20.3245 H       1  UNL1        0.1671
     21 C         -16.4720    4.1600   21.4735 C.ar    1  UNL1        0.0000
     22 C         -17.2433    3.2472   22.3800 C.ar    1  UNL1        0.0000
     23 C         -17.4233    1.8037   22.0143 C.ar    1  UNL1        0.0015
     24 C         -16.8319    1.2729   20.7421 C.ar    1  UNL1        0.0172
     25 C         -16.0606    2.1857   19.8356 C.ar    1  UNL1        0.0015
     26 C         -15.8806    3.6292   20.2013 C.ar    1  UNL1        0.0000
     27 C         -16.6261   -7.6276   19.0545 C.3     1  UNL1        0.0523
     28 C         -16.7002   -8.7232   20.0764 C.3     1  UNL1        0.0363
     29 C         -17.5741   -9.8115   19.5265 C.3     1  UNL1        0.1423
     30 O         -18.0400   -9.3883   18.1650 O.3     1  UNL1       -0.3537
     31 C         -17.4541   -8.0387   17.8732 C.3     1  UNL1        0.1439
@<TRIPOS>BOND
     1    21    22   ar
     2    22    23   ar
     3    23    24   ar
     4    24    15    1
     5    15    16   ar
     6    16    17   ar
     7    17    18   ar
     8     1    18    1
     9     1     2    1
    10     2     3    1
    11     3     4    2
    12     4     5    1
    13     5     6    2
    14     6     7    1
    15     7     8    1
    16     8     9    2
    17     9    10    1
    18    10    11    2
    19     4    12    1
    20    12    27    1
    21    27    28    1
    22    28    29    1
    23    29    30    1
    24    30    31    1
    25    12    13    1
    26    18    19   ar
    27    24    25   ar
    28    25    26   ar
    29    26    21   ar
    30    19    15   ar
    31    13     1    1
    32    11     3    1
    33    31    27    1
    34    11     6    1
    35    13    14    1
    36    19    20    1
@<TRIPOS>MOLECULE
*****
 31 36 0 0 0
SMALL
GASTEIGER

@<TRIPOS>ATOM
      1 C          -1.7144    3.0989   20.5606 C.3     1  UNL1        0.1161
      2 C          -1.7637    3.2000   22.0564 C.3     1  UNL1        0.0510
      3 C          -3.0184    3.6626   22.7359 C.2     1  UNL1       -0.0044
      4 C          -4.2237    4.0242   21.9196 C.2     1  UNL1        0.0690
      5 N          -5.3122    4.4455   22.8618 N.2     1  UNL1       -0.2526
      6 C          -4.7796    4.3442   24.2604 C.2     1  UNL1        0.0627
      7 C          -5.4023    4.6301   25.5947 C.3     1  UNL1        0.0717
      8 C          -4.6074    4.4321   26.8512 C.2     1  UNL1       -0.0198
      9 C          -3.1897    3.9483   26.7734 C.2     1  UNL1       -0.0042
     10 C          -2.5669    3.6624   25.4391 C.2     1  UNL1        0.0006
     11 C          -3.3619    3.8604   24.1826 C.2     1  UNL1        0.0111
     12 C          -4.1744    3.9232   20.4238 C.3     1  UNL1        0.0972
     13 N          -2.9198    3.4605   19.7443 N.3     1  UNL1       -0.2887
     14 H          -2.6340    4.2087   19.1126 H       1  UNL1        0.1239
     15 C           1.3837    1.2434   19.1378 C.ar    1  UNL1        0.0769
     16 C           1.5584    2.6050   18.5333 C.ar    1  UNL1        0.1171
     17 N           0.4192    3.4658   18.9927 N.ar    1  UNL1       -0.2282
     18 C          -0.4597    2.6362   19.8811 C.ar    1  UNL1        0.1318
     19 N           0.1364    1.2627   19.9709 N.ar    1  UNL1       -0.3397
     20 H          -0.2272    0.5067   20.4860 H       1  UNL1        0.1671
     21 C           4.1207   -2.2806   18.5548 C.ar    1  UNL1        0.0000
     22 C           4.1028   -1.1700   17.5466 C.ar    1  UNL1        0.0000
     23 C           3.1905    0.0046   17.7410 C.ar    1  UNL1        0.0015
     24 C           2.2961    0.0687   18.9435 C.ar    1  UNL1        0.0172
     25 C           2.3140   -1.0418   19.9516 C.ar    1  UNL1        0.0015
     26 C           3.2263   -2.2165   19.7572 C.ar    1  UNL1        0.0000
     27 C          -5.3798    4.2848   19.6075 C.3     1  UNL1        0.0523
     28 C          -5.8475    5.6752   19.2941 C.3     1  UNL1        0.0363
     29 C          -7.0859    5.5692   18.4542 C.3     1  UNL1        0.1423
     30 O          -7.3834    4.1135   18.2486 O.3     1  UNL1       -0.3537
     31 C          -6.3290    3.3197   18.9614 C.3     1  UNL1        0.1439
@<TRIPOS>BOND
     1    21    22   ar
     2    22    23   ar
     3    23    24   ar
     4    24    15    1
     5    15    16   ar
     6    16    17   ar
     7    17    18   ar
     8     1    18    1
     9     1     2    1
    10     2     3    1
    11     3     4    2
    12     4     5    1
    13     5     6    2
    14     6     7    1
    15     7     8    1
    16     8     9    2
    17     9    10    1
    18    10    11    2
    19     4    12    1
    20    12    27    1
    21    27    28    1
    22    28    29    1
    23    29    30    1
    24    30    31    1
    25    12    13    1
    26    18    19   ar
    27    24    25   ar
    28    25    26   ar
    29    26    21   ar
    30    19    15   ar
    31    13     1    1
    32    11     3    1
    33    31    27    1
    34    11     6    1
    35    13    14    1
    36    19    20    1
@<TRIPOS>MOLECULE
*****
 31 36 0 0 0
SMALL
GASTEIGER

@<TRIPOS>ATOM
      1 C           4.0032   -1.2560   26.9878 C.3     1  UNL1        0.1161
      2 C           4.8092   -1.4296   28.2410 C.3     1  UNL1        0.0510
      3 C           4.2194   -1.0588   29.5693 C.2     1  UNL1       -0.0044
      4 C           2.8237   -0.5145   29.6446 C.2     1  UNL1        0.0690
      5 N           2.5111   -0.2380   31.0854 N.2     1  UNL1       -0.2526
      6 C           3.7136   -0.6114   31.9006 C.2     1  UNL1        0.0627
      7 C           3.9836   -0.5550   33.3749 C.3     1  UNL1        0.0717
      8 C           5.3094   -1.0059   33.9124 C.2     1  UNL1       -0.0198
      9 C           6.3652   -1.5132   32.9754 C.2     1  UNL1       -0.0042
     10 C           6.0952   -1.5696   31.5010 C.2     1  UNL1        0.0006
     11 C           4.7694   -1.1187   30.9636 C.2     1  UNL1        0.0111
     12 C           2.0177   -0.3410   28.3914 C.3     1  UNL1        0.0972
     13 N           2.6075   -0.7118   27.0630 N.3     1  UNL1       -0.2887
     14 H           2.5882    0.1298   26.4871 H       1  UNL1        0.1239
     15 C           4.8116   -2.2487   23.3236 C.ar    1  UNL1        0.0769
     16 C           6.1897   -2.1461   23.9068 C.ar    1  UNL1        0.1171
     17 N           6.0547   -1.7618   25.3504 N.ar    1  UNL1       -0.2282
     18 C           4.5931   -1.6268   25.6593 C.ar    1  UNL1        0.1318
     19 N           3.8248   -1.9278   24.4067 N.ar    1  UNL1       -0.3397
     20 H           2.8449   -1.9166   24.3121 H       1  UNL1        0.1671
     21 C           3.8127   -3.3294   19.0710 C.ar    1  UNL1        0.0000
     22 C           3.2395   -2.0858   19.6832 C.ar    1  UNL1        0.0000
     23 C           3.5725   -1.7256   21.1007 C.ar    1  UNL1        0.0015
     24 C           4.4786   -2.6090   21.9060 C.ar    1  UNL1        0.0172
     25 C           5.0518   -3.8526   21.2938 C.ar    1  UNL1        0.0015
     26 C           4.7189   -4.2128   19.8763 C.ar    1  UNL1        0.0000
     27 C           0.6220    0.2033   28.4667 C.3     1  UNL1        0.0523
     28 C          -0.5509   -0.4652   29.1205 C.3     1  UNL1        0.0363
     29 C          -1.7438    0.4300   28.9592 C.3     1  UNL1        0.1423
     30 O          -1.3080    1.6516   28.2058 O.3     1  UNL1       -0.3537
     31 C           0.1541    1.5115   27.9014 C.3     1  UNL1        0.1439
@<TRIPOS>BOND
     1    21    22   ar
     2    22    23   ar
     3    23    24   ar
     4    24    15    1
     5    15    16   ar
     6    16    17   ar
     7    17    18   ar
     8     1    18    1
     9     1     2    1
    10     2     3    1
    11     3     4    2
    12     4     5    1
    13     5     6    2
    14     6     7    1
    15     7     8    1
    16     8     9    2
    17     9    10    1
    18    10    11    2
    19     4    12    1
    20    12    27    1
    21    27    28    1
    22    28    29    1
    23    29    30    1
    24    30    31    1
    25    12    13    1
    26    18    19   ar
    27    24    25   ar
    28    25    26   ar
    29    26    21   ar
    30    19    15   ar
    31    13     1    1
    32    11     3    1
    33    31    27    1
    34    11     6    1
    35    13    14    1
    36    19    20    1
@<TRIPOS>MOLECULE
*****
 31 36 0 0 0
SMALL
GASTEIGER

@<TRIPOS>ATOM
      1 C           3.8883   -1.1238   24.3951 C.3     1  UNL1        0.1161
      2 C           3.6828   -1.0012   22.9142 C.3     1  UNL1        0.0510
      3 C           2.6174   -0.0919   22.3776 C.2     1  UNL1       -0.0044
      4 C           1.7575    0.6948   23.3218 C.2     1  UNL1        0.0690
      5 N           0.7939    1.5045   22.5058 N.2     1  UNL1       -0.2526
      6 C           1.0583    1.2182   21.0573 C.2     1  UNL1        0.0627
      7 C           0.4184    1.7285   19.8003 C.3     1  UNL1        0.0717
      8 C           0.9056    1.2520   18.4640 C.2     1  UNL1       -0.0198
      9 C           2.0326    0.2653   18.3848 C.2     1  UNL1       -0.0042
     10 C           2.6725   -0.2449   19.6418 C.2     1  UNL1        0.0006
     11 C           2.1853    0.2315   20.9781 C.2     1  UNL1        0.0111
     12 C           1.9630    0.5723   24.8026 C.3     1  UNL1        0.0972
     13 N           3.0284   -0.3370   25.3392 N.3     1  UNL1       -0.2887
     14 H           2.5617   -1.0123   25.9447 H       1  UNL1        0.1239
     15 C           6.4975   -3.8906   25.1713 C.ar    1  UNL1        0.0769
     16 C           6.6892   -2.9743   26.3434 C.ar    1  UNL1        0.1171
     17 N           5.7352   -1.8264   26.1953 N.ar    1  UNL1       -0.2282
     18 C           4.9538   -2.0331   24.9317 C.ar    1  UNL1        0.1318
     19 N           5.4249   -3.3088   24.2988 N.ar    1  UNL1       -0.3397
     20 H           5.0891   -3.6963   23.4584 H       1  UNL1        0.1671
     21 C           8.7452   -7.7132   24.4066 C.ar    1  UNL1        0.0000
     22 C           8.7125   -6.6401   23.3592 C.ar    1  UNL1        0.0000
     23 C           7.9633   -5.3659   23.6141 C.ar    1  UNL1        0.0015
     24 C           7.2468   -5.1648   24.9164 C.ar    1  UNL1        0.0172
     25 C           7.2795   -6.2380   25.9639 C.ar    1  UNL1        0.0015
     26 C           8.0287   -7.5122   25.7090 C.ar    1  UNL1        0.0000
     27 C           1.1030    1.3591   25.7468 C.3     1  UNL1        0.0523
     28 C          -0.3958    1.3353   25.8021 C.3     1  UNL1        0.0363
     29 C          -0.8343    2.2693   26.8910 C.3     1  UNL1        0.1423
     30 O           0.3935    2.8702   27.5085 O.3     1  UNL1       -0.3537
     31 C           1.5909    2.3076   26.8014 C.3     1  UNL1        0.1439
@<TRIPOS>BOND
     1    21    22   ar
     2    22    23   ar
     3    23    24   ar
     4    24    15    1
     5    15    16   ar
     6    16    17   ar
     7    17    18   ar
     8     1    18    1
     9     1     2    1
    10     2     3    1
    11     3     4    2
    12     4     5    1
    13     5     6    2
    14     6     7    1
    15     7     8    1
    16     8     9    2
    17     9    10    1
    18    10    11    2
    19     4    12    1
    20    12    27    1
    21    27    28    1
    22    28    29    1
    23    29    30    1
    24    30    31    1
    25    12    13    1
    26    18    19   ar
    27    24    25   ar
    28    25    26   ar
    29    26    21   ar
    30    19    15   ar
    31    13     1    1
    32    11     3    1
    33    31    27    1
    34    11     6    1
    35    13    14    1
    36    19    20    1
@<TRIPOS>MOLECULE
*****
 31 36 0 0 0
SMALL
GASTEIGER

@<TRIPOS>ATOM
      1 C           4.5709   -1.5817   27.7063 C.3     1  UNL1        0.1161
      2 C           5.1785   -1.5106   29.0759 C.3     1  UNL1        0.0510
      3 C           4.4119   -0.8885   30.2051 C.2     1  UNL1       -0.0044
      4 C           3.0377   -0.3375   29.9648 C.2     1  UNL1        0.0690
      5 N           2.5257    0.2135   31.2626 N.2     1  UNL1       -0.2526
      6 C           3.5836    0.0029   32.3050 C.2     1  UNL1        0.0627
      7 C           3.6359    0.3434   33.7649 C.3     1  UNL1        0.0717
      8 C           4.8540    0.0028   34.5712 C.2     1  UNL1       -0.0198
      9 C           6.0198   -0.6783   33.9176 C.2     1  UNL1       -0.0042
     10 C           5.9674   -1.0187   32.4577 C.2     1  UNL1        0.0006
     11 C           4.7493   -0.6781   31.6515 C.2     1  UNL1        0.0111
     12 C           2.4300   -0.4086   28.5952 C.3     1  UNL1        0.0972
     13 N           3.1966   -1.0307   27.4659 N.3     1  UNL1       -0.2887
     14 H           3.2879   -0.3166   26.7434 H       1  UNL1        0.1239
     15 C           6.6045   -3.7872   25.2434 C.ar    1  UNL1        0.0769
     16 C           6.4301   -2.5356   24.4353 C.ar    1  UNL1        0.1171
     17 N           5.6470   -1.5570   25.2595 N.ar    1  UNL1       -0.2282
     18 C           5.3376   -2.2039   26.5770 C.ar    1  UNL1        0.1318
     19 N           5.9293   -3.5822   26.5670 N.ar    1  UNL1       -0.3397
     20 H           5.8827   -4.2373   27.3005 H       1  UNL1        0.1671
     21 C           8.7728   -7.5044   23.9278 C.ar    1  UNL1        0.0000
     22 C           8.1002   -7.4631   25.2679 C.ar    1  UNL1        0.0000
     23 C           7.3775   -6.2241   25.7064 C.ar    1  UNL1        0.0015
     24 C           7.3273   -5.0263   24.8048 C.ar    1  UNL1        0.0172
     25 C           7.9999   -5.0676   23.4647 C.ar    1  UNL1        0.0015
     26 C           8.7227   -6.3066   23.0262 C.ar    1  UNL1        0.0000
     27 C           1.0558    0.1424   28.3549 C.3     1  UNL1        0.0523
     28 C          -0.2106   -0.3333   29.0030 C.3     1  UNL1        0.0363
     29 C          -1.3425    0.4962   28.4729 C.3     1  UNL1        0.1423
     30 O          -0.7756    1.4845   27.4973 O.3     1  UNL1       -0.3537
     31 C           0.7066    1.2659   27.4243 C.3     1  UNL1        0.1439
@<TRIPOS>BOND
     1    21    22   ar
     2    22    23   ar
     3    23    24   ar
     4    24    15    1
     5    15    16   ar
     6    16    17   ar
     7    17    18   ar
     8     1    18    1
     9     1     2    1
    10     2     3    1
    11     3     4    2
    12     4     5    1
    13     5     6    2
    14     6     7    1
    15     7     8    1
    16     8     9    2
    17     9    10    1
    18    10    11    2
    19     4    12    1
    20    12    27    1
    21    27    28    1
    22    28    29    1
    23    29    30    1
    24    30    31    1
    25    12    13    1
    26    18    19   ar
    27    24    25   ar
    28    25    26   ar
    29    26    21   ar
    30    19    15   ar
    31    13     1    1
    32    11     3    1
    33    31    27    1
    34    11     6    1
    35    13    14    1
    36    19    20    1
@<TRIPOS>MOLECULE
*****
 31 36 0 0 0
SMALL
GASTEIGER

@<TRIPOS>ATOM
      1 C           4.0266   -0.8914   23.8443 C.3     1  UNL1        0.1161
      2 C           3.1934   -0.2875   24.9357 C.3     1  UNL1        0.0510
      3 C           1.9923    0.5421   24.5905 C.2     1  UNL1       -0.0044
      4 C           1.6244    0.7678   23.1539 C.2     1  UNL1        0.0690
      5 N           0.3937    1.6246   23.1197 N.2     1  UNL1       -0.2526
      6 C           0.0010    1.9285   24.5352 C.2     1  UNL1        0.0627
      7 C          -1.1286    2.7280   25.1137 C.3     1  UNL1        0.0717
      8 C          -1.2702    2.8584   26.6013 C.2     1  UNL1       -0.0198
      9 C          -0.2822    2.1894   27.5103 C.2     1  UNL1       -0.0042
     10 C           0.8474    1.3899   26.9317 C.2     1  UNL1        0.0006
     11 C           0.9890    1.2595   25.4442 C.2     1  UNL1        0.0111
     12 C           2.4577    0.1638   22.0626 C.3     1  UNL1        0.0972
     13 N           3.6587   -0.6657   22.4078 N.3     1  UNL1       -0.2887
     14 H           4.4619   -0.2196   21.9647 H       1  UNL1        0.1239
     15 C           6.6585   -3.6193   24.6793 C.ar    1  UNL1        0.0769
     16 C           7.4934   -2.3759   24.7624 C.ar    1  UNL1        0.1171
     17 N           6.6092   -1.2027   24.4597 N.ar    1  UNL1       -0.2282
     18 C           5.2277   -1.7210   24.1896 C.ar    1  UNL1        0.1318
     19 N           5.2582   -3.2145   24.3253 N.ar    1  UNL1       -0.3397
     20 H           4.4934   -3.8223   24.2035 H       1  UNL1        0.1671
     21 C           8.1011   -7.8253   25.3709 C.ar    1  UNL1        0.0000
     22 C           7.3623   -7.0980   26.4550 C.ar    1  UNL1        0.0000
     23 C           6.8815   -5.6961   26.2244 C.ar    1  UNL1        0.0015
     24 C           7.1394   -5.0213   24.9098 C.ar    1  UNL1        0.0172
     25 C           7.8781   -5.7486   23.8257 C.ar    1  UNL1        0.0015
     26 C           8.3590   -7.1506   24.0563 C.ar    1  UNL1        0.0000
     27 C           2.0898    0.3895   20.6260 C.3     1  UNL1        0.0523
     28 C           2.9745    0.9883   19.5730 C.3     1  UNL1        0.0363
     29 C           2.2041    1.0249   18.2863 C.3     1  UNL1        0.1423
     30 O           0.8434    0.4487   18.5443 O.3     1  UNL1       -0.3537
     31 C           0.7727    0.0560   19.9902 C.3     1  UNL1        0.1439
@<TRIPOS>BOND
     1    21    22   ar
     2    22    23   ar
     3    23    24   ar
     4    24    15    1
     5    15    16   ar
     6    16    17   ar
     7    17    18   ar
     8     1    18    1
     9     1     2    1
    10     2     3    1
    11     3     4    2
    12     4     5    1
    13     5     6    2
    14     6     7    1
    15     7     8    1
    16     8     9    2
    17     9    10    1
    18    10    11    2
    19     4    12    1
    20    12    27    1
    21    27    28    1
    22    28    29    1
    23    29    30    1
    24    30    31    1
    25    12    13    1
    26    18    19   ar
    27    24    25   ar
    28    25    26   ar
    29    26    21   ar
    30    19    15   ar
    31    13     1    1
    32    11     3    1
    33    31    27    1
    34    11     6    1
    35    13    14    1
    36    19    20    1
@<TRIPOS>MOLECULE
*****
 31 36 0 0 0
SMALL
GASTEIGER

@<TRIPOS>ATOM
      1 C           3.8908   -1.2435   26.0846 C.3     1  UNL1        0.1161
      2 C           5.0745   -1.7558   26.8504 C.3     1  UNL1        0.0510
      3 C           5.1311   -1.5935   28.3405 C.2     1  UNL1       -0.0044
      4 C           4.0040   -0.9189   29.0648 C.2     1  UNL1        0.0690
      5 N           4.3367   -0.9027   30.5273 N.2     1  UNL1       -0.2526
      6 C           5.6695   -1.5672   30.7069 C.2     1  UNL1        0.0627
      7 C           6.4994   -1.8387   31.9265 C.3     1  UNL1        0.0717
      8 C           7.8202   -2.5372   31.7946 C.2     1  UNL1       -0.0198
      9 C           8.3112   -2.9641   30.4430 C.2     1  UNL1       -0.0042
     10 C           7.4813   -2.6926   29.2234 C.2     1  UNL1        0.0006
     11 C           6.1604   -1.9942   29.3554 C.2     1  UNL1        0.0111
     12 C           2.8203   -0.4066   28.2990 C.3     1  UNL1        0.0972
     13 N           2.7637   -0.5689   26.8089 N.3     1  UNL1       -0.2887
     14 H           2.6784    0.3676   26.4137 H       1  UNL1        0.1239
     15 C           3.2523   -1.0934   22.2590 C.ar    1  UNL1        0.0769
     16 C           4.2420   -2.2174   22.3438 C.ar    1  UNL1        0.1171
     17 N           4.6016   -2.4105   23.7872 N.ar    1  UNL1       -0.2282
     18 C           3.8342   -1.4058   24.5944 C.ar    1  UNL1        0.1318
     19 N           3.0003   -0.5918   23.6500 N.ar    1  UNL1       -0.3397
     20 H           2.3941    0.1428   23.8993 H       1  UNL1        0.1671
     21 C           1.3699    0.4948   18.4928 C.ar    1  UNL1        0.0000
     22 C           2.7701   -0.0424   18.4626 C.ar    1  UNL1        0.0000
     23 C           3.3975   -0.5718   19.7179 C.ar    1  UNL1        0.0015
     24 C           2.6248   -0.5640   21.0036 C.ar    1  UNL1        0.0172
     25 C           1.2247   -0.0268   21.0338 C.ar    1  UNL1        0.0015
     26 C           0.5972    0.5026   19.7785 C.ar    1  UNL1        0.0000
     27 C           1.6932    0.2679   29.0233 C.3     1  UNL1        0.0523
     28 C           1.7992    1.5108   29.8564 C.3     1  UNL1        0.0363
     29 C           0.4337    1.8291   30.3897 C.3     1  UNL1        0.1423
     30 O          -0.5161    0.7830   29.8860 O.3     1  UNL1       -0.3537
     31 C           0.2623   -0.1818   29.0416 C.3     1  UNL1        0.1439
@<TRIPOS>BOND
     1    21    22   ar
     2    22    23   ar
     3    23    24   ar
     4    24    15    1
     5    15    16   ar
     6    16    17   ar
     7    17    18   ar
     8     1    18    1
     9     1     2    1
    10     2     3    1
    11     3     4    2
    12     4     5    1
    13     5     6    2
    14     6     7    1
    15     7     8    1
    16     8     9    2
    17     9    10    1
    18    10    11    2
    19     4    12    1
    20    12    27    1
    21    27    28    1
    22    28    29    1
    23    29    30    1
    24    30    31    1
    25    12    13    1
    26    18    19   ar
    27    24    25   ar
    28    25    26   ar
    29    26    21   ar
    30    19    15   ar
    31    13     1    1
    32    11     3    1
    33    31    27    1
    34    11     6    1
    35    13    14    1
    36    19    20    1
@<TRIPOS>MOLECULE
*****
 31 36 0 0 0
SMALL
GASTEIGER

@<TRIPOS>ATOM
      1 C           5.0269   -2.3341   24.3993 C.3     1  UNL1        0.1161
      2 C           4.0243   -1.2347   24.5893 C.3     1  UNL1        0.0510
      3 C           3.2053   -0.7574   23.4268 C.2     1  UNL1       -0.0044
      4 C           3.3889   -1.3796   22.0743 C.2     1  UNL1        0.0690
      5 N           2.4454   -0.7061   21.1224 N.2     1  UNL1       -0.2526
      6 C           1.6786    0.3323   21.8865 C.2     1  UNL1        0.0627
      7 C           0.6135    1.3026   21.4695 C.3     1  UNL1        0.0717
      8 C           0.0180    2.2411   22.4767 C.2     1  UNL1       -0.0198
      9 C           0.4876    2.2093   23.9009 C.2     1  UNL1       -0.0042
     10 C           1.5528    1.2391   24.3179 C.2     1  UNL1        0.0006
     11 C           2.1483    0.3005   23.3108 C.2     1  UNL1        0.0111
     12 C           4.3916   -2.4790   21.8843 C.3     1  UNL1        0.0972
     13 N           5.2106   -2.9562   23.0468 N.3     1  UNL1       -0.2887
     14 H           6.1892   -2.8231   22.7919 H       1  UNL1        0.1239
     15 C           6.5497   -3.3613   27.8186 C.ar    1  UNL1        0.0769
     16 C           7.6627   -3.7301   26.8831 C.ar    1  UNL1        0.1171
     17 N           7.2278   -3.3903   25.4883 N.ar    1  UNL1       -0.2282
     18 C           5.8460   -2.8114   25.5619 C.ar    1  UNL1        0.1318
     19 N           5.4269   -2.7934   27.0020 N.ar    1  UNL1       -0.3397
     20 H           4.5660   -2.4664   27.3501 H       1  UNL1        0.1671
     21 C           6.5746   -3.8690   32.2897 C.ar    1  UNL1        0.0000
     22 C           6.1260   -2.5719   31.6847 C.ar    1  UNL1        0.0000
     23 C           6.1176   -2.4027   30.1944 C.ar    1  UNL1        0.0015
     24 C           6.5580   -3.5306   29.3090 C.ar    1  UNL1        0.0172
     25 C           7.0067   -4.8277   29.9140 C.ar    1  UNL1        0.0015
     26 C           7.0150   -4.9969   31.4044 C.ar    1  UNL1        0.0000
     27 C           4.5752   -3.1011   20.5318 C.3     1  UNL1        0.0523
     28 C           4.0668   -4.4458   20.1036 C.3     1  UNL1        0.0363
     29 C           4.4769   -4.6635   18.6771 C.3     1  UNL1        0.1423
     30 O           5.2386   -3.4535   18.2240 O.3     1  UNL1       -0.3537
     31 C           5.2994   -2.4878   19.3702 C.3     1  UNL1        0.1439
@<TRIPOS>BOND
     1    21    22   ar
     2    22    23   ar
     3    23    24   ar
     4    24    15    1
     5    15    16   ar
     6    16    17   ar
     7    17    18   ar
     8     1    18    1
     9     1     2    1
    10     2     3    1
    11     3     4    2
    12     4     5    1
    13     5     6    2
    14     6     7    1
    15     7     8    1
    16     8     9    2
    17     9    10    1
    18    10    11    2
    19     4    12    1
    20    12    27    1
    21    27    28    1
    22    28    29    1
    23    29    30    1
    24    30    31    1
    25    12    13    1
    26    18    19   ar
    27    24    25   ar
    28    25    26   ar
    29    26    21   ar
    30    19    15   ar
    31    13     1    1
    32    11     3    1
    33    31    27    1
    34    11     6    1
    35    13    14    1
    36    19    20    1
@<TRIPOS>MOLECULE
*****
 31 36 0 0 0
SMALL
GASTEIGER

@<TRIPOS>ATOM
      1 C           4.6586   -1.5970   27.7377 C.3     1  UNL1        0.1161
      2 C           4.2014   -0.8465   28.9534 C.3     1  UNL1        0.0510
      3 C           4.7467   -1.2036   30.3043 C.2     1  UNL1       -0.0044
      4 C           5.7491   -2.3112   30.4397 C.2     1  UNL1        0.0690
      5 N           6.1073   -2.4375   31.8908 N.2     1  UNL1       -0.2526
      6 C           5.3262   -1.4079   32.6523 C.2     1  UNL1        0.0627
      7 C           5.2720   -1.0662   34.1118 C.3     1  UNL1        0.0717
      8 C           4.3770    0.0380   34.5909 C.2     1  UNL1       -0.0198
      9 C           3.5361    0.8006   33.6104 C.2     1  UNL1       -0.0042
     10 C           3.5902    0.4589   32.1508 C.2     1  UNL1        0.0006
     11 C           4.4853   -0.6453   31.6718 C.2     1  UNL1        0.0111
     12 C           6.2063   -3.0618   29.2240 C.3     1  UNL1        0.0972
     13 N           5.6610   -2.7047   27.8730 N.3     1  UNL1       -0.2887
     14 H           5.2216   -3.5466   27.5009 H       1  UNL1        0.1239
     15 C           3.6156   -1.2890   24.0118 C.ar    1  UNL1        0.0769
     16 C           2.9327   -0.0918   24.6038 C.ar    1  UNL1        0.1171
     17 N           3.2403   -0.0615   26.0716 N.ar    1  UNL1       -0.2282
     18 C           4.1132   -1.2399   26.3867 C.ar    1  UNL1        0.1318
     19 N           4.3452   -1.9985   25.1137 N.ar    1  UNL1       -0.3397
     20 H           4.8820   -2.8182   25.0181 H       1  UNL1        0.1671
     21 C           3.4964   -2.5334   19.6889 C.ar    1  UNL1        0.0000
     22 C           4.2861   -3.3369   20.6792 C.ar    1  UNL1        0.0000
     23 C           4.3258   -2.9221   22.1201 C.ar    1  UNL1        0.0015
     24 C           3.5758   -1.7038   22.5708 C.ar    1  UNL1        0.0172
     25 C           2.7860   -0.9003   21.5805 C.ar    1  UNL1        0.0015
     26 C           2.7463   -1.3151   20.1396 C.ar    1  UNL1        0.0000
     27 C           7.2087   -4.1694   29.3593 C.3     1  UNL1        0.0523
     28 C           6.9247   -5.5616   29.8400 C.3     1  UNL1        0.0363
     29 C           8.2116   -6.3320   29.8155 C.3     1  UNL1        0.1423
     30 O           9.2908   -5.4158   29.3197 O.3     1  UNL1       -0.3537
     31 C           8.6710   -4.0792   29.0378 C.3     1  UNL1        0.1439
@<TRIPOS>BOND
     1    21    22   ar
     2    22    23   ar
     3    23    24   ar
     4    24    15    1
     5    15    16   ar
     6    16    17   ar
     7    17    18   ar
     8     1    18    1
     9     1     2    1
    10     2     3    1
    11     3     4    2
    12     4     5    1
    13     5     6    2
    14     6     7    1
    15     7     8    1
    16     8     9    2
    17     9    10    1
    18    10    11    2
    19     4    12    1
    20    12    27    1
    21    27    28    1
    22    28    29    1
    23    29    30    1
    24    30    31    1
    25    12    13    1
    26    18    19   ar
    27    24    25   ar
    28    25    26   ar
    29    26    21   ar
    30    19    15   ar
    31    13     1    1
    32    11     3    1
    33    31    27    1
    34    11     6    1
    35    13    14    1
    36    19    20    1
