@<TRIPOS>MOLECULE
*****
 30 32 0 0 0
SMALL
GASTEIGER

@<TRIPOS>ATOM
      1 C          -8.4035  -18.2535   22.4697 C.2     1  UNL1        0.2465
      2 O          -7.8352  -17.0828   21.7237 O.2     1  UNL1       -0.2730
      3 N          -9.1200  -18.0383   23.7698 N.am    1  UNL1       -0.2729
      4 C          -9.6883  -19.2090   24.5157 C.3     1  UNL1        0.1152
      5 C          -8.2552  -19.6395   21.9155 C.3     1  UNL1        0.1834
      6 C          -8.3872  -20.1693   17.9847 C.3     1  UNL1        0.0952
      7 C          -8.8308  -19.9725   19.4041 C.2     1  UNL1        0.2302
      8 O         -10.2934  -19.9118   19.7312 O.2     1  UNL1       -0.2745
      9 N          -7.8117  -19.8363   20.4962 N.am    1  UNL1       -0.2497
     10 C          -6.3490  -19.8970   20.1691 C.ar    1  UNL1        0.0543
     11 C          -5.6158  -18.6486   19.7769 C.ar    1  UNL1        0.0149
     12 C          -4.1532  -18.7092   19.4497 C.ar    1  UNL1        0.0013
     13 C          -3.4238  -20.0183   19.5148 C.ar    1  UNL1        0.0001
     14 C          -4.1570  -21.2667   19.9070 C.ar    1  UNL1        0.0013
     15 C          -5.6196  -21.2060   20.2341 C.ar    1  UNL1        0.0149
     16 C          -9.2683  -16.6523   24.3239 C.3     1  UNL1        0.1139
     17 C          -8.2424  -16.1111   25.2751 C.ar    1  UNL1       -0.0029
     18 C          -8.5515  -16.0211   26.7401 C.ar    1  UNL1       -0.0026
     19 C          -7.5256  -15.4800   27.6912 C.ar    1  UNL1       -0.0003
     20 C          -6.1906  -15.0289   27.1773 C.ar    1  UNL1       -0.0000
     21 C          -5.8814  -15.1188   25.7123 C.ar    1  UNL1       -0.0003
     22 C          -6.9073  -15.6600   24.7612 C.ar    1  UNL1       -0.0026
     23 C         -10.4424  -15.8074   23.9269 C.3     1  UNL1        0.0968
     24 N         -11.2710  -16.1872   22.7355 N.3     1  UNL1       -0.2689
     25 C         -12.4116  -17.1614   22.7293 C.3     1  UNL1        0.0748
     26 C         -12.9500  -17.2358   21.3312 C.3     1  UNL1        0.0480
     27 C         -12.1421  -16.3075   20.4734 C.3     1  UNL1        0.1278
     28 O         -12.3376  -16.0692   19.0055 O.3     1  UNL1       -0.3830
     29 C         -11.1044  -15.6595   21.3413 C.3     1  UNL1        0.1017
     30 H         -13.0751  -16.6118   18.6852 H       1  UNL1        0.2104
@<TRIPOS>BOND
     1     6     7    1
     2     7     8    2
     3     7     9   am
     4     9     5    1
     5     5     1    1
     6     1     2    2
     7     1     3   am
     8     3     4    1
     9     3    16    1
    10    16    23    1
    11    23    24    1
    12    24    25    1
    13    25    26    1
    14    26    27    1
    15    27    28    1
    16    27    29    1
    17    16    17    1
    18    17    18   ar
    19    18    19   ar
    20    19    20   ar
    21    20    21   ar
    22    21    22   ar
    23     9    10    1
    24    10    11   ar
    25    11    12   ar
    26    12    13   ar
    27    13    14   ar
    28    14    15   ar
    29    29    24    1
    30    22    17   ar
    31    15    10   ar
    32    28    30    1
@<TRIPOS>MOLECULE
*****
 30 32 0 0 0
SMALL
GASTEIGER

@<TRIPOS>ATOM
      1 C          -7.7917  -18.3663   21.9473 C.2     1  UNL1        0.2465
      2 O          -7.3767  -17.0265   21.4156 O.2     1  UNL1       -0.2730
      3 N          -8.6431  -18.4533   23.1793 N.am    1  UNL1       -0.2729
      4 C          -9.0581  -19.7930   23.7110 C.3     1  UNL1        0.1152
      5 C          -7.3553  -19.6190   21.2472 C.3     1  UNL1        0.1834
      6 C          -4.0322  -21.2133   19.7757 C.3     1  UNL1        0.0952
      7 C          -5.4852  -20.9867   20.0717 C.2     1  UNL1        0.2302
      8 O          -6.5210  -21.9014   19.4881 O.2     1  UNL1       -0.2745
      9 N          -5.9024  -19.8456   20.9513 N.am    1  UNL1       -0.2497
     10 C          -4.8666  -18.9310   21.5349 C.ar    1  UNL1        0.0543
     11 C          -3.8408  -18.2945   20.6446 C.ar    1  UNL1        0.0149
     12 C          -2.8050  -17.3799   21.2283 C.ar    1  UNL1        0.0013
     13 C          -2.7950  -17.1017   22.7022 C.ar    1  UNL1        0.0001
     14 C          -3.8208  -17.7382   23.5925 C.ar    1  UNL1        0.0013
     15 C          -4.8566  -18.6528   23.0088 C.ar    1  UNL1        0.0149
     16 C          -9.0795  -17.2005   23.8793 C.3     1  UNL1        0.1139
     17 C          -8.1760  -16.5494   24.8843 C.ar    1  UNL1       -0.0029
     18 C          -8.5405  -16.5613   26.3392 C.ar    1  UNL1       -0.0026
     19 C          -7.6370  -15.9101   27.3440 C.ar    1  UNL1       -0.0003
     20 C          -6.3690  -15.2472   26.8939 C.ar    1  UNL1       -0.0000
     21 C          -6.0045  -15.2353   25.4390 C.ar    1  UNL1       -0.0003
     22 C          -6.9080  -15.8864   24.4341 C.ar    1  UNL1       -0.0026
     23 C         -10.4193  -16.5988   23.5746 C.3     1  UNL1        0.0968
     24 N         -10.8644  -16.4415   22.1508 N.3     1  UNL1       -0.2689
     25 C         -11.9429  -17.2326   21.4717 C.3     1  UNL1        0.0748
     26 C         -12.0543  -16.7454   20.0573 C.3     1  UNL1        0.0480
     27 C         -11.0446  -15.6533   19.8624 C.3     1  UNL1        0.1278
     28 O         -10.8113  -14.8841   18.5960 O.3     1  UNL1       -0.3830
     29 C         -10.3093  -15.4655   21.1562 C.3     1  UNL1        0.1017
     30 H         -11.4186  -15.2006   17.9089 H       1  UNL1        0.2104
@<TRIPOS>BOND
     1     6     7    1
     2     7     8    2
     3     7     9   am
     4     9     5    1
     5     5     1    1
     6     1     2    2
     7     1     3   am
     8     3     4    1
     9     3    16    1
    10    16    23    1
    11    23    24    1
    12    24    25    1
    13    25    26    1
    14    26    27    1
    15    27    28    1
    16    27    29    1
    17    16    17    1
    18    17    18   ar
    19    18    19   ar
    20    19    20   ar
    21    20    21   ar
    22    21    22   ar
    23     9    10    1
    24    10    11   ar
    25    11    12   ar
    26    12    13   ar
    27    13    14   ar
    28    14    15   ar
    29    29    24    1
    30    22    17   ar
    31    15    10   ar
    32    28    30    1
@<TRIPOS>MOLECULE
*****
 30 32 0 0 0
SMALL
GASTEIGER

@<TRIPOS>ATOM
      1 C          -7.8821  -18.3050   22.1275 C.2     1  UNL1        0.2465
      2 O          -8.2382  -19.4700   23.0027 O.2     1  UNL1       -0.2730
      3 N          -8.1868  -16.9072   22.5787 N.am    1  UNL1       -0.2729
      4 C          -7.8306  -15.7423   21.7035 C.3     1  UNL1        0.1152
      5 C          -7.2212  -18.5377   20.8012 C.3     1  UNL1        0.1834
      6 C          -4.5528  -21.3725   20.0307 C.3     1  UNL1        0.0952
      7 C          -5.8569  -20.6344   20.0996 C.2     1  UNL1        0.2302
      8 O          -7.1006  -21.2551   19.5359 O.2     1  UNL1       -0.2745
      9 N          -5.9171  -19.2757   20.7323 N.am    1  UNL1       -0.2497
     10 C          -4.6734  -18.6551   21.2960 C.ar    1  UNL1        0.0543
     11 C          -3.5347  -18.2987   20.3870 C.ar    1  UNL1        0.0149
     12 C          -2.2909  -17.6780   20.9507 C.ar    1  UNL1        0.0013
     13 C          -2.1858  -17.4137   22.4235 C.ar    1  UNL1        0.0001
     14 C          -3.3245  -17.7701   23.3325 C.ar    1  UNL1        0.0013
     15 C          -4.5683  -18.3908   22.7688 C.ar    1  UNL1        0.0149
     16 C          -8.8477  -16.6745   23.9050 C.3     1  UNL1        0.1139
     17 C          -8.0389  -16.1879   25.0708 C.ar    1  UNL1       -0.0029
     18 C          -8.6348  -16.1832   26.4473 C.ar    1  UNL1       -0.0026
     19 C          -7.8261  -15.6966   27.6131 C.ar    1  UNL1       -0.0003
     20 C          -6.4213  -15.2147   27.4024 C.ar    1  UNL1       -0.0000
     21 C          -5.8253  -15.2194   26.0259 C.ar    1  UNL1       -0.0003
     22 C          -6.6341  -15.7060   24.8601 C.ar    1  UNL1       -0.0026
     23 C         -10.3172  -16.9283   24.0654 C.3     1  UNL1        0.0968
     24 N         -11.1957  -17.0401   22.8546 N.3     1  UNL1       -0.2689
     25 C         -11.9976  -18.2433   22.4553 C.3     1  UNL1        0.0748
     26 C         -12.7239  -17.9152   21.1845 C.3     1  UNL1        0.0480
     27 C         -12.3709  -16.5093   20.7985 C.3     1  UNL1        0.1278
     28 O         -12.8741  -15.7734   19.5923 O.3     1  UNL1       -0.3830
     29 C         -11.4264  -15.9685   21.8308 C.3     1  UNL1        0.1017
     30 H         -13.4714  -16.3483   19.0887 H       1  UNL1        0.2104
@<TRIPOS>BOND
     1     6     7    1
     2     7     8    2
     3     7     9   am
     4     9     5    1
     5     5     1    1
     6     1     2    2
     7     1     3   am
     8     3     4    1
     9     3    16    1
    10    16    23    1
    11    23    24    1
    12    24    25    1
    13    25    26    1
    14    26    27    1
    15    27    28    1
    16    27    29    1
    17    16    17    1
    18    17    18   ar
    19    18    19   ar
    20    19    20   ar
    21    20    21   ar
    22    21    22   ar
    23     9    10    1
    24    10    11   ar
    25    11    12   ar
    26    12    13   ar
    27    13    14   ar
    28    14    15   ar
    29    29    24    1
    30    22    17   ar
    31    15    10   ar
    32    28    30    1
@<TRIPOS>MOLECULE
*****
 30 32 0 0 0
SMALL
GASTEIGER

@<TRIPOS>ATOM
      1 C          -6.3863  -16.6794   23.0344 C.2     1  UNL1        0.2465
      2 O          -7.2152  -16.7581   21.7868 O.2     1  UNL1       -0.2730
      3 N          -5.1965  -17.5775   23.2022 N.am    1  UNL1       -0.2729
      4 C          -4.3675  -17.4988   24.4498 C.3     1  UNL1        0.1152
      5 C          -6.7470  -15.7028   24.1142 C.3     1  UNL1        0.1834
      6 C          -8.5571  -16.0954   27.6241 C.3     1  UNL1        0.0952
      7 C          -7.5355  -15.7262   26.5895 C.2     1  UNL1        0.2302
      8 O          -6.2810  -15.0114   26.9960 O.2     1  UNL1       -0.2745
      9 N          -7.7685  -16.0719   25.1487 N.am    1  UNL1       -0.2497
     10 C          -9.0230  -16.7868   24.7422 C.ar    1  UNL1        0.0543
     11 C          -9.3358  -18.1373   25.3150 C.ar    1  UNL1        0.0149
     12 C         -10.5903  -18.8522   24.9085 C.ar    1  UNL1        0.0013
     13 C         -11.5321  -18.2164   23.9294 C.ar    1  UNL1        0.0001
     14 C         -11.2193  -16.8658   23.3567 C.ar    1  UNL1        0.0013
     15 C          -9.9648  -16.1510   23.7631 C.ar    1  UNL1        0.0149
     16 C          -4.8358  -18.5541   22.1223 C.3     1  UNL1        0.1139
     17 C          -3.6575  -18.2876   21.2330 C.ar    1  UNL1       -0.0029
     18 C          -3.5769  -18.9329   19.8814 C.ar    1  UNL1       -0.0026
     19 C          -2.3987  -18.6664   18.9922 C.ar    1  UNL1       -0.0003
     20 C          -1.3011  -17.7545   19.4546 C.ar    1  UNL1       -0.0000
     21 C          -1.3818  -17.1092   20.8063 C.ar    1  UNL1       -0.0003
     22 C          -2.5600  -17.3758   21.6955 C.ar    1  UNL1       -0.0026
     23 C          -5.6533  -19.7972   21.9318 C.3     1  UNL1        0.0968
     24 N          -6.9774  -19.7240   21.2307 N.3     1  UNL1       -0.2689
     25 C          -7.1862  -19.6336   19.7481 C.3     1  UNL1        0.0748
     26 C          -8.6631  -19.5820   19.4903 C.3     1  UNL1        0.0480
     27 C          -9.3669  -19.6406   20.8137 C.3     1  UNL1        0.1278
     28 O         -10.8518  -19.6157   21.0243 O.3     1  UNL1       -0.3830
     29 C          -8.3251  -19.7283   21.8893 C.3     1  UNL1        0.1017
     30 H         -11.2992  -19.5552   20.1658 H       1  UNL1        0.2104
@<TRIPOS>BOND
     1     6     7    1
     2     7     8    2
     3     7     9   am
     4     9     5    1
     5     5     1    1
     6     1     2    2
     7     1     3   am
     8     3     4    1
     9     3    16    1
    10    16    23    1
    11    23    24    1
    12    24    25    1
    13    25    26    1
    14    26    27    1
    15    27    28    1
    16    27    29    1
    17    16    17    1
    18    17    18   ar
    19    18    19   ar
    20    19    20   ar
    21    20    21   ar
    22    21    22   ar
    23     9    10    1
    24    10    11   ar
    25    11    12   ar
    26    12    13   ar
    27    13    14   ar
    28    14    15   ar
    29    29    24    1
    30    22    17   ar
    31    15    10   ar
    32    28    30    1
@<TRIPOS>MOLECULE
*****
 30 32 0 0 0
SMALL
GASTEIGER

@<TRIPOS>ATOM
      1 C         -13.2847   -3.1007   18.5455 C.2     1  UNL1        0.2465
      2 O         -13.6812   -2.5737   17.1984 O.2     1  UNL1       -0.2730
      3 N         -14.3385   -3.5304   19.5227 N.am    1  UNL1       -0.2729
      4 C         -13.9420   -4.0574   20.8699 C.3     1  UNL1        0.1152
      5 C         -11.8343   -3.1981   18.9156 C.3     1  UNL1        0.1834
      6 C          -9.1257   -3.5537   16.0369 C.3     1  UNL1        0.0952
      7 C         -10.1045   -2.9410   16.9943 C.2     1  UNL1        0.2302
      8 O         -10.3322   -1.4584   16.9877 O.2     1  UNL1       -0.2745
      9 N         -10.8556   -3.8108   17.9583 N.am    1  UNL1       -0.2497
     10 C         -10.6278   -5.2934   17.9649 C.ar    1  UNL1        0.0543
     11 C          -9.6391   -5.8961   18.9183 C.ar    1  UNL1        0.0149
     12 C          -9.4113   -7.3787   18.9250 C.ar    1  UNL1        0.0013
     13 C         -10.1724   -8.2586   17.9781 C.ar    1  UNL1        0.0001
     14 C         -11.1611   -7.6560   17.0247 C.ar    1  UNL1        0.0013
     15 C         -11.3889   -6.1734   17.0181 C.ar    1  UNL1        0.0149
     16 C         -15.7889   -3.4330   19.1527 C.3     1  UNL1        0.1139
     17 C         -16.5964   -2.2467   19.5895 C.ar    1  UNL1       -0.0029
     18 C         -15.9117   -0.9529   19.9170 C.ar    1  UNL1       -0.0026
     19 C         -16.7192    0.2333   20.3538 C.ar    1  UNL1       -0.0003
     20 C         -18.2113    0.1257   20.4632 C.ar    1  UNL1       -0.0000
     21 C         -18.8960   -1.1681   20.1357 C.ar    1  UNL1       -0.0003
     22 C         -18.0885   -2.3543   19.6989 C.ar    1  UNL1       -0.0026
     23 C         -16.4318   -4.5218   18.3458 C.3     1  UNL1        0.0968
     24 N         -16.2570   -5.9563   18.7480 N.3     1  UNL1       -0.2689
     25 C         -17.2343   -6.7760   19.5372 C.3     1  UNL1        0.0748
     26 C         -16.6555   -8.1493   19.7086 C.3     1  UNL1        0.0480
     27 C         -15.3205   -8.1782   19.0252 C.3     1  UNL1        0.1278
     28 O         -14.3944   -9.3556   18.9489 O.3     1  UNL1       -0.3830
     29 C         -15.0742   -6.8229   18.4316 C.3     1  UNL1        0.1017
     30 H         -14.7906  -10.1092   19.4137 H       1  UNL1        0.2104
@<TRIPOS>BOND
     1     6     7    1
     2     7     8    2
     3     7     9   am
     4     9     5    1
     5     5     1    1
     6     1     2    2
     7     1     3   am
     8     3     4    1
     9     3    16    1
    10    16    23    1
    11    23    24    1
    12    24    25    1
    13    25    26    1
    14    26    27    1
    15    27    28    1
    16    27    29    1
    17    16    17    1
    18    17    18   ar
    19    18    19   ar
    20    19    20   ar
    21    20    21   ar
    22    21    22   ar
    23     9    10    1
    24    10    11   ar
    25    11    12   ar
    26    12    13   ar
    27    13    14   ar
    28    14    15   ar
    29    29    24    1
    30    22    17   ar
    31    15    10   ar
    32    28    30    1
@<TRIPOS>MOLECULE
*****
 30 32 0 0 0
SMALL
GASTEIGER

@<TRIPOS>ATOM
      1 C         -15.2908   -4.0282   19.6670 C.2     1  UNL1        0.2465
      2 O         -14.8342   -4.2672   21.0757 O.2     1  UNL1       -0.2730
      3 N         -14.2943   -3.6603   18.6078 N.am    1  UNL1       -0.2729
      4 C         -14.7509   -3.4213   17.1991 C.3     1  UNL1        0.1152
      5 C         -16.7438   -4.1571   19.3175 C.3     1  UNL1        0.1834
      6 C         -19.3865   -7.1175   19.2750 C.3     1  UNL1        0.0952
      7 C         -18.7818   -5.7601   19.4798 C.2     1  UNL1        0.2302
      8 O         -19.6106   -4.6484   20.0519 O.2     1  UNL1       -0.2745
      9 N         -17.3484   -5.5144   19.1126 N.am    1  UNL1       -0.2497
     10 C         -16.5195   -6.6261   18.5406 C.ar    1  UNL1        0.0543
     11 C         -15.9170   -7.6564   19.4491 C.ar    1  UNL1        0.0149
     12 C         -15.0882   -8.7680   18.8771 C.ar    1  UNL1        0.0013
     13 C         -14.8619   -8.8494   17.3965 C.ar    1  UNL1        0.0001
     14 C         -15.4644   -7.8192   16.4880 C.ar    1  UNL1        0.0013
     15 C         -16.2932   -6.7075   17.0600 C.ar    1  UNL1        0.0149
     16 C         -12.8413   -3.5314   18.9574 C.3     1  UNL1        0.1139
     17 C         -11.9434   -4.7309   18.8856 C.ar    1  UNL1       -0.0029
     18 C         -10.4602   -4.5677   19.0386 C.ar    1  UNL1       -0.0026
     19 C          -9.5624   -5.7671   18.9668 C.ar    1  UNL1       -0.0003
     20 C         -10.1478   -7.1298   18.7420 C.ar    1  UNL1       -0.0000
     21 C         -11.6310   -7.2930   18.5891 C.ar    1  UNL1       -0.0003
     22 C         -12.5288   -6.0936   18.6608 C.ar    1  UNL1       -0.0026
     23 C         -12.2862   -2.2032   19.3787 C.3     1  UNL1        0.0968
     24 N         -11.9016   -1.1884   18.3430 N.3     1  UNL1       -0.2689
     25 C         -10.8225   -1.3454   17.3131 C.3     1  UNL1        0.0748
     26 C         -10.7825   -0.0926   16.4890 C.3     1  UNL1        0.0480
     27 C         -11.8370    0.8386   17.0098 C.3     1  UNL1        0.1278
     28 O         -12.1457    2.2067   16.4780 O.3     1  UNL1       -0.3830
     29 C         -12.5287    0.1613   18.1556 C.3     1  UNL1        0.1017
     30 H         -11.5543    2.4060   15.7355 H       1  UNL1        0.2104
@<TRIPOS>BOND
     1     6     7    1
     2     7     8    2
     3     7     9   am
     4     9     5    1
     5     5     1    1
     6     1     2    2
     7     1     3   am
     8     3     4    1
     9     3    16    1
    10    16    23    1
    11    23    24    1
    12    24    25    1
    13    25    26    1
    14    26    27    1
    15    27    28    1
    16    27    29    1
    17    16    17    1
    18    17    18   ar
    19    18    19   ar
    20    19    20   ar
    21    20    21   ar
    22    21    22   ar
    23     9    10    1
    24    10    11   ar
    25    11    12   ar
    26    12    13   ar
    27    13    14   ar
    28    14    15   ar
    29    29    24    1
    30    22    17   ar
    31    15    10   ar
    32    28    30    1
@<TRIPOS>MOLECULE
*****
 30 32 0 0 0
SMALL
GASTEIGER

@<TRIPOS>ATOM
      1 C          -6.8866  -16.8040   22.4032 C.2     1  UNL1        0.2465
      2 O          -7.8087  -16.1273   21.4327 O.2     1  UNL1       -0.2730
      3 N          -6.2419  -18.1088   22.0400 N.am    1  UNL1       -0.2729
      4 C          -5.3199  -18.7856   23.0104 C.3     1  UNL1        0.1152
      5 C          -6.6092  -16.1759   23.7368 C.3     1  UNL1        0.1834
      6 C          -8.3953  -15.6707   27.2446 C.3     1  UNL1        0.0952
      7 C          -7.3592  -15.6192   26.1611 C.2     1  UNL1        0.2302
      8 O          -6.0370  -14.9592   26.4185 O.2     1  UNL1       -0.2745
      9 N          -7.6453  -16.2275   24.8202 N.am    1  UNL1       -0.2497
     10 C          -8.9674  -16.8875   24.5627 C.ar    1  UNL1        0.0543
     11 C         -10.0044  -16.1909   23.7325 C.ar    1  UNL1        0.0149
     12 C         -11.3265  -16.8509   23.4750 C.ar    1  UNL1        0.0013
     13 C         -11.6118  -18.2075   24.0478 C.ar    1  UNL1        0.0001
     14 C         -10.5748  -18.9041   24.8781 C.ar    1  UNL1        0.0013
     15 C          -9.2527  -18.2442   25.1356 C.ar    1  UNL1        0.0149
     16 C          -6.5194  -18.7369   20.7063 C.3     1  UNL1        0.1139
     17 C          -7.9067  -19.1962   20.3677 C.ar    1  UNL1       -0.0029
     18 C          -8.2342  -19.6241   18.9679 C.ar    1  UNL1       -0.0026
     19 C          -9.6214  -20.0834   18.6293 C.ar    1  UNL1       -0.0003
     20 C         -10.6811  -20.1147   19.6905 C.ar    1  UNL1       -0.0000
     21 C         -10.3535  -19.6867   21.0903 C.ar    1  UNL1       -0.0003
     22 C          -8.9663  -19.2275   21.4289 C.ar    1  UNL1       -0.0026
     23 C          -5.4097  -18.9057   19.7114 C.3     1  UNL1        0.0968
     24 N          -3.9829  -18.9187   20.1743 N.3     1  UNL1       -0.2689
     25 C          -3.2716  -20.0784   20.8061 C.3     1  UNL1        0.0748
     26 C          -1.8660  -19.6508   21.1089 C.3     1  UNL1        0.0480
     27 C          -1.7087  -18.2269   20.6641 C.3     1  UNL1        0.1278
     28 O          -0.4620  -17.4006   20.7771 O.3     1  UNL1       -0.3830
     29 C          -3.0170  -17.7745   20.0865 C.3     1  UNL1        0.1017
     30 H           0.2404  -17.9295   21.1868 H       1  UNL1        0.2104
@<TRIPOS>BOND
     1     6     7    1
     2     7     8    2
     3     7     9   am
     4     9     5    1
     5     5     1    1
     6     1     2    2
     7     1     3   am
     8     3     4    1
     9     3    16    1
    10    16    23    1
    11    23    24    1
    12    24    25    1
    13    25    26    1
    14    26    27    1
    15    27    28    1
    16    27    29    1
    17    16    17    1
    18    17    18   ar
    19    18    19   ar
    20    19    20   ar
    21    20    21   ar
    22    21    22   ar
    23     9    10    1
    24    10    11   ar
    25    11    12   ar
    26    12    13   ar
    27    13    14   ar
    28    14    15   ar
    29    29    24    1
    30    22    17   ar
    31    15    10   ar
    32    28    30    1
@<TRIPOS>MOLECULE
*****
 30 32 0 0 0
SMALL
GASTEIGER

@<TRIPOS>ATOM
      1 C         -15.2877   -5.2144   18.3406 C.2     1  UNL1        0.2465
      2 O         -15.5925   -5.1236   19.8064 O.2     1  UNL1       -0.2730
      3 N         -14.1767   -4.3952   17.7534 N.am    1  UNL1       -0.2729
      4 C         -13.8719   -4.4861   16.2875 C.3     1  UNL1        0.1152
      5 C         -16.0938   -6.1243   17.4618 C.3     1  UNL1        0.1834
      6 C         -15.3679   -9.9893   17.9954 C.3     1  UNL1        0.0952
      7 C         -15.1789   -8.5512   17.6131 C.2     1  UNL1        0.2302
      8 O         -13.8859   -8.1020   16.9997 O.2     1  UNL1       -0.2745
      9 N         -16.2829   -7.5624   17.8442 N.am    1  UNL1       -0.2497
     10 C         -17.5759   -8.0116   18.4575 C.ar    1  UNL1        0.0543
     11 C         -18.6357   -8.6368   17.5997 C.ar    1  UNL1        0.0149
     12 C         -19.9288   -9.0860   18.2131 C.ar    1  UNL1        0.0013
     13 C         -20.1620   -8.9101   19.6843 C.ar    1  UNL1        0.0001
     14 C         -19.1022   -8.2850   20.5422 C.ar    1  UNL1        0.0013
     15 C         -17.8092   -7.8357   19.9288 C.ar    1  UNL1        0.0149
     16 C         -13.3706   -3.4853   18.6321 C.3     1  UNL1        0.1139
     17 C         -13.6402   -2.0097   18.6317 C.ar    1  UNL1       -0.0029
     18 C         -12.5593   -1.0498   18.2314 C.ar    1  UNL1       -0.0026
     19 C         -12.8290    0.4257   18.2311 C.ar    1  UNL1       -0.0003
     20 C         -14.1797    0.9414   18.6310 C.ar    1  UNL1       -0.0000
     21 C         -15.2606   -0.0185   19.0312 C.ar    1  UNL1       -0.0003
     22 C         -14.9909   -1.4940   19.0316 C.ar    1  UNL1       -0.0026
     23 C         -12.2948   -4.0509   19.5112 C.3     1  UNL1        0.0968
     24 N         -11.2784   -4.9946   18.9399 N.3     1  UNL1       -0.2689
     25 C          -9.9856   -4.6072   18.2851 C.3     1  UNL1        0.0748
     26 C          -9.2845   -5.8645   17.8636 C.3     1  UNL1        0.0480
     27 C         -10.1439   -7.0290   18.2580 C.3     1  UNL1        0.1278
     28 O          -9.8268   -8.4768   18.0277 O.3     1  UNL1       -0.3830
     29 C         -11.3762   -6.4913   18.9232 C.3     1  UNL1        0.1017
     30 H          -8.9703   -8.5527   17.5788 H       1  UNL1        0.2104
@<TRIPOS>BOND
     1     6     7    1
     2     7     8    2
     3     7     9   am
     4     9     5    1
     5     5     1    1
     6     1     2    2
     7     1     3   am
     8     3     4    1
     9     3    16    1
    10    16    23    1
    11    23    24    1
    12    24    25    1
    13    25    26    1
    14    26    27    1
    15    27    28    1
    16    27    29    1
    17    16    17    1
    18    17    18   ar
    19    18    19   ar
    20    19    20   ar
    21    20    21   ar
    22    21    22   ar
    23     9    10    1
    24    10    11   ar
    25    11    12   ar
    26    12    13   ar
    27    13    14   ar
    28    14    15   ar
    29    29    24    1
    30    22    17   ar
    31    15    10   ar
    32    28    30    1
@<TRIPOS>MOLECULE
*****
 30 32 0 0 0
SMALL
GASTEIGER

@<TRIPOS>ATOM
      1 C          -7.9702  -18.7503   22.1978 C.2     1  UNL1        0.2465
      2 O          -8.1186  -20.1292   22.7692 O.2     1  UNL1       -0.2730
      3 N          -8.7125  -17.6002   22.8114 N.am    1  UNL1       -0.2729
      4 C          -8.5641  -16.2213   22.2400 C.3     1  UNL1        0.1152
      5 C          -7.0796  -18.5214   21.0128 C.3     1  UNL1        0.1834
      6 C          -4.5377  -21.4085   20.0365 C.3     1  UNL1        0.0952
      7 C          -5.8121  -20.6302   20.1784 C.2     1  UNL1        0.2302
      8 O          -7.0935  -21.1824   19.6278 O.2     1  UNL1       -0.2745
      9 N          -5.8052  -19.2996   20.8709 N.am    1  UNL1       -0.2497
     10 C          -4.5238  -18.7474   21.4215 C.ar    1  UNL1        0.0543
     11 C          -4.3920  -18.4823   22.8920 C.ar    1  UNL1        0.0149
     12 C          -3.1106  -17.9301   23.4426 C.ar    1  UNL1        0.0013
     13 C          -1.9612  -17.6429   22.5228 C.ar    1  UNL1        0.0001
     14 C          -2.0930  -17.9079   21.0523 C.ar    1  UNL1        0.0013
     15 C          -3.3744  -18.4602   20.5017 C.ar    1  UNL1        0.0149
     16 C          -9.6032  -17.8292   23.9964 C.3     1  UNL1        0.1139
     17 C         -11.0900  -17.9073   23.8132 C.ar    1  UNL1       -0.0029
     18 C         -11.7226  -17.3546   22.5706 C.ar    1  UNL1       -0.0026
     19 C         -13.2093  -17.4328   22.3874 C.ar    1  UNL1       -0.0003
     20 C         -14.0633  -18.0637   23.4469 C.ar    1  UNL1       -0.0000
     21 C         -13.4307  -18.6165   24.6895 C.ar    1  UNL1       -0.0003
     22 C         -11.9440  -18.5383   24.8727 C.ar    1  UNL1       -0.0026
     23 C          -9.0072  -17.9799   25.3646 C.3     1  UNL1        0.0968
     24 N          -8.1622  -16.8820   25.9398 N.3     1  UNL1       -0.2689
     25 C          -8.3247  -16.2632   27.2965 C.3     1  UNL1        0.0748
     26 C          -7.2694  -15.2089   27.4545 C.3     1  UNL1        0.0480
     27 C          -6.4547  -15.1763   26.1953 C.3     1  UNL1        0.1278
     28 O          -5.2923  -14.2690   25.9206 O.3     1  UNL1       -0.3830
     29 C          -7.0065  -16.2103   25.2593 C.3     1  UNL1        0.1017
     30 H          -5.1408  -13.6961   26.6885 H       1  UNL1        0.2104
@<TRIPOS>BOND
     1     6     7    1
     2     7     8    2
     3     7     9   am
     4     9     5    1
     5     5     1    1
     6     1     2    2
     7     1     3   am
     8     3     4    1
     9     3    16    1
    10    16    23    1
    11    23    24    1
    12    24    25    1
    13    25    26    1
    14    26    27    1
    15    27    28    1
    16    27    29    1
    17    16    17    1
    18    17    18   ar
    19    18    19   ar
    20    19    20   ar
    21    20    21   ar
    22    21    22   ar
    23     9    10    1
    24    10    11   ar
    25    11    12   ar
    26    12    13   ar
    27    13    14   ar
    28    14    15   ar
    29    29    24    1
    30    22    17   ar
    31    15    10   ar
    32    28    30    1
