@<TRIPOS>MOLECULE
*****
 30 34 0 0 0
SMALL
GASTEIGER

@<TRIPOS>ATOM
      1 N          -8.9636  -19.6622   20.9678 N.3     1  UNL1       -0.2724
      2 C          -8.2857  -20.0850   22.2374 C.3     1  UNL1        0.0725
      3 C          -6.7881  -20.1008   22.3186 C.3     1  UNL1        0.0234
      4 C          -5.9682  -19.6937   21.1303 C.3     1  UNL1        0.0464
      5 C          -6.6460  -19.2709   19.8608 C.3     1  UNL1        0.0234
      6 C          -8.1437  -19.2552   19.7795 C.3     1  UNL1        0.0725
      7 C          -4.4705  -19.7095   21.2115 C.ar    1  UNL1        0.1003
      8 N          -3.6507  -20.4334   22.2381 N.ar    1  UNL1       -0.0814
      9 O          -2.2031  -20.1754   21.9415 O.2     1  UNL1       -0.3536
     10 C          -2.1282  -19.2919   20.7315 C.ar    1  UNL1        0.1787
     11 C          -0.9651  -18.7125   19.9822 C.ar    1  UNL1        0.0698
     12 C          -1.2033  -17.8451   18.7819 C.ar    1  UNL1        0.1433
     13 F          -0.0402  -17.2657   18.0327 F       1  UNL1       -0.2041
     14 C          -2.6046  -17.5571   18.3307 C.ar    1  UNL1        0.0299
     15 C          -3.7677  -18.1366   19.0800 C.ar    1  UNL1        0.0067
     16 C          -3.5295  -19.0040   20.2804 C.ar    1  UNL1        0.0540
     17 C         -10.4613  -19.6465   20.8866 C.3     1  UNL1        0.0770
     18 C         -11.2542  -18.7848   21.8241 C.3     1  UNL1        0.0497
     19 C         -10.4259  -16.0605   20.8798 C.3     1  UNL1        0.0520
     20 C         -10.1347  -16.4867   22.2883 C.ar    1  UNL1        0.0613
     21 N          -9.4295  -15.5507   23.2245 N.ar    1  UNL1       -0.2368
     22 C          -9.1384  -15.9770   24.6330 C.ar    1  UNL1        0.1220
     23 N          -9.5525  -17.3392   25.1051 N.ar    1  UNL1       -0.2843
     24 C         -10.2578  -18.2751   24.1688 C.ar    1  UNL1        0.2588
     25 O         -10.6720  -19.6373   24.6409 O.2     1  UNL1       -0.2673
     26 C         -10.5489  -17.8489   22.7604 C.ar    1  UNL1        0.0489
     27 C          -9.2615  -17.7654   26.5134 C.3     1  UNL1        0.1102
     28 C          -8.5562  -16.8295   27.4497 C.3     1  UNL1        0.0251
     29 C          -8.1421  -15.4673   26.9776 C.3     1  UNL1        0.0099
     30 C          -8.4331  -15.0410   25.5692 C.3     1  UNL1        0.0641
@<TRIPOS>BOND
     1    19    20    1
     2    20    21   ar
     3    21    22   ar
     4    22    23   ar
     5    23    24   ar
     6    24    25    2
     7    24    26   ar
     8    26    18    1
     9    18    17    1
    10    17     1    1
    11     1     2    1
    12     2     3    1
    13     3     4    1
    14     4     7    1
    15     7     8   ar
    16     8     9   ar
    17     9    10   ar
    18    10    11   ar
    19    11    12   ar
    20    12    13    1
    21    12    14   ar
    22    14    15   ar
    23    15    16   ar
    24     4     5    1
    25     5     6    1
    26    23    27    1
    27    27    28    1
    28    28    29    1
    29    29    30    1
    30    26    20   ar
    31     6     1    1
    32    30    22    1
    33    16     7   ar
    34    16    10   ar
@<TRIPOS>MOLECULE
*****
 30 34 0 0 0
SMALL
GASTEIGER

@<TRIPOS>ATOM
      1 N          -8.7445  -19.2632   21.2065 N.3     1  UNL1       -0.2724
      2 C          -7.8834  -19.7295   22.3429 C.3     1  UNL1        0.0725
      3 C          -6.4163  -19.9561   22.1282 C.3     1  UNL1        0.0234
      4 C          -5.8101  -19.7163   20.7773 C.3     1  UNL1        0.0464
      5 C          -6.6711  -19.2501   19.6410 C.3     1  UNL1        0.0234
      6 C          -8.1384  -19.0235   19.8556 C.3     1  UNL1        0.0725
      7 C          -4.3430  -19.9429   20.5626 C.ar    1  UNL1        0.1003
      8 N          -3.6785  -21.2697   20.3435 N.ar    1  UNL1       -0.0814
      9 O          -2.2075  -21.0292   20.1748 O.2     1  UNL1       -0.3536
     10 C          -1.9629  -19.5537   20.2896 C.ar    1  UNL1        0.1787
     11 C          -0.7089  -18.7348   20.2069 C.ar    1  UNL1        0.0698
     12 C          -0.7747  -17.2445   20.3639 C.ar    1  UNL1        0.1433
     13 F           0.4793  -16.4256   20.2812 F       1  UNL1       -0.2041
     14 C          -2.0945  -16.5731   20.6035 C.ar    1  UNL1        0.0299
     15 C          -3.3484  -17.3920   20.6862 C.ar    1  UNL1        0.0067
     16 C          -3.2826  -18.8823   20.5293 C.ar    1  UNL1        0.0540
     17 C         -10.2116  -19.0367   21.4212 C.3     1  UNL1        0.0770
     18 C         -10.6781  -17.8748   22.2473 C.3     1  UNL1        0.0497
     19 C         -11.4825  -19.1134   24.8585 C.3     1  UNL1        0.0520
     20 C         -10.3518  -18.1288   24.8123 C.ar    1  UNL1        0.0613
     21 N          -9.6234  -17.7634   26.0716 N.ar    1  UNL1       -0.2368
     22 C          -8.4928  -16.7787   26.0253 C.ar    1  UNL1        0.1220
     23 N          -8.0906  -16.1594   24.7197 N.ar    1  UNL1       -0.2843
     24 C          -8.8190  -16.5248   23.4603 C.ar    1  UNL1        0.2588
     25 O          -8.4168  -15.9055   22.1547 O.2     1  UNL1       -0.2673
     26 C          -9.9496  -17.5094   23.5066 C.ar    1  UNL1        0.0489
     27 C          -6.9600  -15.1748   24.6734 C.3     1  UNL1        0.1102
     28 C          -6.2316  -14.8095   25.9327 C.3     1  UNL1        0.0251
     29 C          -6.6338  -15.4288   27.2383 C.3     1  UNL1        0.0099
     30 C          -7.7644  -16.4134   27.2846 C.3     1  UNL1        0.0641
@<TRIPOS>BOND
     1    19    20    1
     2    20    21   ar
     3    21    22   ar
     4    22    23   ar
     5    23    24   ar
     6    24    25    2
     7    24    26   ar
     8    26    18    1
     9    18    17    1
    10    17     1    1
    11     1     2    1
    12     2     3    1
    13     3     4    1
    14     4     7    1
    15     7     8   ar
    16     8     9   ar
    17     9    10   ar
    18    10    11   ar
    19    11    12   ar
    20    12    13    1
    21    12    14   ar
    22    14    15   ar
    23    15    16   ar
    24     4     5    1
    25     5     6    1
    26    23    27    1
    27    27    28    1
    28    28    29    1
    29    29    30    1
    30    26    20   ar
    31     6     1    1
    32    30    22    1
    33    16     7   ar
    34    16    10   ar
@<TRIPOS>MOLECULE
*****
 30 34 0 0 0
SMALL
GASTEIGER

@<TRIPOS>ATOM
      1 N         -10.1516  -19.5794   21.0394 N.3     1  UNL1       -0.2724
      2 C          -9.2724  -19.9359   22.2014 C.3     1  UNL1        0.0725
      3 C          -7.8036  -20.1552   21.9909 C.3     1  UNL1        0.0234
      4 C          -7.2138  -20.0181   20.6186 C.3     1  UNL1        0.0464
      5 C          -8.0929  -19.6616   19.4566 C.3     1  UNL1        0.0234
      6 C          -9.5618  -19.4422   19.6671 C.3     1  UNL1        0.0725
      7 C          -5.7449  -20.2374   20.4081 C.ar    1  UNL1        0.1003
      8 N          -5.1264  -21.1429   19.3846 N.ar    1  UNL1       -0.0814
      9 O          -3.6358  -21.0549   19.5281 O.2     1  UNL1       -0.3536
     10 C          -3.3332  -20.0950   20.6404 C.ar    1  UNL1        0.1787
     11 C          -2.0391  -19.6157   21.2283 C.ar    1  UNL1        0.0698
     12 C          -2.0484  -18.6313   22.3599 C.ar    1  UNL1        0.1433
     13 F          -0.7543  -18.1520   22.9478 F       1  UNL1       -0.2041
     14 C          -3.3519  -18.1260   22.9038 C.ar    1  UNL1        0.0299
     15 C          -4.6460  -18.6053   22.3160 C.ar    1  UNL1        0.0067
     16 C          -4.6366  -19.5898   21.1843 C.ar    1  UNL1        0.0540
     17 C         -11.6204  -19.3600   21.2499 C.3     1  UNL1        0.0770
     18 C         -12.0915  -18.3298   22.2330 C.3     1  UNL1        0.0497
     19 C         -10.8764  -15.8630   21.0337 C.3     1  UNL1        0.0520
     20 C         -10.4863  -16.2952   22.4162 C.ar    1  UNL1        0.0613
     21 N          -9.4886  -15.4940   23.1989 N.ar    1  UNL1       -0.2368
     22 C          -9.0986  -15.9261   24.5814 C.ar    1  UNL1        0.1220
     23 N          -9.7061  -17.1595   25.1810 N.ar    1  UNL1       -0.2843
     24 C         -10.7038  -17.9607   24.3982 C.ar    1  UNL1        0.2588
     25 O         -11.3114  -19.1941   24.9979 O.2     1  UNL1       -0.2673
     26 C         -11.0939  -17.5286   23.0158 C.ar    1  UNL1        0.0489
     27 C          -9.3161  -17.5917   26.5634 C.3     1  UNL1        0.1102
     28 C          -8.3185  -16.7904   27.3462 C.3     1  UNL1        0.0251
     29 C          -7.7109  -15.5570   26.7465 C.3     1  UNL1        0.0099
     30 C          -8.1009  -15.1249   25.3641 C.3     1  UNL1        0.0641
@<TRIPOS>BOND
     1    19    20    1
     2    20    21   ar
     3    21    22   ar
     4    22    23   ar
     5    23    24   ar
     6    24    25    2
     7    24    26   ar
     8    26    18    1
     9    18    17    1
    10    17     1    1
    11     1     2    1
    12     2     3    1
    13     3     4    1
    14     4     7    1
    15     7     8   ar
    16     8     9   ar
    17     9    10   ar
    18    10    11   ar
    19    11    12   ar
    20    12    13    1
    21    12    14   ar
    22    14    15   ar
    23    15    16   ar
    24     4     5    1
    25     5     6    1
    26    23    27    1
    27    27    28    1
    28    28    29    1
    29    29    30    1
    30    26    20   ar
    31     6     1    1
    32    30    22    1
    33    16     7   ar
    34    16    10   ar
@<TRIPOS>MOLECULE
*****
 30 34 0 0 0
SMALL
GASTEIGER

@<TRIPOS>ATOM
      1 N           8.0171   -4.6219   22.9765 N.3     1  UNL1       -0.2724
      2 C           8.9127   -4.4665   21.7833 C.3     1  UNL1        0.0725
      3 C           8.4306   -3.7183   20.5760 C.3     1  UNL1        0.0234
      4 C           7.0528   -3.1254   20.5619 C.3     1  UNL1        0.0464
      5 C           6.1571   -3.2808   21.7551 C.3     1  UNL1        0.0234
      6 C           6.6393   -4.0291   22.9624 C.3     1  UNL1        0.0725
      7 C           6.5706   -2.3771   19.3546 C.ar    1  UNL1        0.1003
      8 N           7.3476   -2.1449   18.0927 N.ar    1  UNL1       -0.0814
      9 O           6.4839   -1.3539   17.1554 O.2     1  UNL1       -0.3536
     10 C           5.1731   -1.0973   17.8380 C.ar    1  UNL1        0.1787
     11 C           3.9377   -0.3695   17.3976 C.ar    1  UNL1        0.0698
     12 C           2.7558   -0.2741   18.3163 C.ar    1  UNL1        0.1433
     13 F           1.5204    0.4537   17.8758 F       1  UNL1       -0.2041
     14 C           2.8093   -0.9064   19.6755 C.ar    1  UNL1        0.0299
     15 C           4.0448   -1.6342   20.1159 C.ar    1  UNL1        0.0067
     16 C           5.2267   -1.7296   19.1972 C.ar    1  UNL1        0.0540
     17 C           8.4993   -5.3702   24.1838 C.3     1  UNL1        0.0770
     18 C           7.5327   -6.1703   25.0057 C.3     1  UNL1        0.0497
     19 C           8.6199   -8.4203   26.6657 C.3     1  UNL1        0.0520
     20 C           8.0922   -7.1841   27.3315 C.ar    1  UNL1        0.0613
     21 N           8.1081   -7.0729   28.8273 N.ar    1  UNL1       -0.2368
     22 C           7.5803   -5.8366   29.4931 C.ar    1  UNL1        0.1220
     23 N           7.0367   -4.7117   28.6631 N.ar    1  UNL1       -0.2843
     24 C           7.0209   -4.8229   27.1673 C.ar    1  UNL1        0.2588
     25 O           6.4773   -3.6979   26.3373 O.2     1  UNL1       -0.2673
     26 C           7.5486   -6.0591   26.5015 C.ar    1  UNL1        0.0489
     27 C           6.5090   -3.4755   29.3289 C.3     1  UNL1        0.1102
     28 C           6.5249   -3.3643   30.8247 C.3     1  UNL1        0.0251
     29 C           7.0685   -4.4893   31.6547 C.3     1  UNL1        0.0099
     30 C           7.5962   -5.7254   30.9889 C.3     1  UNL1        0.0641
@<TRIPOS>BOND
     1    19    20    1
     2    20    21   ar
     3    21    22   ar
     4    22    23   ar
     5    23    24   ar
     6    24    25    2
     7    24    26   ar
     8    26    18    1
     9    18    17    1
    10    17     1    1
    11     1     2    1
    12     2     3    1
    13     3     4    1
    14     4     7    1
    15     7     8   ar
    16     8     9   ar
    17     9    10   ar
    18    10    11   ar
    19    11    12   ar
    20    12    13    1
    21    12    14   ar
    22    14    15   ar
    23    15    16   ar
    24     4     5    1
    25     5     6    1
    26    23    27    1
    27    27    28    1
    28    28    29    1
    29    29    30    1
    30    26    20   ar
    31     6     1    1
    32    30    22    1
    33    16     7   ar
    34    16    10   ar
@<TRIPOS>MOLECULE
*****
 30 34 0 0 0
SMALL
GASTEIGER

@<TRIPOS>ATOM
      1 N           1.0591    1.2935   18.8113 N.3     1  UNL1       -0.2724
      2 C           0.5024    0.3930   19.8741 C.3     1  UNL1        0.0725
      3 C           1.3199   -0.7545   20.3886 C.3     1  UNL1        0.0234
      4 C           2.6941   -1.0017   19.8404 C.3     1  UNL1        0.0464
      5 C           3.2508   -0.1013   18.7776 C.3     1  UNL1        0.0234
      6 C           2.4332    1.0463   18.2631 C.3     1  UNL1        0.0725
      7 C           3.5116   -2.1492   20.3549 C.ar    1  UNL1        0.1003
      8 N           3.8805   -3.3835   19.5864 N.ar    1  UNL1       -0.0814
      9 O           4.7007   -4.2611   20.4848 O.2     1  UNL1       -0.3536
     10 C           4.8388   -3.5692   21.8086 C.ar    1  UNL1        0.1787
     11 C           5.5387   -3.9590   23.0767 C.ar    1  UNL1        0.0698
     12 C           5.5038   -3.0437   24.2644 C.ar    1  UNL1        0.1433
     13 F           6.2037   -3.4335   25.5326 F       1  UNL1       -0.2041
     14 C           4.7689   -1.7384   24.1842 C.ar    1  UNL1        0.0299
     15 C           4.0690   -1.3486   22.9161 C.ar    1  UNL1        0.0067
     16 C           4.1039   -2.2640   21.7283 C.ar    1  UNL1        0.0540
     17 C           0.2415    2.4410   18.2968 C.3     1  UNL1        0.0770
     18 C           0.0902    3.6839   19.1228 C.3     1  UNL1        0.0497
     19 C           1.5929    3.6915   21.7193 C.3     1  UNL1        0.0520
     20 C           0.0938    3.6382   21.7205 C.ar    1  UNL1        0.0613
     21 N          -0.6539    3.5887   23.0199 N.ar    1  UNL1       -0.2368
     22 C          -2.1530    3.5354   23.0211 C.ar    1  UNL1        0.1220
     23 N          -2.9043    3.5316   21.7229 N.ar    1  UNL1       -0.2843
     24 C          -2.1565    3.5811   20.4234 C.ar    1  UNL1        0.2588
     25 O          -2.9079    3.5772   19.1252 O.2     1  UNL1       -0.2673
     26 C          -0.6575    3.6344   20.4223 C.ar    1  UNL1        0.0489
     27 C          -4.4033    3.4783   21.7240 C.3     1  UNL1        0.1102
     28 C          -5.1510    3.4288   23.0234 C.3     1  UNL1        0.0251
     29 C          -4.3996    3.4326   24.3217 C.3     1  UNL1        0.0099
     30 C          -2.9006    3.4859   24.3205 C.3     1  UNL1        0.0641
@<TRIPOS>BOND
     1    19    20    1
     2    20    21   ar
     3    21    22   ar
     4    22    23   ar
     5    23    24   ar
     6    24    25    2
     7    24    26   ar
     8    26    18    1
     9    18    17    1
    10    17     1    1
    11     1     2    1
    12     2     3    1
    13     3     4    1
    14     4     7    1
    15     7     8   ar
    16     8     9   ar
    17     9    10   ar
    18    10    11   ar
    19    11    12   ar
    20    12    13    1
    21    12    14   ar
    22    14    15   ar
    23    15    16   ar
    24     4     5    1
    25     5     6    1
    26    23    27    1
    27    27    28    1
    28    28    29    1
    29    29    30    1
    30    26    20   ar
    31     6     1    1
    32    30    22    1
    33    16     7   ar
    34    16    10   ar
@<TRIPOS>MOLECULE
*****
 30 34 0 0 0
SMALL
GASTEIGER

@<TRIPOS>ATOM
      1 N           1.4777    3.2916   18.2979 N.3     1  UNL1       -0.2724
      2 C           0.7528    1.9783   18.3087 C.3     1  UNL1        0.0725
      3 C           1.5275    0.6943   18.3387 C.3     1  UNL1        0.0234
      4 C           3.0271    0.7233   18.3580 C.3     1  UNL1        0.0464
      5 C           3.7520    2.0365   18.3472 C.3     1  UNL1        0.0234
      6 C           2.9773    3.3206   18.3172 C.3     1  UNL1        0.0725
      7 C           3.8019   -0.5607   18.3880 C.ar    1  UNL1        0.1003
      8 N           4.4214   -1.2446   17.2054 N.ar    1  UNL1       -0.0814
      9 O           5.0955   -2.4930   17.6924 O.2     1  UNL1       -0.3536
     10 C           4.8926   -2.5807   19.1761 C.ar    1  UNL1        0.1787
     11 C           5.3325   -3.5936   20.1912 C.ar    1  UNL1        0.0698
     12 C           4.9730   -3.4124   21.6361 C.ar    1  UNL1        0.1433
     13 F           5.4129   -4.4253   22.6511 F       1  UNL1       -0.2041
     14 C           4.1735   -2.2182   22.0660 C.ar    1  UNL1        0.0299
     15 C           3.7335   -1.2053   21.0509 C.ar    1  UNL1        0.0067
     16 C           4.0931   -1.3865   19.6060 C.ar    1  UNL1        0.0540
     17 C           0.7030    4.5756   18.2679 C.3     1  UNL1        0.0770
     18 C          -0.1536    4.9622   19.4369 C.3     1  UNL1        0.0497
     19 C          -0.9970    2.8165   21.3564 C.3     1  UNL1        0.0520
     20 C          -2.0097    3.4540   20.4519 C.ar    1  UNL1        0.0613
     21 N          -3.4441    3.0186   20.5072 N.ar    1  UNL1       -0.2368
     22 C          -4.4568    3.6561   19.6026 C.ar    1  UNL1        0.1220
     23 N          -4.0351    4.7289   18.6429 N.ar    1  UNL1       -0.2843
     24 C          -2.6007    5.1643   18.5876 C.ar    1  UNL1        0.2588
     25 O          -2.1790    6.2371   17.6278 O.2     1  UNL1       -0.2673
     26 C          -1.5880    4.5268   19.4921 C.ar    1  UNL1        0.0489
     27 C          -5.0477    5.3664   17.7383 C.3     1  UNL1        0.1102
     28 C          -6.4820    4.9310   17.7936 C.3     1  UNL1        0.0251
     29 C          -6.9037    3.8581   18.7534 C.3     1  UNL1        0.0099
     30 C          -5.8911    3.2207   19.6579 C.3     1  UNL1        0.0641
@<TRIPOS>BOND
     1    19    20    1
     2    20    21   ar
     3    21    22   ar
     4    22    23   ar
     5    23    24   ar
     6    24    25    2
     7    24    26   ar
     8    26    18    1
     9    18    17    1
    10    17     1    1
    11     1     2    1
    12     2     3    1
    13     3     4    1
    14     4     7    1
    15     7     8   ar
    16     8     9   ar
    17     9    10   ar
    18    10    11   ar
    19    11    12   ar
    20    12    13    1
    21    12    14   ar
    22    14    15   ar
    23    15    16   ar
    24     4     5    1
    25     5     6    1
    26    23    27    1
    27    27    28    1
    28    28    29    1
    29    29    30    1
    30    26    20   ar
    31     6     1    1
    32    30    22    1
    33    16     7   ar
    34    16    10   ar
@<TRIPOS>MOLECULE
*****
 30 34 0 0 0
SMALL
GASTEIGER

@<TRIPOS>ATOM
      1 N           7.0009   -4.5610   22.9448 N.3     1  UNL1       -0.2724
      2 C           5.6485   -3.9163   23.0201 C.3     1  UNL1        0.0725
      3 C           5.0925   -3.1981   21.8264 C.3     1  UNL1        0.0234
      4 C           5.8889   -3.1245   20.5573 C.3     1  UNL1        0.0464
      5 C           7.2411   -3.7691   20.4820 C.3     1  UNL1        0.0234
      6 C           7.7972   -4.4874   21.6757 C.3     1  UNL1        0.0725
      7 C           5.3329   -2.4063   19.3636 C.ar    1  UNL1        0.1003
      8 N           5.9182   -2.4073   17.9825 N.ar    1  UNL1       -0.0814
      9 O           5.0409   -1.5625   17.1066 O.2     1  UNL1       -0.3536
     10 C           3.9135   -1.0394   17.9465 C.ar    1  UNL1        0.1787
     11 C           2.7459   -0.1556   17.6214 C.ar    1  UNL1        0.0698
     12 C           1.7588    0.2067   18.6911 C.ar    1  UNL1        0.1433
     13 F           0.5913    1.0904   18.3660 F       1  UNL1       -0.2041
     14 C           1.9392   -0.3148   20.0860 C.ar    1  UNL1        0.0299
     15 C           3.1068   -1.1985   20.4111 C.ar    1  UNL1        0.0067
     16 C           4.0939   -1.5609   19.3414 C.ar    1  UNL1        0.0540
     17 C           7.5569   -5.2792   24.1385 C.3     1  UNL1        0.0770
     18 C           8.4499   -4.5542   25.1011 C.3     1  UNL1        0.0497
     19 C           7.2389   -1.8886   25.7553 C.3     1  UNL1        0.0520
     20 C           7.3694   -2.9351   26.8220 C.ar    1  UNL1        0.0613
     21 N           6.8944   -2.6489   28.2156 N.ar    1  UNL1       -0.2368
     22 C           7.0249   -3.6954   29.2823 C.ar    1  UNL1        0.1220
     23 N           7.6304   -5.0282   28.9553 N.ar    1  UNL1       -0.2843
     24 C           8.1054   -5.3145   27.5615 C.ar    1  UNL1        0.2588
     25 O           8.7109   -6.6473   27.2344 O.2     1  UNL1       -0.2673
     26 C           7.9749   -4.2680   26.4949 C.ar    1  UNL1        0.0489
     27 C           7.7609   -6.0748   30.0219 C.3     1  UNL1        0.1102
     28 C           7.2859   -5.7885   31.4155 C.3     1  UNL1        0.0251
     29 C           6.6804   -4.4557   31.7426 C.3     1  UNL1        0.0099
     30 C           6.5499   -3.4091   30.6760 C.3     1  UNL1        0.0641
@<TRIPOS>BOND
     1    19    20    1
     2    20    21   ar
     3    21    22   ar
     4    22    23   ar
     5    23    24   ar
     6    24    25    2
     7    24    26   ar
     8    26    18    1
     9    18    17    1
    10    17     1    1
    11     1     2    1
    12     2     3    1
    13     3     4    1
    14     4     7    1
    15     7     8   ar
    16     8     9   ar
    17     9    10   ar
    18    10    11   ar
    19    11    12   ar
    20    12    13    1
    21    12    14   ar
    22    14    15   ar
    23    15    16   ar
    24     4     5    1
    25     5     6    1
    26    23    27    1
    27    27    28    1
    28    28    29    1
    29    29    30    1
    30    26    20   ar
    31     6     1    1
    32    30    22    1
    33    16     7   ar
    34    16    10   ar
@<TRIPOS>MOLECULE
*****
 30 34 0 0 0
SMALL
GASTEIGER

@<TRIPOS>ATOM
      1 N           1.0396    1.2551   18.7889 N.3     1  UNL1       -0.2724
      2 C           0.4913    0.4268   19.9129 C.3     1  UNL1        0.0725
      3 C           1.2940   -0.7139   20.4648 C.3     1  UNL1        0.0234
      4 C           2.6450   -1.0262   19.8927 C.3     1  UNL1        0.0464
      5 C           3.1933   -0.1980   18.7688 C.3     1  UNL1        0.0234
      6 C           2.3906    0.9427   18.2168 C.3     1  UNL1        0.0725
      7 C           3.4476   -2.1669   20.4446 C.ar    1  UNL1        0.1003
      8 N           3.7728   -3.4441   19.7284 N.ar    1  UNL1       -0.0814
      9 O           4.5922   -4.2972   20.6508 O.2     1  UNL1       -0.3536
     10 C           4.7735   -3.5472   21.9372 C.ar    1  UNL1        0.1787
     11 C           5.4913   -3.8929   23.2081 C.ar    1  UNL1        0.0698
     12 C           5.5018   -2.9222   24.3515 C.ar    1  UNL1        0.1433
     13 F           6.2196   -3.2680   25.6224 F       1  UNL1       -0.2041
     14 C           4.7944   -1.6056   24.2241 C.ar    1  UNL1        0.0299
     15 C           4.0766   -1.2598   22.9532 C.ar    1  UNL1        0.0067
     16 C           4.0662   -2.2306   21.8098 C.ar    1  UNL1        0.0540
     17 C           0.2370    2.3957   18.2370 C.3     1  UNL1        0.0770
     18 C          -0.1438    3.5434   19.1245 C.3     1  UNL1        0.0497
     19 C          -2.2646    4.3413   17.1583 C.3     1  UNL1        0.0520
     20 C          -2.6255    4.1008   18.5943 C.ar    1  UNL1        0.0613
     21 N          -4.0466    4.2592   19.0472 N.ar    1  UNL1       -0.2368
     22 C          -4.4075    4.0187   20.4832 C.ar    1  UNL1        0.1220
     23 N          -3.3471    3.6198   21.4663 N.ar    1  UNL1       -0.2843
     24 C          -1.9259    3.4613   21.0133 C.ar    1  UNL1        0.2588
     25 O          -0.8655    3.0624   21.9964 O.2     1  UNL1       -0.2673
     26 C          -1.5651    3.7018   19.5774 C.ar    1  UNL1        0.0489
     27 C          -3.7079    3.3793   22.9022 C.3     1  UNL1        0.1102
     28 C          -5.1291    3.5377   23.3550 C.3     1  UNL1        0.0251
     29 C          -6.1895    3.9366   22.3719 C.3     1  UNL1        0.0099
     30 C          -5.8287    4.1771   20.9360 C.3     1  UNL1        0.0641
@<TRIPOS>BOND
     1    19    20    1
     2    20    21   ar
     3    21    22   ar
     4    22    23   ar
     5    23    24   ar
     6    24    25    2
     7    24    26   ar
     8    26    18    1
     9    18    17    1
    10    17     1    1
    11     1     2    1
    12     2     3    1
    13     3     4    1
    14     4     7    1
    15     7     8   ar
    16     8     9   ar
    17     9    10   ar
    18    10    11   ar
    19    11    12   ar
    20    12    13    1
    21    12    14   ar
    22    14    15   ar
    23    15    16   ar
    24     4     5    1
    25     5     6    1
    26    23    27    1
    27    27    28    1
    28    28    29    1
    29    29    30    1
    30    26    20   ar
    31     6     1    1
    32    30    22    1
    33    16     7   ar
    34    16    10   ar
@<TRIPOS>MOLECULE
*****
 30 34 0 0 0
SMALL
GASTEIGER

@<TRIPOS>ATOM
      1 N           6.7007   -2.5734   32.0268 N.3     1  UNL1       -0.2724
      2 C           7.0176   -1.1153   31.8734 C.3     1  UNL1        0.0725
      3 C           6.1098   -0.0833   32.4741 C.3     1  UNL1        0.0234
      4 C           4.8851   -0.5094   33.2281 C.3     1  UNL1        0.0464
      5 C           4.5682   -1.9674   33.3814 C.3     1  UNL1        0.0234
      6 C           5.4760   -2.9995   32.7808 C.3     1  UNL1        0.0725
      7 C           3.9772    0.5226   33.8287 C.ar    1  UNL1        0.1003
      8 N           2.9287    1.3074   33.0974 N.ar    1  UNL1       -0.0814
      9 O           2.2619    2.2209   34.0829 O.2     1  UNL1       -0.3536
     10 C           2.8984    2.0006   35.4233 C.ar    1  UNL1        0.1787
     11 C           2.6497    2.6202   36.7665 C.ar    1  UNL1        0.0698
     12 C           3.4610    2.1903   37.9525 C.ar    1  UNL1        0.1433
     13 F           3.2122    2.8098   39.2957 F       1  UNL1       -0.2041
     14 C           4.5211    1.1407   37.7955 C.ar    1  UNL1        0.0299
     15 C           4.7698    0.5211   36.4523 C.ar    1  UNL1        0.0067
     16 C           3.9585    0.9511   35.2661 C.ar    1  UNL1        0.0540
     17 C           7.6086   -3.6054   31.4261 C.3     1  UNL1        0.0770
     18 C           7.0812   -4.9723   31.1047 C.3     1  UNL1        0.0497
     19 C           9.2610   -6.9589   31.6543 C.3     1  UNL1        0.0520
     20 C           8.7688   -6.7542   30.2521 C.ar    1  UNL1        0.0613
     21 N           9.3666   -7.5427   29.1248 N.ar    1  UNL1       -0.2368
     22 C           8.8744   -7.3381   27.7227 C.ar    1  UNL1        0.1220
     23 N           7.7845   -6.3448   27.4479 N.ar    1  UNL1       -0.2843
     24 C           7.1868   -5.5562   28.5753 C.ar    1  UNL1        0.2588
     25 O           6.0968   -4.5629   28.3005 O.2     1  UNL1       -0.2673
     26 C           7.6789   -5.7609   29.9774 C.ar    1  UNL1        0.0489
     27 C           7.2923   -6.1401   26.0459 C.3     1  UNL1        0.1102
     28 C           7.8901   -6.9287   24.9186 C.3     1  UNL1        0.0251
     29 C           8.9800   -7.9219   25.1934 C.3     1  UNL1        0.0099
     30 C           9.4722   -8.1266   26.5954 C.3     1  UNL1        0.0641
@<TRIPOS>BOND
     1    19    20    1
     2    20    21   ar
     3    21    22   ar
     4    22    23   ar
     5    23    24   ar
     6    24    25    2
     7    24    26   ar
     8    26    18    1
     9    18    17    1
    10    17     1    1
    11     1     2    1
    12     2     3    1
    13     3     4    1
    14     4     7    1
    15     7     8   ar
    16     8     9   ar
    17     9    10   ar
    18    10    11   ar
    19    11    12   ar
    20    12    13    1
    21    12    14   ar
    22    14    15   ar
    23    15    16   ar
    24     4     5    1
    25     5     6    1
    26    23    27    1
    27    27    28    1
    28    28    29    1
    29    29    30    1
    30    26    20   ar
    31     6     1    1
    32    30    22    1
    33    16     7   ar
    34    16    10   ar
