@<TRIPOS>MOLECULE
*****
 31 33 0 0 0
SMALL
GASTEIGER

@<TRIPOS>ATOM
      1 C           6.1369   -2.4279   19.2839 C.ar    1  UNL1        0.0942
      2 C           7.5376   -1.9615   19.5494 C.ar    1  UNL1        0.1078
      3 N           8.4936   -2.8448   20.2949 N.ar    1  UNL1       -0.2119
      4 C           8.0489   -4.1946   20.7750 C.ar    1  UNL1        0.2207
      5 N           6.6482   -4.6609   20.5095 N.ar    1  UNL1       -0.2094
      6 C           5.6922   -3.7776   19.7640 C.ar    1  UNL1        0.1613
      7 O           4.8915   -1.8065   17.0901 O.2     1  UNL1       -0.2700
      8 C           5.1809   -1.5446   18.5384 C.2     1  UNL1        0.2488
      9 N           4.5142   -0.3993   19.2412 N.am    1  UNL1       -0.3008
     10 H           4.7041   -0.2273   20.1918 H       1  UNL1        0.1497
     11 C           3.5582    0.4840   18.4957 C.3     1  UNL1        0.0898
     12 C           2.2142    0.7986   19.0828 C.3     1  UNL1        0.0246
     13 C           1.5233    2.0823   18.7298 C.3     1  UNL1        0.0338
     14 C           0.1793    2.3968   19.3169 C.3     1  UNL1        0.1422
     15 O          -0.4738    1.4275   20.2571 O.3     1  UNL1       -0.3538
     16 C           0.2170    0.1437   20.6101 C.3     1  UNL1        0.1422
     17 C           1.5610   -0.1707   20.0230 C.3     1  UNL1        0.0338
     18 C           4.2914   -4.2440   19.4985 C.3     1  UNL1        0.4351
     19 F           2.8907   -4.7103   19.2331 F       1  UNL1       -0.1644
     20 F           3.8062   -3.4599   20.6816 F       1  UNL1       -0.1644
     21 F           4.7767   -5.0280   18.3154 F       1  UNL1       -0.1644
     22 N           9.0049   -5.0779   21.5205 N.pl3   1  UNL1       -0.2808
     23 H           9.8948   -5.2677   21.1447 H       1  UNL1        0.1551
     24 C           8.6049   -5.6719   22.8385 C.ar    1  UNL1        0.0783
     25 C           8.8788   -7.1190   23.1229 C.ar    1  UNL1        0.0178
     26 C           8.4788   -7.7131   24.4409 C.ar    1  UNL1        0.0128
     27 C           7.8051   -6.8601   25.4745 C.ar    1  UNL1        0.0600
     28 CL          7.4052   -7.4542   26.7925 Cl      1  UNL1       -0.0822
     29 C           7.5313   -5.4130   25.1901 C.ar    1  UNL1        0.0423
     30 C           7.9312   -4.8189   23.8721 C.ar    1  UNL1        0.1543
     31 F           7.6573   -3.3718   23.5877 F       1  UNL1       -0.2028
@<TRIPOS>BOND
     1     7     8    2
     2     8     9   am
     3     9    11    1
     4    11    12    1
     5    12    13    1
     6    13    14    1
     7    14    15    1
     8    15    16    1
     9    16    17    1
    10     8     1    1
    11     1     2   ar
    12     2     3   ar
    13     3     4   ar
    14     4    22    1
    15    22    24    1
    16    24    25   ar
    17    25    26   ar
    18    26    27   ar
    19    27    28    1
    20    27    29   ar
    21    29    30   ar
    22    30    31    1
    23     4     5   ar
    24     5     6   ar
    25     6    18    1
    26    18    19    1
    27    18    20    1
    28    18    21    1
    29    17    12    1
    30     6     1   ar
    31    30    24   ar
    32     9    10    1
    33    22    23    1
@<TRIPOS>MOLECULE
*****
 31 33 0 0 0
SMALL
GASTEIGER

@<TRIPOS>ATOM
      1 C         -12.5344   -5.1852   17.3043 C.ar    1  UNL1        0.0942
      2 C         -13.8006   -5.7270   16.7100 C.ar    1  UNL1        0.1078
      3 N         -14.3911   -7.0013   17.2368 N.ar    1  UNL1       -0.2119
      4 C         -13.7153   -7.7338   18.3580 C.ar    1  UNL1        0.2207
      5 N         -12.4491   -7.1920   18.9522 N.ar    1  UNL1       -0.2094
      6 C         -11.8587   -5.9177   18.4254 C.ar    1  UNL1        0.1613
      7 O         -10.6727   -3.9460   15.9820 O.2     1  UNL1       -0.2700
      8 C         -11.9439   -3.9110   16.7775 C.2     1  UNL1        0.2488
      9 N         -12.6247   -2.6016   17.0462 N.am    1  UNL1       -0.3008
     10 H         -13.4591   -2.5785   17.5683 H       1  UNL1        0.1497
     11 C         -12.0343   -1.3273   16.5194 C.3     1  UNL1        0.0898
     12 C         -12.5954   -0.0053   16.9525 C.3     1  UNL1        0.0246
     13 C         -13.5425    0.0632   18.1137 C.3     1  UNL1        0.0338
     14 C         -14.1036    1.3852   18.5467 C.3     1  UNL1        0.1422
     15 O         -13.7176    2.6385   17.8186 O.3     1  UNL1       -0.3538
     16 C         -12.7706    2.5700   16.6575 C.3     1  UNL1        0.1422
     17 C         -12.2095    1.2481   16.2244 C.3     1  UNL1        0.0338
     18 C         -10.5925   -5.3759   19.0196 C.3     1  UNL1        0.4351
     19 F          -9.3262   -4.8340   19.6139 F       1  UNL1       -0.1644
     20 F         -11.3829   -4.3336   19.7536 F       1  UNL1       -0.1644
     21 F          -9.8020   -6.4182   18.2857 F       1  UNL1       -0.1644
     22 N         -14.3058   -9.0081   18.8848 N.pl3   1  UNL1       -0.2808
     23 H         -13.7185   -9.7623   19.1202 H       1  UNL1        0.1551
     24 C         -15.7911   -9.1332   19.0529 C.ar    1  UNL1        0.0783
     25 C         -16.5635   -8.0416   19.7323 C.ar    1  UNL1        0.0178
     26 C         -18.0488   -8.1667   19.9004 C.ar    1  UNL1        0.0128
     27 C         -18.7616   -9.3834   19.3892 C.ar    1  UNL1        0.0600
     28 CL        -20.2469   -9.5085   19.5574 Cl      1  UNL1       -0.0822
     29 C         -17.9892  -10.4750   18.7099 C.ar    1  UNL1        0.0423
     30 C         -16.5039  -10.3499   18.5417 C.ar    1  UNL1        0.1543
     31 F         -15.7314  -11.4416   17.8623 F       1  UNL1       -0.2028
@<TRIPOS>BOND
     1     7     8    2
     2     8     9   am
     3     9    11    1
     4    11    12    1
     5    12    13    1
     6    13    14    1
     7    14    15    1
     8    15    16    1
     9    16    17    1
    10     8     1    1
    11     1     2   ar
    12     2     3   ar
    13     3     4   ar
    14     4    22    1
    15    22    24    1
    16    24    25   ar
    17    25    26   ar
    18    26    27   ar
    19    27    28    1
    20    27    29   ar
    21    29    30   ar
    22    30    31    1
    23     4     5   ar
    24     5     6   ar
    25     6    18    1
    26    18    19    1
    27    18    20    1
    28    18    21    1
    29    17    12    1
    30     6     1   ar
    31    30    24   ar
    32     9    10    1
    33    22    23    1
@<TRIPOS>MOLECULE
*****
 31 33 0 0 0
SMALL
GASTEIGER

@<TRIPOS>ATOM
      1 C           6.0181   -2.3646   19.3190 C.ar    1  UNL1        0.0942
      2 C           7.4031   -1.9402   19.7085 C.ar    1  UNL1        0.1078
      3 N           8.2690   -2.8588   20.5185 N.ar    1  UNL1       -0.2119
      4 C           7.7500   -4.2018   20.9392 C.ar    1  UNL1        0.2207
      5 N           6.3650   -4.6262   20.5497 N.ar    1  UNL1       -0.2094
      6 C           5.4991   -3.7076   19.7396 C.ar    1  UNL1        0.1613
      7 O           4.9998   -1.6664   17.0331 O.2     1  UNL1       -0.2700
      8 C           5.1521   -1.4460   18.5089 C.2     1  UNL1        0.2488
      9 N           4.4384   -0.3069   19.1747 N.am    1  UNL1       -0.3008
     10 H           4.5384   -0.1622   20.1434 H       1  UNL1        0.1497
     11 C           3.5724    0.6117   18.3647 C.3     1  UNL1        0.0898
     12 C           2.2598    1.0847   18.9155 C.3     1  UNL1        0.0246
     13 C           1.4676    0.1989   19.8307 C.3     1  UNL1        0.0338
     14 C           0.1550    0.6720   20.3815 C.3     1  UNL1        0.1422
     15 O          -0.3653    2.0308   20.0169 O.3     1  UNL1       -0.3538
     16 C           0.4269    2.9165   19.1017 C.3     1  UNL1        0.1422
     17 C           1.7395    2.4435   18.5509 C.3     1  UNL1        0.0338
     18 C           4.1141   -4.1320   19.3502 C.3     1  UNL1        0.4351
     19 F           2.7291   -4.5564   18.9607 F       1  UNL1       -0.1644
     20 F           4.6825   -4.9748   18.2472 F       1  UNL1       -0.1644
     21 F           3.5456   -3.2891   20.4531 F       1  UNL1       -0.1644
     22 N           8.6160   -5.1204   21.7493 N.pl3   1  UNL1       -0.2808
     23 H           9.4468   -5.4812   21.3635 H       1  UNL1        0.1551
     24 C           8.2162   -5.4893   23.1471 C.ar    1  UNL1        0.0783
     25 C           7.4876   -4.4979   24.0052 C.ar    1  UNL1        0.0178
     26 C           7.0877   -4.8668   25.4030 C.ar    1  UNL1        0.0128
     27 C           7.4165   -6.2271   25.9429 C.ar    1  UNL1        0.0600
     28 CL          7.0166   -6.5961   27.3407 Cl      1  UNL1       -0.0822
     29 C           8.1450   -7.2185   25.0848 C.ar    1  UNL1        0.0423
     30 C           8.5449   -6.8496   23.6870 C.ar    1  UNL1        0.1543
     31 F           9.2735   -7.8411   22.8289 F       1  UNL1       -0.2028
@<TRIPOS>BOND
     1     7     8    2
     2     8     9   am
     3     9    11    1
     4    11    12    1
     5    12    13    1
     6    13    14    1
     7    14    15    1
     8    15    16    1
     9    16    17    1
    10     8     1    1
    11     1     2   ar
    12     2     3   ar
    13     3     4   ar
    14     4    22    1
    15    22    24    1
    16    24    25   ar
    17    25    26   ar
    18    26    27   ar
    19    27    28    1
    20    27    29   ar
    21    29    30   ar
    22    30    31    1
    23     4     5   ar
    24     5     6   ar
    25     6    18    1
    26    18    19    1
    27    18    20    1
    28    18    21    1
    29    17    12    1
    30     6     1   ar
    31    30    24   ar
    32     9    10    1
    33    22    23    1
@<TRIPOS>MOLECULE
*****
 31 33 0 0 0
SMALL
GASTEIGER

@<TRIPOS>ATOM
      1 C          -6.4629  -18.1186   22.3728 C.ar    1  UNL1        0.0942
      2 C          -7.3136  -17.0894   23.0563 C.ar    1  UNL1        0.1078
      3 N          -8.7934  -17.0579   22.8130 N.ar    1  UNL1       -0.2119
      4 C          -9.4225  -18.0557   21.8862 C.ar    1  UNL1        0.2207
      5 N          -8.5718  -19.0849   21.2028 N.ar    1  UNL1       -0.2094
      6 C          -7.0920  -19.1163   21.4461 C.ar    1  UNL1        0.1613
      7 O          -4.3209  -19.4250   23.0472 O.2     1  UNL1       -0.2700
      8 C          -4.9831  -18.1500   22.6161 C.2     1  UNL1        0.2488
      9 N          -4.1656  -16.9065   22.4283 N.am    1  UNL1       -0.3008
     10 H          -4.6002  -16.0696   22.1454 H       1  UNL1        0.1497
     11 C          -2.6858  -16.9379   22.6716 C.3     1  UNL1        0.0898
     12 C          -1.7614  -17.4500   21.6069 C.3     1  UNL1        0.0246
     13 C          -1.7885  -18.9000   21.2241 C.3     1  UNL1        0.0338
     14 C          -0.8641  -19.4120   20.1595 C.3     1  UNL1        0.1422
     15 O           0.0874  -18.4739   19.4778 O.3     1  UNL1       -0.3538
     16 C           0.1145  -17.0239   19.8606 C.3     1  UNL1        0.1422
     17 C          -0.8099  -16.5119   20.9252 C.3     1  UNL1        0.0338
     18 C          -6.2412  -20.1454   20.7627 C.3     1  UNL1        0.4351
     19 F          -5.3905  -21.1746   20.0793 F       1  UNL1       -0.1644
     20 F          -6.5305  -21.1181   21.8673 F       1  UNL1       -0.1644
     21 F          -5.9519  -19.1728   19.6581 F       1  UNL1       -0.1644
     22 N         -10.9023  -18.0242   21.6430 N.pl3   1  UNL1       -0.2808
     23 H         -11.2485  -17.9081   20.7287 H       1  UNL1        0.1551
     24 C         -11.8547  -18.1697   22.7927 C.ar    1  UNL1        0.0783
     25 C         -13.2368  -17.5946   22.6991 C.ar    1  UNL1        0.0178
     26 C         -14.1892  -17.7401   23.8488 C.ar    1  UNL1        0.0128
     27 C         -13.7594  -18.4607   25.0921 C.ar    1  UNL1        0.0600
     28 CL        -14.7117  -18.6062   26.2419 Cl      1  UNL1       -0.0822
     29 C         -12.3772  -19.0358   25.1858 C.ar    1  UNL1        0.0423
     30 C         -11.4248  -18.8903   24.0361 C.ar    1  UNL1        0.1543
     31 F         -10.0426  -19.4654   24.1297 F       1  UNL1       -0.2028
@<TRIPOS>BOND
     1     7     8    2
     2     8     9   am
     3     9    11    1
     4    11    12    1
     5    12    13    1
     6    13    14    1
     7    14    15    1
     8    15    16    1
     9    16    17    1
    10     8     1    1
    11     1     2   ar
    12     2     3   ar
    13     3     4   ar
    14     4    22    1
    15    22    24    1
    16    24    25   ar
    17    25    26   ar
    18    26    27   ar
    19    27    28    1
    20    27    29   ar
    21    29    30   ar
    22    30    31    1
    23     4     5   ar
    24     5     6   ar
    25     6    18    1
    26    18    19    1
    27    18    20    1
    28    18    21    1
    29    17    12    1
    30     6     1   ar
    31    30    24   ar
    32     9    10    1
    33    22    23    1
@<TRIPOS>MOLECULE
*****
 31 33 0 0 0
SMALL
GASTEIGER

@<TRIPOS>ATOM
      1 C          -9.1215  -19.4621   21.0194 C.ar    1  UNL1        0.0942
      2 C          -8.6228  -19.6293   19.6146 C.ar    1  UNL1        0.1078
      3 N          -7.1925  -20.0067   19.3664 N.ar    1  UNL1       -0.2119
      4 C          -6.2607  -20.2170   20.5230 C.ar    1  UNL1        0.2207
      5 N          -6.7594  -20.0499   21.9277 N.ar    1  UNL1       -0.2094
      6 C          -8.1898  -19.6724   22.1759 C.ar    1  UNL1        0.1613
      7 O         -11.6332  -20.1158   21.1361 O.2     1  UNL1       -0.2700
      8 C         -10.5518  -19.0847   21.2676 C.2     1  UNL1        0.2488
      9 N         -10.9008  -17.6761   21.6473 N.am    1  UNL1       -0.3008
     10 H         -10.1910  -16.9993   21.7336 H       1  UNL1        0.1497
     11 C         -12.3311  -17.2987   21.8955 C.3     1  UNL1        0.0898
     12 C         -13.0394  -17.8054   23.1169 C.3     1  UNL1        0.0246
     13 C         -14.5360  -17.9060   23.1283 C.3     1  UNL1        0.0338
     14 C         -15.2442  -18.4127   24.3496 C.3     1  UNL1        0.1422
     15 O         -14.4559  -18.8188   25.5595 O.3     1  UNL1       -0.3538
     16 C         -12.9593  -18.7182   25.5480 C.3     1  UNL1        0.1422
     17 C         -12.2511  -18.2115   24.3267 C.3     1  UNL1        0.0338
     18 C          -8.6884  -19.5053   23.5807 C.3     1  UNL1        0.4351
     19 F          -9.1871  -19.3382   24.9855 F       1  UNL1       -0.1644
     20 F          -8.3705  -18.0407   23.5193 F       1  UNL1       -0.1644
     21 F          -9.0064  -20.9700   23.6421 F       1  UNL1       -0.1644
     22 N          -4.8304  -20.5944   20.2747 N.pl3   1  UNL1       -0.2808
     23 H          -4.5952  -21.5299   20.0777 H       1  UNL1        0.1551
     24 C          -3.7583  -19.5466   20.3267 C.ar    1  UNL1        0.0783
     25 C          -3.1847  -18.9967   19.0545 C.ar    1  UNL1        0.0178
     26 C          -2.1127  -17.9488   19.1065 C.ar    1  UNL1        0.0128
     27 C          -1.6142  -17.4509   20.4307 C.ar    1  UNL1        0.0600
     28 CL         -0.5422  -16.4030   20.4827 Cl      1  UNL1       -0.0822
     29 C          -2.1878  -18.0008   21.7029 C.ar    1  UNL1        0.0423
     30 C          -3.2599  -19.0486   21.6509 C.ar    1  UNL1        0.1543
     31 F          -3.8335  -19.5985   22.9232 F       1  UNL1       -0.2028
@<TRIPOS>BOND
     1     7     8    2
     2     8     9   am
     3     9    11    1
     4    11    12    1
     5    12    13    1
     6    13    14    1
     7    14    15    1
     8    15    16    1
     9    16    17    1
    10     8     1    1
    11     1     2   ar
    12     2     3   ar
    13     3     4   ar
    14     4    22    1
    15    22    24    1
    16    24    25   ar
    17    25    26   ar
    18    26    27   ar
    19    27    28    1
    20    27    29   ar
    21    29    30   ar
    22    30    31    1
    23     4     5   ar
    24     5     6   ar
    25     6    18    1
    26    18    19    1
    27    18    20    1
    28    18    21    1
    29    17    12    1
    30     6     1   ar
    31    30    24   ar
    32     9    10    1
    33    22    23    1
@<TRIPOS>MOLECULE
*****
 31 33 0 0 0
SMALL
GASTEIGER

@<TRIPOS>ATOM
      1 C          -6.9003  -18.9471   20.4903 C.ar    1  UNL1        0.0942
      2 C          -7.7619  -19.6730   19.5000 C.ar    1  UNL1        0.1078
      3 N          -9.2558  -19.5736   19.5908 N.ar    1  UNL1       -0.2119
      4 C          -9.8882  -18.7481   20.6719 C.ar    1  UNL1        0.2207
      5 N          -9.0266  -18.0221   21.6622 N.ar    1  UNL1       -0.2094
      6 C          -7.5326  -18.1216   21.5713 C.ar    1  UNL1        0.1613
      7 O          -4.6756  -18.3619   19.2828 O.2     1  UNL1       -0.2700
      8 C          -5.4064  -19.0466   20.3995 C.2     1  UNL1        0.2488
      9 N          -4.6432  -19.8308   21.4255 N.am    1  UNL1       -0.3008
     10 H          -5.1229  -20.2802   22.1585 H       1  UNL1        0.1497
     11 C          -3.1493  -19.9303   21.3348 C.3     1  UNL1        0.0898
     12 C          -2.3270  -18.6943   21.1193 C.3     1  UNL1        0.0246
     13 C          -1.2309  -18.6918   20.0953 C.3     1  UNL1        0.0338
     14 C          -0.4087  -17.4559   19.8799 C.3     1  UNL1        0.1422
     15 O          -0.6825  -16.2225   20.6885 O.3     1  UNL1       -0.3538
     16 C          -1.7786  -16.2251   21.7125 C.3     1  UNL1        0.1422
     17 C          -2.6008  -17.4610   21.9279 C.3     1  UNL1        0.0338
     18 C          -6.6711  -17.3956   22.5616 C.3     1  UNL1        0.4351
     19 F          -5.8095  -16.6697   23.5519 F       1  UNL1       -0.1644
     20 F          -7.1760  -16.0834   22.0389 F       1  UNL1       -0.1644
     21 F          -6.1662  -18.7078   23.0843 F       1  UNL1       -0.1644
     22 N         -11.3821  -18.6486   20.7627 N.pl3   1  UNL1       -0.2808
     23 H         -11.9238  -18.6109   19.9414 H       1  UNL1        0.1551
     24 C         -12.0508  -18.6064   22.1047 C.ar    1  UNL1        0.0783
     25 C         -13.2813  -17.7720   22.3036 C.ar    1  UNL1        0.0178
     26 C         -13.9500  -17.7299   23.6457 C.ar    1  UNL1        0.0128
     27 C         -13.3883  -18.5221   24.7888 C.ar    1  UNL1        0.0600
     28 CL        -14.0570  -18.4800   26.1308 Cl      1  UNL1       -0.0822
     29 C         -12.1578  -19.3565   24.5898 C.ar    1  UNL1        0.0423
     30 C         -11.4890  -19.3987   23.2478 C.ar    1  UNL1        0.1543
     31 F         -10.2585  -20.2331   23.0489 F       1  UNL1       -0.2028
@<TRIPOS>BOND
     1     7     8    2
     2     8     9   am
     3     9    11    1
     4    11    12    1
     5    12    13    1
     6    13    14    1
     7    14    15    1
     8    15    16    1
     9    16    17    1
    10     8     1    1
    11     1     2   ar
    12     2     3   ar
    13     3     4   ar
    14     4    22    1
    15    22    24    1
    16    24    25   ar
    17    25    26   ar
    18    26    27   ar
    19    27    28    1
    20    27    29   ar
    21    29    30   ar
    22    30    31    1
    23     4     5   ar
    24     5     6   ar
    25     6    18    1
    26    18    19    1
    27    18    20    1
    28    18    21    1
    29    17    12    1
    30     6     1   ar
    31    30    24   ar
    32     9    10    1
    33    22    23    1
@<TRIPOS>MOLECULE
*****
 31 33 0 0 0
SMALL
GASTEIGER

@<TRIPOS>ATOM
      1 C          -8.9379  -18.3377   21.0755 C.ar    1  UNL1        0.0942
      2 C          -8.7505  -19.2243   19.8802 C.ar    1  UNL1        0.1078
      3 N          -7.4367  -19.9123   19.6553 N.ar    1  UNL1       -0.2119
      4 C          -6.3102  -19.7136   20.6257 C.ar    1  UNL1        0.2207
      5 N          -6.4976  -18.8269   21.8210 N.ar    1  UNL1       -0.2094
      6 C          -7.8115  -18.1389   22.0459 C.ar    1  UNL1        0.1613
      7 O         -10.4032  -16.1950   20.9677 O.2     1  UNL1       -0.2700
      8 C         -10.2517  -17.6497   21.3004 C.2     1  UNL1        0.2488
      9 N         -11.4141  -18.4166   21.8580 N.am    1  UNL1       -0.3008
     10 H         -11.3147  -19.3714   22.0763 H       1  UNL1        0.1497
     11 C         -12.7279  -17.7287   22.0828 C.3     1  UNL1        0.0898
     12 C         -13.5718  -18.0925   23.2685 C.3     1  UNL1        0.0246
     13 C         -12.9525  -18.1778   24.6320 C.3     1  UNL1        0.0338
     14 C         -13.7963  -18.5416   25.8175 C.3     1  UNL1        0.1422
     15 O         -15.2595  -18.8200   25.6395 O.3     1  UNL1       -0.3538
     16 C         -15.8788  -18.7347   24.2760 C.3     1  UNL1        0.1422
     17 C         -15.0349  -18.3709   23.0905 C.3     1  UNL1        0.0338
     18 C          -7.9989  -17.2523   23.2412 C.3     1  UNL1        0.4351
     19 F          -8.1863  -16.3656   24.4364 F       1  UNL1       -0.1644
     20 F          -8.7141  -18.3625   23.9525 F       1  UNL1       -0.1644
     21 F          -7.2837  -16.1421   22.5298 F       1  UNL1       -0.1644
     22 N          -4.9964  -20.4015   20.4008 N.pl3   1  UNL1       -0.2808
     23 H          -4.9665  -21.3780   20.2797 H       1  UNL1        0.1551
     24 C          -3.7281  -19.6015   20.3605 C.ar    1  UNL1        0.0783
     25 C          -3.1851  -19.1223   19.0470 C.ar    1  UNL1        0.0178
     26 C          -1.9168  -18.3224   19.0067 C.ar    1  UNL1        0.0128
     27 C          -1.1916  -18.0017   20.2800 C.ar    1  UNL1        0.0600
     28 CL          0.0767  -17.2017   20.2397 Cl      1  UNL1       -0.0822
     29 C          -1.7346  -18.4809   21.5935 C.ar    1  UNL1        0.0423
     30 C          -3.0029  -19.2809   21.6338 C.ar    1  UNL1        0.1543
     31 F          -3.5459  -19.7601   22.9474 F       1  UNL1       -0.2028
@<TRIPOS>BOND
     1     7     8    2
     2     8     9   am
     3     9    11    1
     4    11    12    1
     5    12    13    1
     6    13    14    1
     7    14    15    1
     8    15    16    1
     9    16    17    1
    10     8     1    1
    11     1     2   ar
    12     2     3   ar
    13     3     4   ar
    14     4    22    1
    15    22    24    1
    16    24    25   ar
    17    25    26   ar
    18    26    27   ar
    19    27    28    1
    20    27    29   ar
    21    29    30   ar
    22    30    31    1
    23     4     5   ar
    24     5     6   ar
    25     6    18    1
    26    18    19    1
    27    18    20    1
    28    18    21    1
    29    17    12    1
    30     6     1   ar
    31    30    24   ar
    32     9    10    1
    33    22    23    1
@<TRIPOS>MOLECULE
*****
 31 33 0 0 0
SMALL
GASTEIGER

@<TRIPOS>ATOM
      1 C           0.0984    2.4282   28.5942 C.ar    1  UNL1        0.0942
      2 C           0.7448    3.6583   29.1590 C.ar    1  UNL1        0.1078
      3 N           1.0881    3.7227   30.6178 N.ar    1  UNL1       -0.2119
      4 C           0.7851    2.5568   31.5117 C.ar    1  UNL1        0.2207
      5 N           0.1387    1.3267   30.9469 N.ar    1  UNL1       -0.2094
      6 C          -0.2046    1.2624   29.4880 C.ar    1  UNL1        0.1613
      7 O           0.6028    1.5531   26.2005 O.2     1  UNL1       -0.2700
      8 C          -0.2449    2.3639   27.1354 C.2     1  UNL1        0.2488
      9 N          -1.4359    3.1103   26.6116 N.am    1  UNL1       -0.3008
     10 H          -1.9923    3.6424   27.2252 H       1  UNL1        0.1497
     11 C          -1.7792    3.0460   25.1528 C.3     1  UNL1        0.0898
     12 C          -3.1381    3.4730   24.6826 C.3     1  UNL1        0.0246
     13 C          -4.2129    3.7867   25.6808 C.3     1  UNL1        0.0338
     14 C          -5.5717    4.2137   25.2105 C.3     1  UNL1        0.1422
     15 O          -5.8558    4.3270   23.7420 O.3     1  UNL1       -0.3538
     16 C          -4.7810    4.0133   22.7438 C.3     1  UNL1        0.1422
     17 C          -3.4222    3.5863   23.2141 C.3     1  UNL1        0.0338
     18 C          -0.8509    0.0323   28.9232 C.3     1  UNL1        0.4351
     19 F          -1.4972   -1.1978   28.3583 F       1  UNL1       -0.1644
     20 F          -2.2045    0.6225   29.1867 F       1  UNL1       -0.1644
     21 F           0.5027   -0.5579   28.6596 F       1  UNL1       -0.1644
     22 N           1.1284    2.6211   32.9705 N.pl3   1  UNL1       -0.2808
     23 H           0.5783    3.1619   33.5822 H       1  UNL1        0.1551
     24 C           2.3098    1.8616   33.4971 C.ar    1  UNL1        0.0783
     25 C           3.0023    0.8546   32.6275 C.ar    1  UNL1        0.0178
     26 C           4.1837    0.0950   33.1542 C.ar    1  UNL1        0.0128
     27 C           4.6726    0.3426   34.5505 C.ar    1  UNL1        0.0600
     28 CL          5.8540   -0.4170   35.0772 Cl      1  UNL1       -0.0822
     29 C           3.9801    1.3496   35.4201 C.ar    1  UNL1        0.0423
     30 C           2.7987    2.1091   34.8934 C.ar    1  UNL1        0.1543
     31 F           2.1062    3.1162   35.7631 F       1  UNL1       -0.2028
@<TRIPOS>BOND
     1     7     8    2
     2     8     9   am
     3     9    11    1
     4    11    12    1
     5    12    13    1
     6    13    14    1
     7    14    15    1
     8    15    16    1
     9    16    17    1
    10     8     1    1
    11     1     2   ar
    12     2     3   ar
    13     3     4   ar
    14     4    22    1
    15    22    24    1
    16    24    25   ar
    17    25    26   ar
    18    26    27   ar
    19    27    28    1
    20    27    29   ar
    21    29    30   ar
    22    30    31    1
    23     4     5   ar
    24     5     6   ar
    25     6    18    1
    26    18    19    1
    27    18    20    1
    28    18    21    1
    29    17    12    1
    30     6     1   ar
    31    30    24   ar
    32     9    10    1
    33    22    23    1
@<TRIPOS>MOLECULE
*****
 31 33 0 0 0
SMALL
GASTEIGER

@<TRIPOS>ATOM
      1 C           4.7915   -2.4307   20.9107 C.ar    1  UNL1        0.0942
      2 C           4.3337   -1.2078   21.6489 C.ar    1  UNL1        0.1078
      3 N           3.0100   -0.5843   21.3189 N.ar    1  UNL1       -0.2119
      4 C           2.1440   -1.1837   20.2508 C.ar    1  UNL1        0.2207
      5 N           2.6018   -2.4066   19.5126 N.ar    1  UNL1       -0.2094
      6 C           3.9256   -3.0301   19.8426 C.ar    1  UNL1        0.1613
      7 O           7.3027   -2.8044   20.3588 O.2     1  UNL1       -0.2700
      8 C           6.1153   -3.0543   21.2407 C.2     1  UNL1        0.2488
      9 N           6.2517   -3.9278   22.4525 N.am    1  UNL1       -0.3008
     10 H           5.4723   -4.0918   23.0313 H       1  UNL1        0.1497
     11 C           7.5754   -4.5513   22.7824 C.3     1  UNL1        0.0898
     12 C           7.6960   -5.4790   23.9550 C.3     1  UNL1        0.0246
     13 C           7.0805   -5.1078   25.2715 C.3     1  UNL1        0.0338
     14 C           7.2011   -6.0355   26.4440 C.3     1  UNL1        0.1422
     15 O           7.9373   -7.3344   26.3000 O.3     1  UNL1       -0.3538
     16 C           8.5529   -7.7057   24.9835 C.3     1  UNL1        0.1422
     17 C           8.4322   -6.7780   23.8110 C.3     1  UNL1        0.0338
     18 C           4.3835   -4.2530   19.1044 C.3     1  UNL1        0.4351
     19 F           4.8413   -5.4760   18.3663 F       1  UNL1       -0.1644
     20 F           3.6738   -5.1205   20.1014 F       1  UNL1       -0.1644
     21 F           5.0931   -3.3856   18.1075 F       1  UNL1       -0.1644
     22 N           0.8203   -0.5602   19.9208 N.pl3   1  UNL1       -0.2808
     23 H           0.0275   -1.1289   19.7888 H       1  UNL1        0.1551
     24 C           0.7043    0.9298   19.7921 C.ar    1  UNL1        0.0783
     25 C           0.8968    1.5844   18.4563 C.ar    1  UNL1        0.0178
     26 C           0.7808    3.0744   18.3276 C.ar    1  UNL1        0.0128
     27 C           0.4724    3.9097   19.5347 C.ar    1  UNL1        0.0600
     28 CL          0.3564    5.3997   19.4060 Cl      1  UNL1       -0.0822
     29 C           0.2798    3.2551   20.8705 C.ar    1  UNL1        0.0423
     30 C           0.3958    1.7651   20.9992 C.ar    1  UNL1        0.1543
     31 F           0.2033    1.1105   22.3350 F       1  UNL1       -0.2028
@<TRIPOS>BOND
     1     7     8    2
     2     8     9   am
     3     9    11    1
     4    11    12    1
     5    12    13    1
     6    13    14    1
     7    14    15    1
     8    15    16    1
     9    16    17    1
    10     8     1    1
    11     1     2   ar
    12     2     3   ar
    13     3     4   ar
    14     4    22    1
    15    22    24    1
    16    24    25   ar
    17    25    26   ar
    18    26    27   ar
    19    27    28    1
    20    27    29   ar
    21    29    30   ar
    22    30    31    1
    23     4     5   ar
    24     5     6   ar
    25     6    18    1
    26    18    19    1
    27    18    20    1
    28    18    21    1
    29    17    12    1
    30     6     1   ar
    31    30    24   ar
    32     9    10    1
    33    22    23    1
