@<TRIPOS>MOLECULE
*****
 32 37 0 0 0
SMALL
GASTEIGER

@<TRIPOS>ATOM
      1 C          -9.0925  -16.0715   23.0787 C.ar    1  UNL1        0.0190
      2 C          -9.7278  -15.4962   24.3097 C.ar    1  UNL1        0.0032
      3 C          -8.8928  -15.2180   25.5244 C.ar    1  UNL1        0.0226
      4 C          -7.4226  -15.5152   25.5080 C.ar    1  UNL1        0.1221
      5 N          -6.3532  -15.3478   26.5465 N.ar    1  UNL1       -0.1285
      6 N          -5.0570  -15.8196   25.9572 N.ar    1  UNL1       -0.0599
      7 N          -5.3254  -16.2786   24.5546 N.ar    1  UNL1       -0.2141
      8 C          -6.7874  -16.0904   24.2770 C.ar    1  UNL1        0.1034
      9 C          -7.6223  -16.3686   23.0623 C.ar    1  UNL1        0.0223
     10 C          -4.3100  -16.8291   23.5976 C.2     1  UNL1        0.0681
     11 C          -4.1785  -18.3120   23.4145 C.2     1  UNL1        0.0153
     12 C          -3.1631  -18.8625   22.4575 C.2     1  UNL1        0.0041
     13 C          -2.2791  -17.9300   21.6835 C.2     1  UNL1        0.0367
     14 C          -1.1956  -18.1786   20.6765 C.2     1  UNL1        0.1233
     15 N          -0.6574  -16.8492   20.2371 N.2     1  UNL1       -0.1467
     16 N          -1.4083  -15.7791   20.9726 N.2     1  UNL1       -0.1519
     17 C          -2.4106  -16.4471   21.8666 C.2     1  UNL1        0.0880
     18 C          -3.4260  -15.8966   22.8236 C.3     1  UNL1        0.0934
     19 N         -10.1821  -17.6985   21.2591 N.ar    1  UNL1       -0.2448
     20 N         -11.0663  -17.5104   20.0622 N.ar    1  UNL1       -0.1673
     21 C         -11.3582  -16.0452   19.9272 C.ar    1  UNL1        0.1217
     22 C         -10.6543  -15.3279   21.0408 C.ar    1  UNL1        0.0412
     23 C          -9.9274  -16.3497   21.8639 C.ar    1  UNL1        0.0799
     24 C          -9.6465  -19.0060   21.7628 C.3     1  UNL1        0.1727
     25 C          -5.5269  -20.3623   20.5633 C.ar    1  UNL1        0.0875
     26 C          -6.1315  -20.8463   21.8479 C.ar    1  UNL1        0.0131
     27 C          -7.5047  -20.3942   22.2477 C.ar    1  UNL1        0.0174
     28 C          -8.2733  -19.4580   21.3629 C.ar    1  UNL1        0.0837
     29 N          -7.6688  -18.9740   20.0783 N.ar    1  UNL1       -0.2454
     30 C          -6.2956  -19.4261   19.6785 C.ar    1  UNL1        0.1087
     31 N          -2.7804  -21.2664   19.7635 N.1     1  UNL1       -0.1908
     32 C          -4.1537  -20.8144   20.1634 C.1     1  UNL1        0.1020
@<TRIPOS>BOND
     1    31    32    3
     2    32    25    1
     3    25    26   ar
     4    26    27   ar
     5    27    28   ar
     6    28    24    1
     7    24    19    1
     8    19    20   ar
     9    20    21   ar
    10    21    22   ar
    11    22    23   ar
    12    23     1    1
    13     1     2   ar
    14     2     3   ar
    15     3     4   ar
    16     4     5   ar
    17     5     6   ar
    18     6     7   ar
    19     7    10    1
    20    10    11    2
    21    11    12    1
    22    12    13    2
    23    13    14    1
    24    14    15    2
    25    15    16    1
    26    16    17    2
    27    17    18    1
    28     7     8   ar
    29     8     9   ar
    30    28    29   ar
    31    29    30   ar
    32    30    25   ar
    33    23    19   ar
    34     9     1   ar
    35     8     4   ar
    36    18    10    1
    37    17    13    1
@<TRIPOS>MOLECULE
*****
 32 37 0 0 0
SMALL
GASTEIGER

@<TRIPOS>ATOM
      1 C         -14.9116   -0.4860   18.3474 C.ar    1  UNL1        0.0190
      2 C         -15.8046    0.5271   19.0002 C.ar    1  UNL1        0.0032
      3 C         -17.0299    0.0801   19.7410 C.ar    1  UNL1        0.0226
      4 C         -17.3622   -1.3800   19.8291 C.ar    1  UNL1        0.1221
      5 N         -18.4935   -2.1141   20.4859 N.ar    1  UNL1       -0.1285
      6 N         -18.2996   -3.5808   20.2391 N.ar    1  UNL1       -0.0599
      7 N         -17.0485   -3.7533   19.4296 N.ar    1  UNL1       -0.2141
      8 C         -16.4692   -2.3931   19.1762 C.ar    1  UNL1        0.1034
      9 C         -15.2439   -1.9461   18.4354 C.ar    1  UNL1        0.0223
     10 C         -16.4771   -5.0570   18.9566 C.2     1  UNL1        0.0681
     11 C         -15.5973   -5.0938   17.7423 C.2     1  UNL1        0.0153
     12 C         -15.0259   -6.3975   17.2693 C.2     1  UNL1        0.0041
     13 C         -15.3342   -7.6645   18.0106 C.2     1  UNL1        0.0367
     14 C         -14.9179   -9.0874   17.7827 C.2     1  UNL1        0.1233
     15 N         -15.5405   -9.9301   18.8562 N.2     1  UNL1       -0.1467
     16 N         -16.3415   -9.0280   19.7475 N.2     1  UNL1       -0.1519
     17 C         -16.2140   -7.6278   19.2249 C.2     1  UNL1        0.0880
     18 C         -16.7855   -6.3240   19.6979 C.3     1  UNL1        0.0934
     19 N         -12.2720   -0.4189   17.9313 N.ar    1  UNL1       -0.2448
     20 N         -11.3717    0.2516   16.9364 N.ar    1  UNL1       -0.1673
     21 C         -12.2297    1.0460   15.9967 C.ar    1  UNL1        0.1217
     22 C         -13.6601    0.8664   16.4109 C.ar    1  UNL1        0.0412
     23 C         -13.6863   -0.0390   17.6065 C.ar    1  UNL1        0.0799
     24 C         -11.8347   -1.3125   19.0539 C.3     1  UNL1        0.1727
     25 C         -10.6867   -5.5819   18.2151 C.ar    1  UNL1        0.0875
     26 C         -11.8615   -5.2807   19.0977 C.ar    1  UNL1        0.0131
     27 C         -12.2442   -3.8576   19.3773 C.ar    1  UNL1        0.0174
     28 C         -11.4520   -2.7356   18.7743 C.ar    1  UNL1        0.0837
     29 N         -10.2772   -3.0368   17.8916 N.ar    1  UNL1       -0.2454
     30 C          -9.8945   -4.4599   17.6120 C.ar    1  UNL1        0.1087
     31 N          -9.9210   -8.4281   17.6556 N.1     1  UNL1       -0.1908
     32 C         -10.3039   -7.0051   17.9354 C.1     1  UNL1        0.1020
@<TRIPOS>BOND
     1    31    32    3
     2    32    25    1
     3    25    26   ar
     4    26    27   ar
     5    27    28   ar
     6    28    24    1
     7    24    19    1
     8    19    20   ar
     9    20    21   ar
    10    21    22   ar
    11    22    23   ar
    12    23     1    1
    13     1     2   ar
    14     2     3   ar
    15     3     4   ar
    16     4     5   ar
    17     5     6   ar
    18     6     7   ar
    19     7    10    1
    20    10    11    2
    21    11    12    1
    22    12    13    2
    23    13    14    1
    24    14    15    2
    25    15    16    1
    26    16    17    2
    27    17    18    1
    28     7     8   ar
    29     8     9   ar
    30    28    29   ar
    31    29    30   ar
    32    30    25   ar
    33    23    19   ar
    34     9     1   ar
    35     8     4   ar
    36    18    10    1
    37    17    13    1
@<TRIPOS>MOLECULE
*****
 32 37 0 0 0
SMALL
GASTEIGER

@<TRIPOS>ATOM
      1 C           0.4876    1.9501   23.2026 C.ar    1  UNL1        0.0190
      2 C          -0.5309    3.0114   22.9089 C.ar    1  UNL1        0.0032
      3 C          -0.8587    3.3636   21.4881 C.ar    1  UNL1        0.0226
      4 C          -0.1680    2.6545   20.3611 C.ar    1  UNL1        0.1221
      5 N          -0.2835    2.7865   18.8714 N.ar    1  UNL1       -0.1285
      6 N           0.6636    1.8068   18.2444 N.ar    1  UNL1       -0.0599
      7 N           1.3644    1.0692   19.3467 N.ar    1  UNL1       -0.2141
      8 C           0.8505    1.5932   20.6548 C.ar    1  UNL1        0.1034
      9 C           1.1783    1.2410   22.0755 C.ar    1  UNL1        0.0223
     10 C           2.3978   -0.0038   19.1715 C.2     1  UNL1        0.0681
     11 C           2.2744   -1.2943   19.9260 C.2     1  UNL1        0.0153
     12 C           3.3077   -2.3674   19.7508 C.2     1  UNL1        0.0041
     13 C           4.4646   -2.1499   18.8211 C.2     1  UNL1        0.0367
     14 C           5.6291   -3.0185   18.4475 C.2     1  UNL1        0.1233
     15 N           6.4722   -2.2648   17.4622 N.2     1  UNL1       -0.1467
     16 N           5.8288   -0.9304   17.2267 N.2     1  UNL1       -0.1519
     17 C           4.5880   -0.8594   18.0666 C.2     1  UNL1        0.0880
     18 C           3.5547    0.2136   18.2418 C.3     1  UNL1        0.0934
     19 N           2.1922    1.4326   25.1955 N.ar    1  UNL1       -0.2448
     20 N           2.0518    1.0816   26.6471 N.ar    1  UNL1       -0.1673
     21 C           0.5883    1.0300   26.9720 C.ar    1  UNL1        0.1217
     22 C          -0.1758    1.3490   25.7213 C.ar    1  UNL1        0.0412
     23 C           0.8155    1.5978   24.6233 C.ar    1  UNL1        0.0799
     24 C           3.4827    1.5905   24.4475 C.3     1  UNL1        0.1727
     25 C           5.5426   -2.0213   22.7268 C.ar    1  UNL1        0.0875
     26 C           4.2081   -2.1668   23.3961 C.ar    1  UNL1        0.0131
     27 C           3.5215   -0.9628   23.9696 C.ar    1  UNL1        0.0174
     28 C           4.1694    0.3866   23.8739 C.ar    1  UNL1        0.0837
     29 N           5.5039    0.5322   23.2046 N.ar    1  UNL1       -0.2454
     30 C           6.1905   -0.6718   22.6310 C.ar    1  UNL1        0.1087
     31 N           6.9161   -4.4291   21.5795 N.1     1  UNL1       -0.1908
     32 C           6.2294   -3.2253   22.1532 C.1     1  UNL1        0.1020
@<TRIPOS>BOND
     1    31    32    3
     2    32    25    1
     3    25    26   ar
     4    26    27   ar
     5    27    28   ar
     6    28    24    1
     7    24    19    1
     8    19    20   ar
     9    20    21   ar
    10    21    22   ar
    11    22    23   ar
    12    23     1    1
    13     1     2   ar
    14     2     3   ar
    15     3     4   ar
    16     4     5   ar
    17     5     6   ar
    18     6     7   ar
    19     7    10    1
    20    10    11    2
    21    11    12    1
    22    12    13    2
    23    13    14    1
    24    14    15    2
    25    15    16    1
    26    16    17    2
    27    17    18    1
    28     7     8   ar
    29     8     9   ar
    30    28    29   ar
    31    29    30   ar
    32    30    25   ar
    33    23    19   ar
    34     9     1   ar
    35     8     4   ar
    36    18    10    1
    37    17    13    1
@<TRIPOS>MOLECULE
*****
 32 37 0 0 0
SMALL
GASTEIGER

@<TRIPOS>ATOM
      1 C           0.7259    2.0969   23.0354 C.ar    1  UNL1        0.0190
      2 C           0.0108    2.4381   24.3090 C.ar    1  UNL1        0.0032
      3 C           0.4915    1.8742   25.6132 C.ar    1  UNL1        0.0226
      4 C           1.6873    0.9691   25.6437 C.ar    1  UNL1        0.1221
      5 N           2.3868    0.2679   26.7703 N.ar    1  UNL1       -0.1285
      6 N           3.5342   -0.5067   26.1928 N.ar    1  UNL1       -0.0599
      7 N           3.5438   -0.2842   24.7094 N.ar    1  UNL1       -0.2141
      8 C           2.4023    0.6279   24.3701 C.ar    1  UNL1        0.1034
      9 C           1.9216    1.1918   23.0659 C.ar    1  UNL1        0.0223
     10 C           4.5229   -0.8708   23.7362 C.2     1  UNL1        0.0681
     11 C           5.4679    0.0247   22.9911 C.2     1  UNL1        0.0153
     12 C           6.4470   -0.5619   22.0179 C.2     1  UNL1        0.0041
     13 C           6.4813   -2.0441   21.7898 C.2     1  UNL1        0.0367
     14 C           7.3297   -2.9033   20.8999 C.2     1  UNL1        0.1233
     15 N           6.9091   -4.3298   21.0950 N.2     1  UNL1       -0.1467
     16 N           5.8008   -4.3523   22.1054 N.2     1  UNL1       -0.1519
     17 C           5.5363   -2.9396   22.5348 C.2     1  UNL1        0.0880
     18 C           4.5572   -2.3530   23.5080 C.3     1  UNL1        0.0934
     19 N           0.0065    1.8851   20.4697 N.ar    1  UNL1       -0.2448
     20 N          -0.4674    2.8442   19.4183 N.ar    1  UNL1       -0.1673
     21 C          -0.5214    4.2128   20.0299 C.ar    1  UNL1        0.1217
     22 C          -0.0810    4.0995   21.4593 C.ar    1  UNL1        0.0412
     23 C           0.2452    2.6608   21.7311 C.ar    1  UNL1        0.0799
     24 C           0.2064    0.4093   20.2910 C.3     1  UNL1        0.1727
     25 C           4.0512   -1.1455   18.5446 C.ar    1  UNL1        0.0875
     26 C           3.5087   -1.7389   19.8109 C.ar    1  UNL1        0.0131
     27 C           2.2270   -1.2206   20.3930 C.ar    1  UNL1        0.0174
     28 C           1.4880   -0.1089   19.7088 C.ar    1  UNL1        0.0837
     29 N           2.0306    0.4844   18.4425 N.ar    1  UNL1       -0.2454
     30 C           3.3122   -0.0339   17.8604 C.ar    1  UNL1        0.1087
     31 N           6.6145   -2.1820   17.3803 N.1     1  UNL1       -0.1908
     32 C           5.3329   -1.6637   17.9624 C.1     1  UNL1        0.1020
@<TRIPOS>BOND
     1    31    32    3
     2    32    25    1
     3    25    26   ar
     4    26    27   ar
     5    27    28   ar
     6    28    24    1
     7    24    19    1
     8    19    20   ar
     9    20    21   ar
    10    21    22   ar
    11    22    23   ar
    12    23     1    1
    13     1     2   ar
    14     2     3   ar
    15     3     4   ar
    16     4     5   ar
    17     5     6   ar
    18     6     7   ar
    19     7    10    1
    20    10    11    2
    21    11    12    1
    22    12    13    2
    23    13    14    1
    24    14    15    2
    25    15    16    1
    26    16    17    2
    27    17    18    1
    28     7     8   ar
    29     8     9   ar
    30    28    29   ar
    31    29    30   ar
    32    30    25   ar
    33    23    19   ar
    34     9     1   ar
    35     8     4   ar
    36    18    10    1
    37    17    13    1
@<TRIPOS>MOLECULE
*****
 32 37 0 0 0
SMALL
GASTEIGER

@<TRIPOS>ATOM
      1 C          -0.5190    2.0962   25.6163 C.ar    1  UNL1        0.0190
      2 C          -1.5253    3.1852   25.8428 C.ar    1  UNL1        0.0032
      3 C          -2.0357    3.9877   24.6829 C.ar    1  UNL1        0.0226
      4 C          -1.5398    3.7012   23.2965 C.ar    1  UNL1        0.1221
      5 N          -1.8588    4.3212   21.9683 N.ar    1  UNL1       -0.1285
      6 N          -1.0496    3.6153   20.9210 N.ar    1  UNL1       -0.0599
      7 N          -0.2305    2.5591   21.6019 N.ar    1  UNL1       -0.2141
      8 C          -0.5335    2.6122   23.0700 C.ar    1  UNL1        0.1034
      9 C          -0.0231    1.8097   24.2299 C.ar    1  UNL1        0.0223
     10 C           0.7239    1.6154   20.9323 C.2     1  UNL1        0.0681
     11 C           0.3102    0.2002   20.6568 C.2     1  UNL1        0.0153
     12 C           1.2646   -0.7435   19.9872 C.2     1  UNL1        0.0041
     13 C           2.6329   -0.2720   19.5929 C.2     1  UNL1        0.0367
     14 C           3.7804   -0.9686   18.9237 C.2     1  UNL1        0.1233
     15 N           4.9035    0.0162   18.7855 N.2     1  UNL1       -0.1467
     16 N           4.4500    1.3213   19.3694 N.2     1  UNL1       -0.1519
     17 C           3.0467    1.1432   19.8684 C.2     1  UNL1        0.0880
     18 C           2.0922    2.0869   20.5381 C.3     1  UNL1        0.0934
     19 N           1.4130    0.8685   26.9967 N.ar    1  UNL1       -0.2448
     20 N           1.4702    0.0874   28.2760 N.ar    1  UNL1       -0.1673
     21 C           0.0839    0.0297   28.8462 C.ar    1  UNL1        0.1217
     22 C          -0.8299    0.7752   27.9192 C.ar    1  UNL1        0.0412
     23 C          -0.0085    1.2936   26.7762 C.ar    1  UNL1        0.0799
     24 C           2.5736    1.1713   26.0960 C.3     1  UNL1        0.1727
     25 C           4.4123   -2.1032   23.6168 C.ar    1  UNL1        0.0875
     26 C           3.4183   -1.1640   23.0005 C.ar    1  UNL1        0.0131
     27 C           2.8054   -0.0725   23.8269 C.ar    1  UNL1        0.0174
     28 C           3.1865    0.0798   25.2697 C.ar    1  UNL1        0.0837
     29 N           4.1805   -0.8594   25.8860 N.ar    1  UNL1       -0.2454
     30 C           4.7934   -1.9509   25.0596 C.ar    1  UNL1        0.1087
     31 N           5.6382   -4.2863   21.9641 N.1     1  UNL1       -0.1908
     32 C           5.0252   -3.1948   22.7904 C.1     1  UNL1        0.1020
@<TRIPOS>BOND
     1    31    32    3
     2    32    25    1
     3    25    26   ar
     4    26    27   ar
     5    27    28   ar
     6    28    24    1
     7    24    19    1
     8    19    20   ar
     9    20    21   ar
    10    21    22   ar
    11    22    23   ar
    12    23     1    1
    13     1     2   ar
    14     2     3   ar
    15     3     4   ar
    16     4     5   ar
    17     5     6   ar
    18     6     7   ar
    19     7    10    1
    20    10    11    2
    21    11    12    1
    22    12    13    2
    23    13    14    1
    24    14    15    2
    25    15    16    1
    26    16    17    2
    27    17    18    1
    28     7     8   ar
    29     8     9   ar
    30    28    29   ar
    31    29    30   ar
    32    30    25   ar
    33    23    19   ar
    34     9     1   ar
    35     8     4   ar
    36    18    10    1
    37    17    13    1
@<TRIPOS>MOLECULE
*****
 32 37 0 0 0
SMALL
GASTEIGER

@<TRIPOS>ATOM
      1 C         -12.9004   -1.8760   18.1220 C.ar    1  UNL1        0.0190
      2 C         -11.4690   -1.4284   18.1450 C.ar    1  UNL1        0.0032
      3 C         -10.3770   -2.4213   18.4125 C.ar    1  UNL1        0.0226
      4 C         -10.7164   -3.8618   18.6571 C.ar    1  UNL1        0.1221
      5 N          -9.8608   -5.0597   18.9454 N.ar    1  UNL1       -0.1285
      6 N         -10.7634   -6.2475   19.1005 N.ar    1  UNL1       -0.0599
      7 N         -12.1770   -5.7838   18.9081 N.ar    1  UNL1       -0.2141
      8 C         -12.1479   -4.3094   18.6341 C.ar    1  UNL1        0.1034
      9 C         -13.2399   -3.3165   18.3665 C.ar    1  UNL1        0.0223
     10 C         -13.4041   -6.6436   18.9776 C.2     1  UNL1        0.0681
     11 C         -14.6559   -6.1143   19.6123 C.2     1  UNL1        0.0153
     12 C         -15.8830   -6.9740   19.6818 C.2     1  UNL1        0.0041
     13 C         -15.8585   -8.3632   19.1165 C.2     1  UNL1        0.0367
     14 C         -16.9056   -9.4345   19.0404 C.2     1  UNL1        0.1233
     15 N         -16.3010  -10.6260   18.3587 N.2     1  UNL1       -0.1467
     16 N         -14.8802  -10.2911   18.0134 N.2     1  UNL1       -0.1519
     17 C         -14.6067   -8.8926   18.4818 C.2     1  UNL1        0.0880
     18 C         -13.3795   -8.0328   18.4124 C.3     1  UNL1        0.0934
     19 N         -15.3534   -0.8779   18.4852 N.ar    1  UNL1       -0.2448
     20 N         -16.1174    0.2873   17.9298 N.ar    1  UNL1       -0.1673
     21 C         -15.2287    1.0023   16.9556 C.ar    1  UNL1        0.1217
     22 C         -13.9154    0.2790   16.9090 C.ar    1  UNL1        0.0412
     23 C         -13.9925   -0.8831   17.8544 C.ar    1  UNL1        0.0799
     24 C         -15.8612   -1.8647   19.4943 C.3     1  UNL1        0.1727
     25 C         -18.6227   -5.1775   18.2102 C.ar    1  UNL1        0.0875
     26 C         -18.6826   -4.6531   19.6143 C.ar    1  UNL1        0.0131
     27 C         -17.7620   -3.5488   20.0423 C.ar    1  UNL1        0.0174
     28 C         -16.7816   -2.9690   19.0663 C.ar    1  UNL1        0.0837
     29 N         -16.7218   -3.4934   17.6622 N.ar    1  UNL1       -0.2454
     30 C         -17.6423   -4.5977   17.2342 C.ar    1  UNL1        0.1087
     31 N         -20.4636   -7.3862   17.3540 N.1     1  UNL1       -0.1908
     32 C         -19.5432   -6.2818   17.7821 C.1     1  UNL1        0.1020
@<TRIPOS>BOND
     1    31    32    3
     2    32    25    1
     3    25    26   ar
     4    26    27   ar
     5    27    28   ar
     6    28    24    1
     7    24    19    1
     8    19    20   ar
     9    20    21   ar
    10    21    22   ar
    11    22    23   ar
    12    23     1    1
    13     1     2   ar
    14     2     3   ar
    15     3     4   ar
    16     4     5   ar
    17     5     6   ar
    18     6     7   ar
    19     7    10    1
    20    10    11    2
    21    11    12    1
    22    12    13    2
    23    13    14    1
    24    14    15    2
    25    15    16    1
    26    16    17    2
    27    17    18    1
    28     7     8   ar
    29     8     9   ar
    30    28    29   ar
    31    29    30   ar
    32    30    25   ar
    33    23    19   ar
    34     9     1   ar
    35     8     4   ar
    36    18    10    1
    37    17    13    1
@<TRIPOS>MOLECULE
*****
 32 37 0 0 0
SMALL
GASTEIGER

@<TRIPOS>ATOM
      1 C         -15.3775   -1.2142   19.1030 C.ar    1  UNL1        0.0190
      2 C         -16.4817   -2.1718   18.7660 C.ar    1  UNL1        0.0032
      3 C         -17.8672   -1.9327   19.2887 C.ar    1  UNL1        0.0226
      4 C         -18.1485   -0.7361   20.1482 C.ar    1  UNL1        0.1221
      5 N         -19.4050   -0.2436   20.8031 N.ar    1  UNL1       -0.1285
      6 N         -19.0773    1.0183   21.5447 N.ar    1  UNL1       -0.0599
      7 N         -17.6182    1.3058   21.3482 N.ar    1  UNL1       -0.2141
      8 C         -17.0442    0.2216   20.4852 C.ar    1  UNL1        0.1034
      9 C         -15.6587   -0.0175   19.9625 C.ar    1  UNL1        0.0223
     10 C         -16.8654    2.4727   21.9152 C.2     1  UNL1        0.0681
     11 C         -17.0553    2.8615   23.3514 C.2     1  UNL1        0.0153
     12 C         -16.3024    4.0284   23.9185 C.2     1  UNL1        0.0041
     13 C         -15.3596    4.8065   23.0493 C.2     1  UNL1        0.0367
     14 C         -14.4872    5.9947   23.3272 C.2     1  UNL1        0.1233
     15 N         -13.7581    6.3402   22.0627 N.2     1  UNL1       -0.1467
     16 N         -14.1798    5.3657   21.0033 N.2     1  UNL1       -0.1519
     17 C         -15.1696    4.4178   21.6131 C.2     1  UNL1        0.0880
     18 C         -15.9225    3.2509   21.0460 C.3     1  UNL1        0.0934
     19 N         -13.0564   -2.5378   19.0260 N.ar    1  UNL1       -0.2448
     20 N         -11.7849   -2.4046   18.2415 N.ar    1  UNL1       -0.1673
     21 C         -11.9346   -1.2377   17.3109 C.ar    1  UNL1        0.1217
     22 C         -13.2986   -0.6497   17.5203 C.ar    1  UNL1        0.0412
     23 C         -13.9919   -1.4532   18.5803 C.ar    1  UNL1        0.0799
     24 C         -13.3422   -3.5737   20.0725 C.3     1  UNL1        0.1727
     25 C         -14.4969   -7.7478   18.8507 C.ar    1  UNL1        0.0875
     26 C         -15.5416   -6.7991   19.3590 C.ar    1  UNL1        0.0131
     27 C         -15.1567   -5.4077   19.7663 C.ar    1  UNL1        0.0174
     28 C         -13.7270   -4.9651   19.6652 C.ar    1  UNL1        0.0837
     29 N         -12.6823   -5.9138   19.1569 N.ar    1  UNL1       -0.2454
     30 C         -13.0672   -7.3052   18.7496 C.ar    1  UNL1        0.1087
     31 N         -15.2666  -10.5307   18.0361 N.1     1  UNL1       -0.1908
     32 C         -14.8817   -9.1393   18.4433 C.1     1  UNL1        0.1020
@<TRIPOS>BOND
     1    31    32    3
     2    32    25    1
     3    25    26   ar
     4    26    27   ar
     5    27    28   ar
     6    28    24    1
     7    24    19    1
     8    19    20   ar
     9    20    21   ar
    10    21    22   ar
    11    22    23   ar
    12    23     1    1
    13     1     2   ar
    14     2     3   ar
    15     3     4   ar
    16     4     5   ar
    17     5     6   ar
    18     6     7   ar
    19     7    10    1
    20    10    11    2
    21    11    12    1
    22    12    13    2
    23    13    14    1
    24    14    15    2
    25    15    16    1
    26    16    17    2
    27    17    18    1
    28     7     8   ar
    29     8     9   ar
    30    28    29   ar
    31    29    30   ar
    32    30    25   ar
    33    23    19   ar
    34     9     1   ar
    35     8     4   ar
    36    18    10    1
    37    17    13    1
@<TRIPOS>MOLECULE
*****
 32 37 0 0 0
SMALL
GASTEIGER

@<TRIPOS>ATOM
      1 C           4.4172   -2.2000   22.9087 C.ar    1  UNL1        0.0190
      2 C           3.2880   -1.2459   22.6549 C.ar    1  UNL1        0.0032
      3 C           2.7806   -0.3724   23.7638 C.ar    1  UNL1        0.0226
      4 C           3.4025   -0.4530   25.1264 C.ar    1  UNL1        0.1221
      5 N           3.1164    0.2773   26.4051 N.ar    1  UNL1       -0.1285
      6 N           4.0688   -0.2256   27.4491 N.ar    1  UNL1       -0.0599
      7 N           4.9436   -1.2666   26.8157 N.ar    1  UNL1       -0.2141
      8 C           4.5318   -1.4071   25.3802 C.ar    1  UNL1        0.1034
      9 C           5.0391   -2.2806   24.2714 C.ar    1  UNL1        0.0223
     10 C           6.0380   -2.0325   27.4979 C.2     1  UNL1        0.0681
     11 C           7.4724   -1.6656   27.2579 C.2     1  UNL1        0.0153
     12 C           8.5668   -2.4316   27.9402 C.2     1  UNL1        0.0041
     13 C           8.2268   -3.5646   28.8626 C.2     1  UNL1        0.0367
     14 C           9.0843   -4.4939   29.6695 C.2     1  UNL1        0.1233
     15 N           8.1798   -5.4351   30.4083 N.2     1  UNL1       -0.1467
     16 N           6.7633   -5.0876   30.0579 N.2     1  UNL1       -0.1519
     17 C           6.7924   -3.9315   29.1026 C.2     1  UNL1        0.0880
     18 C           5.6979   -3.1655   28.4203 C.3     1  UNL1        0.0934
     19 N           6.2456   -3.7836   21.7710 N.ar    1  UNL1       -0.2448
     20 N           6.3376   -4.5393   20.4785 N.ar    1  UNL1       -0.1673
     21 C           5.0733   -4.2964   19.7086 C.ar    1  UNL1        0.1217
     22 C           4.2001   -3.3905   20.5253 C.ar    1  UNL1        0.0412
     23 C           4.9246   -3.0736   21.7999 C.ar    1  UNL1        0.0799
     24 C           7.2912   -3.7447   22.8458 C.3     1  UNL1        0.1727
     25 C           7.7708   -7.2346   25.6458 C.ar    1  UNL1        0.0875
     26 C           7.1602   -5.9562   26.1385 C.ar    1  UNL1        0.0131
     27 C           7.0003   -4.7929   25.2051 C.ar    1  UNL1        0.0174
     28 C           7.4511   -4.9080   23.7791 C.ar    1  UNL1        0.0837
     29 N           8.0617   -6.1865   23.2864 N.ar    1  UNL1       -0.2454
     30 C           8.2216   -7.3498   24.2197 C.ar    1  UNL1        0.1087
     31 N           8.0906   -9.5614   27.5124 N.1     1  UNL1       -0.1908
     32 C           7.9308   -8.3981   26.5791 C.1     1  UNL1        0.1020
@<TRIPOS>BOND
     1    31    32    3
     2    32    25    1
     3    25    26   ar
     4    26    27   ar
     5    27    28   ar
     6    28    24    1
     7    24    19    1
     8    19    20   ar
     9    20    21   ar
    10    21    22   ar
    11    22    23   ar
    12    23     1    1
    13     1     2   ar
    14     2     3   ar
    15     3     4   ar
    16     4     5   ar
    17     5     6   ar
    18     6     7   ar
    19     7    10    1
    20    10    11    2
    21    11    12    1
    22    12    13    2
    23    13    14    1
    24    14    15    2
    25    15    16    1
    26    16    17    2
    27    17    18    1
    28     7     8   ar
    29     8     9   ar
    30    28    29   ar
    31    29    30   ar
    32    30    25   ar
    33    23    19   ar
    34     9     1   ar
    35     8     4   ar
    36    18    10    1
    37    17    13    1
@<TRIPOS>MOLECULE
*****
 32 37 0 0 0
SMALL
GASTEIGER

@<TRIPOS>ATOM
      1 C           3.4878    0.3326   18.7729 C.ar    1  UNL1        0.0190
      2 C           2.2813    0.4986   17.8973 C.ar    1  UNL1        0.0032
      3 C           0.9465    0.8039   18.5096 C.ar    1  UNL1        0.0226
      4 C           0.8182    0.9433   19.9976 C.ar    1  UNL1        0.1221
      5 N          -0.3582    1.2387   20.8803 N.ar    1  UNL1       -0.1285
      6 N           0.1213    1.2553   22.3014 N.ar    1  UNL1       -0.0599
      7 N           1.5940    0.9701   22.2971 N.ar    1  UNL1       -0.2141
      8 C           2.0246    0.7773   20.8733 C.ar    1  UNL1        0.1034
      9 C           3.3594    0.4720   20.2609 C.ar    1  UNL1        0.0223
     10 C           2.4804    0.8916   23.5046 C.2     1  UNL1        0.0681
     11 C           2.9171    2.1482   24.1975 C.2     1  UNL1        0.0153
     12 C           3.8035    2.0697   25.4050 C.2     1  UNL1        0.0041
     13 C           4.2533    0.7344   25.9197 C.2     1  UNL1        0.0367
     14 C           5.1219    0.3465   27.0794 C.2     1  UNL1        0.1233
     15 N           5.2220   -1.1500   27.1032 N.2     1  UNL1       -0.1467
     16 N           4.4153   -1.6868   25.9583 N.2     1  UNL1       -0.1519
     17 C           3.8166   -0.5222   25.2268 C.2     1  UNL1        0.0880
     18 C           2.9302   -0.4436   24.0193 C.3     1  UNL1        0.0934
     19 N           5.4950   -1.3134   18.1349 N.ar    1  UNL1       -0.2448
     20 N           6.8074   -1.1603   17.4249 N.ar    1  UNL1       -0.1673
     21 C           6.9462    0.2750   17.0118 C.ar    1  UNL1        0.1217
     22 C           5.7196    1.0090   17.4665 C.ar    1  UNL1        0.0412
     23 C           4.8227    0.0273   18.1606 C.ar    1  UNL1        0.0799
     24 C           4.9505   -2.5841   18.7170 C.3     1  UNL1        0.1727
     25 C           6.0545   -3.7935   22.9084 C.ar    1  UNL1        0.0875
     26 C           4.6360   -3.4321   22.5811 C.ar    1  UNL1        0.0131
     27 C           4.2680   -3.0289   21.1840 C.ar    1  UNL1        0.0174
     28 C           5.3185   -2.9872   20.1141 C.ar    1  UNL1        0.0837
     29 N           6.7371   -3.3487   20.4413 N.ar    1  UNL1       -0.2454
     30 C           7.1051   -3.7518   21.8385 C.ar    1  UNL1        0.1087
     31 N           6.7909   -4.5998   25.7026 N.1     1  UNL1       -0.1908
     32 C           6.4226   -4.1967   24.3056 C.1     1  UNL1        0.1020
@<TRIPOS>BOND
     1    31    32    3
     2    32    25    1
     3    25    26   ar
     4    26    27   ar
     5    27    28   ar
     6    28    24    1
     7    24    19    1
     8    19    20   ar
     9    20    21   ar
    10    21    22   ar
    11    22    23   ar
    12    23     1    1
    13     1     2   ar
    14     2     3   ar
    15     3     4   ar
    16     4     5   ar
    17     5     6   ar
    18     6     7   ar
    19     7    10    1
    20    10    11    2
    21    11    12    1
    22    12    13    2
    23    13    14    1
    24    14    15    2
    25    15    16    1
    26    16    17    2
    27    17    18    1
    28     7     8   ar
    29     8     9   ar
    30    28    29   ar
    31    29    30   ar
    32    30    25   ar
    33    23    19   ar
    34     9     1   ar
    35     8     4   ar
    36    18    10    1
    37    17    13    1
