@<TRIPOS>MOLECULE
*****
 34 38 0 0 0
SMALL
GASTEIGER

@<TRIPOS>ATOM
      1 C         -13.8574   -8.7981   17.5020 C.3     1  UNL1        0.1350
      2 N         -13.1601   -7.5354   17.9137 N.ar    1  UNL1       -0.2785
      3 C         -11.7085   -7.3405   17.5902 C.ar    1  UNL1        0.2633
      4 O         -10.9541   -8.4084   16.8548 O.2     1  UNL1       -0.2669
      5 C         -11.0113   -6.0779   18.0019 C.ar    1  UNL1        0.0755
      6 C         -11.7657   -5.0100   18.7372 C.ar    1  UNL1        0.0576
      7 C         -13.2173   -5.2049   19.0607 C.ar    1  UNL1        0.0687
      8 C         -14.2132   -4.3354   19.7694 C.ar    1  UNL1        0.1248
      9 N         -15.5259   -5.0607   19.7956 N.ar    1  UNL1       -0.1621
     10 N         -15.3414   -6.3785   19.1032 N.ar    1  UNL1       -0.2137
     11 C         -13.9146   -6.4676   18.6490 C.ar    1  UNL1        0.1502
     12 C         -16.3981   -7.4236   18.9005 C.ar    1  UNL1        0.0845
     13 C         -16.6065   -8.4898   19.9348 C.ar    1  UNL1        0.0215
     14 C         -17.6633   -9.5350   19.7322 C.ar    1  UNL1        0.0312
     15 C         -18.5115   -9.5138   18.4953 C.ar    1  UNL1        0.1402
     16 F         -19.5683  -10.5589   18.2927 F       1  UNL1       -0.2042
     17 C         -18.3031   -8.4475   17.4611 C.ar    1  UNL1        0.0312
     18 C         -17.2465   -7.4024   17.6636 C.ar    1  UNL1        0.0215
     19 N         -11.0684   -3.7473   19.1489 N.pl3   1  UNL1       -0.3116
     20 H         -10.5197   -3.7321   19.9662 H       1  UNL1        0.1522
     21 C         -11.2071   -2.5080   18.3154 C.ar    1  UNL1        0.0592
     22 C         -12.2138   -1.4610   18.6902 C.ar    1  UNL1        0.0200
     23 C         -12.3526   -0.2216   17.8567 C.ar    1  UNL1        0.0546
     24 C         -11.4846   -0.0292   16.6486 C.ar    1  UNL1        0.0055
     25 C         -10.4779   -1.0762   16.2738 C.ar    1  UNL1        0.0128
     26 C         -10.3392   -2.3156   17.1073 C.ar    1  UNL1        0.0710
     27 CL         -9.3325   -3.3625   16.7325 Cl      1  UNL1       -0.0810
     28 C         -13.3593    0.8254   18.2314 C.2     1  UNL1        0.2458
     29 O         -13.1258    2.2587   17.8559 O.2     1  UNL1       -0.2701
     30 N         -14.5994    0.4390   18.9815 N.am    1  UNL1       -0.3025
     31 H         -14.7526   -0.5018   19.2280 H       1  UNL1        0.1497
     32 C         -15.6061    1.4860   19.3562 C.3     1  UNL1        0.0720
     33 C         -15.9640    2.7343   20.1069 C.3     1  UNL1        0.0213
     34 C         -16.9919    2.0509   19.2546 C.3     1  UNL1        0.0213
@<TRIPOS>BOND
     1     1     2    1
     2     2     3   ar
     3     3     4    2
     4     3     5   ar
     5     5     6   ar
     6     6    19    1
     7    19    21    1
     8    21    22   ar
     9    22    23   ar
    10    23    28    1
    11    28    29    2
    12    28    30   am
    13    30    32    1
    14    32    33    1
    15    33    34    1
    16    23    24   ar
    17    24    25   ar
    18    25    26   ar
    19    26    27    1
    20     6     7   ar
    21     7     8   ar
    22     8     9   ar
    23     9    10   ar
    24    10    12    1
    25    12    13   ar
    26    13    14   ar
    27    14    15   ar
    28    15    16    1
    29    15    17   ar
    30    17    18   ar
    31    10    11   ar
    32    11     2   ar
    33    26    21   ar
    34    11     7   ar
    35    34    32    1
    36    18    12   ar
    37    19    20    1
    38    30    31    1
@<TRIPOS>MOLECULE
*****
 34 38 0 0 0
SMALL
GASTEIGER

@<TRIPOS>ATOM
      1 C          -2.6067    3.7140   24.0561 C.3     1  UNL1        0.1350
      2 N          -1.9983    3.4639   22.7080 N.ar    1  UNL1       -0.2785
      3 C          -0.6352    2.8469   22.6030 C.ar    1  UNL1        0.2633
      4 O           0.1197    2.4800   23.8463 O.2     1  UNL1       -0.2669
      5 C          -0.0269    2.5968   21.2550 C.ar    1  UNL1        0.0755
      6 C          -0.7817    2.9637   20.0117 C.ar    1  UNL1        0.0576
      7 C          -2.1449    3.5807   20.1166 C.ar    1  UNL1        0.0687
      8 C          -3.1199    4.0437   19.0750 C.ar    1  UNL1        0.1248
      9 N          -4.3308    4.5799   19.7793 N.ar    1  UNL1       -0.1621
     10 N          -4.1042    4.4484   21.2563 N.ar    1  UNL1       -0.2137
     11 C          -2.7532    3.8308   21.4648 C.ar    1  UNL1        0.1502
     12 C          -5.0606    4.8618   22.3353 C.ar    1  UNL1        0.0845
     13 C          -4.8460    6.1490   23.0749 C.ar    1  UNL1        0.0215
     14 C          -5.8025    6.5625   24.1540 C.ar    1  UNL1        0.0312
     15 C          -6.9735    5.6888   24.4933 C.ar    1  UNL1        0.1402
     16 F          -7.9300    6.1022   25.5723 F       1  UNL1       -0.2042
     17 C          -7.1881    4.4016   23.7536 C.ar    1  UNL1        0.0312
     18 C          -6.2318    3.9881   22.6746 C.ar    1  UNL1        0.0215
     19 N          -0.1733    2.7135   18.6636 N.pl3   1  UNL1       -0.3116
     20 H          -0.7281    2.7803   17.8531 H       1  UNL1        0.1522
     21 C           1.2804    2.3617   18.5505 C.ar    1  UNL1        0.0592
     22 C           1.6964    0.9268   18.4162 C.ar    1  UNL1        0.0200
     23 C           3.1501    0.5748   18.3030 C.ar    1  UNL1        0.0546
     24 C           4.1878    1.6577   18.3241 C.ar    1  UNL1        0.0055
     25 C           3.7718    3.0926   18.4584 C.ar    1  UNL1        0.0128
     26 C           2.3181    3.4446   18.5716 C.ar    1  UNL1        0.0710
     27 CL          1.9021    4.8795   18.7058 Cl      1  UNL1       -0.0810
     28 C           3.5662   -0.8601   18.1688 C.2     1  UNL1        0.2458
     29 O           4.2295   -1.3340   16.9097 O.2     1  UNL1       -0.2701
     30 N           3.3189   -1.8211   19.2937 N.am    1  UNL1       -0.3025
     31 H           2.8836   -1.5100   20.1201 H       1  UNL1        0.1497
     32 C           3.7350   -3.2560   19.1595 C.3     1  UNL1        0.0720
     33 C           4.7167   -4.2846   18.6820 C.3     1  UNL1        0.0213
     34 C           3.4739   -4.7126   19.4046 C.3     1  UNL1        0.0213
@<TRIPOS>BOND
     1     1     2    1
     2     2     3   ar
     3     3     4    2
     4     3     5   ar
     5     5     6   ar
     6     6    19    1
     7    19    21    1
     8    21    22   ar
     9    22    23   ar
    10    23    28    1
    11    28    29    2
    12    28    30   am
    13    30    32    1
    14    32    33    1
    15    33    34    1
    16    23    24   ar
    17    24    25   ar
    18    25    26   ar
    19    26    27    1
    20     6     7   ar
    21     7     8   ar
    22     8     9   ar
    23     9    10   ar
    24    10    12    1
    25    12    13   ar
    26    13    14   ar
    27    14    15   ar
    28    15    16    1
    29    15    17   ar
    30    17    18   ar
    31    10    11   ar
    32    11     2   ar
    33    26    21   ar
    34    11     7   ar
    35    34    32    1
    36    18    12   ar
    37    19    20    1
    38    30    31    1
@<TRIPOS>MOLECULE
*****
 34 38 0 0 0
SMALL
GASTEIGER

@<TRIPOS>ATOM
      1 C           7.1359   -5.3430   24.7504 C.3     1  UNL1        0.1350
      2 N           7.1801   -4.4195   25.9316 N.ar    1  UNL1       -0.2785
      3 C           7.6709   -4.9206   27.2575 C.ar    1  UNL1        0.2633
      4 O           8.1176   -6.3453   27.4021 O.2     1  UNL1       -0.2669
      5 C           7.7151   -3.9972   28.4386 C.ar    1  UNL1        0.0755
      6 C           7.2684   -2.5725   28.2940 C.ar    1  UNL1        0.0576
      7 C           6.7776   -2.0714   26.9681 C.ar    1  UNL1        0.0687
      8 C           6.2765   -0.7286   26.5257 C.ar    1  UNL1        0.1248
      9 N           5.9226   -0.8222   25.0710 N.ar    1  UNL1       -0.1621
     10 N           6.2050   -2.2229   24.6144 N.ar    1  UNL1       -0.2137
     11 C           6.7334   -2.9949   25.7869 C.ar    1  UNL1        0.1502
     12 C           5.9957   -2.7576   23.2287 C.ar    1  UNL1        0.0845
     13 C           7.1198   -2.7288   22.2360 C.ar    1  UNL1        0.0215
     14 C           6.9105   -3.2635   20.8502 C.ar    1  UNL1        0.0312
     15 C           5.5772   -3.8269   20.4572 C.ar    1  UNL1        0.1402
     16 F           5.3679   -4.3616   19.0714 F       1  UNL1       -0.2042
     17 C           4.4530   -3.8557   21.4500 C.ar    1  UNL1        0.0312
     18 C           4.6622   -3.3210   22.8357 C.ar    1  UNL1        0.0215
     19 N           7.3127   -1.6490   29.4752 N.pl3   1  UNL1       -0.3116
     20 H           8.0966   -1.0712   29.6192 H       1  UNL1        0.1522
     21 C           6.1624   -1.6059   30.4370 C.ar    1  UNL1        0.0592
     22 C           4.8641   -0.9773   30.0256 C.ar    1  UNL1        0.0200
     23 C           3.7138   -0.9341   30.9873 C.ar    1  UNL1        0.0546
     24 C           3.8618   -1.5197   32.3604 C.ar    1  UNL1        0.0055
     25 C           5.1601   -2.1483   32.7717 C.ar    1  UNL1        0.0128
     26 C           6.3104   -2.1914   31.8100 C.ar    1  UNL1        0.0710
     27 CL          7.6087   -2.8201   32.2214 Cl      1  UNL1       -0.0810
     28 C           2.4154   -0.3055   30.5761 C.2     1  UNL1        0.2458
     29 O           1.8291    0.8076   31.3929 O.2     1  UNL1       -0.2701
     30 N           1.7034   -0.7900   29.3480 N.am    1  UNL1       -0.3025
     31 H           2.0883   -1.5206   28.8119 H       1  UNL1        0.1497
     32 C           0.4051   -0.1615   28.9366 C.3     1  UNL1        0.0720
     33 C          -1.0927   -0.2017   28.8657 C.3     1  UNL1        0.0213
     34 C          -0.3460    0.9675   28.2952 C.3     1  UNL1        0.0213
@<TRIPOS>BOND
     1     1     2    1
     2     2     3   ar
     3     3     4    2
     4     3     5   ar
     5     5     6   ar
     6     6    19    1
     7    19    21    1
     8    21    22   ar
     9    22    23   ar
    10    23    28    1
    11    28    29    2
    12    28    30   am
    13    30    32    1
    14    32    33    1
    15    33    34    1
    16    23    24   ar
    17    24    25   ar
    18    25    26   ar
    19    26    27    1
    20     6     7   ar
    21     7     8   ar
    22     8     9   ar
    23     9    10   ar
    24    10    12    1
    25    12    13   ar
    26    13    14   ar
    27    14    15   ar
    28    15    16    1
    29    15    17   ar
    30    17    18   ar
    31    10    11   ar
    32    11     2   ar
    33    26    21   ar
    34    11     7   ar
    35    34    32    1
    36    18    12   ar
    37    19    20    1
    38    30    31    1
@<TRIPOS>MOLECULE
*****
 34 38 0 0 0
SMALL
GASTEIGER

@<TRIPOS>ATOM
      1 C           5.0833    0.5985   21.9666 C.3     1  UNL1        0.1350
      2 N           5.9828   -0.5805   22.1923 N.ar    1  UNL1       -0.2785
      3 C           7.0626   -0.5120   23.2312 C.ar    1  UNL1        0.2633
      4 O           7.2429    0.7355   24.0445 O.2     1  UNL1       -0.2669
      5 C           7.9621   -1.6909   23.4569 C.ar    1  UNL1        0.0755
      6 C           7.7819   -2.9384   22.6437 C.ar    1  UNL1        0.0576
      7 C           6.7021   -3.0069   21.6048 C.ar    1  UNL1        0.0687
      8 C           6.2882   -4.0938   20.6575 C.ar    1  UNL1        0.1248
      9 N           5.1329   -3.5866   19.8464 N.ar    1  UNL1       -0.1621
     10 N           4.8327   -2.1862   20.2924 N.ar    1  UNL1       -0.2137
     11 C           5.8026   -1.8279   21.3791 C.ar    1  UNL1        0.1502
     12 C           3.7524   -1.2998   19.7472 C.ar    1  UNL1        0.0845
     13 C           2.3915   -1.3015   20.3779 C.ar    1  UNL1        0.0215
     14 C           1.3110   -0.4151   19.8328 C.ar    1  UNL1        0.0312
     15 C           1.5917    0.4730   18.6571 C.ar    1  UNL1        0.1402
     16 F           0.5113    1.3594   18.1120 F       1  UNL1       -0.2042
     17 C           2.9527    0.4747   18.0264 C.ar    1  UNL1        0.0312
     18 C           4.0330   -0.4117   18.5714 C.ar    1  UNL1        0.0215
     19 N           8.6815   -4.1174   22.8694 N.pl3   1  UNL1       -0.3116
     20 H           9.4895   -4.2325   22.3189 H       1  UNL1        0.1522
     21 C           8.3499   -5.1208   23.9339 C.ar    1  UNL1        0.0592
     22 C           7.9253   -4.6569   25.2957 C.ar    1  UNL1        0.0200
     23 C           7.5937   -5.6602   26.3602 C.ar    1  UNL1        0.0546
     24 C           7.6867   -7.1275   26.0630 C.ar    1  UNL1        0.0055
     25 C           8.1114   -7.5915   24.7012 C.ar    1  UNL1        0.0128
     26 C           8.4430   -6.5881   23.6366 C.ar    1  UNL1        0.0710
     27 CL          8.8676   -7.0520   22.2749 Cl      1  UNL1       -0.0810
     28 C           7.1690   -5.1964   27.7221 C.2     1  UNL1        0.2458
     29 O           6.2630   -4.0090   27.8612 O.2     1  UNL1       -0.2701
     30 N           7.6504   -5.9199   28.9446 N.am    1  UNL1       -0.3025
     31 H           8.2450   -6.6992   28.8532 H       1  UNL1        0.1497
     32 C           7.2258   -5.4562   30.3065 C.3     1  UNL1        0.0720
     33 C           6.7961   -4.3531   31.2277 C.3     1  UNL1        0.0213
     34 C           6.9200   -5.7560   31.7441 C.3     1  UNL1        0.0213
@<TRIPOS>BOND
     1     1     2    1
     2     2     3   ar
     3     3     4    2
     4     3     5   ar
     5     5     6   ar
     6     6    19    1
     7    19    21    1
     8    21    22   ar
     9    22    23   ar
    10    23    28    1
    11    28    29    2
    12    28    30   am
    13    30    32    1
    14    32    33    1
    15    33    34    1
    16    23    24   ar
    17    24    25   ar
    18    25    26   ar
    19    26    27    1
    20     6     7   ar
    21     7     8   ar
    22     8     9   ar
    23     9    10   ar
    24    10    12    1
    25    12    13   ar
    26    13    14   ar
    27    14    15   ar
    28    15    16    1
    29    15    17   ar
    30    17    18   ar
    31    10    11   ar
    32    11     2   ar
    33    26    21   ar
    34    11     7   ar
    35    34    32    1
    36    18    12   ar
    37    19    20    1
    38    30    31    1
@<TRIPOS>MOLECULE
*****
 34 38 0 0 0
SMALL
GASTEIGER

@<TRIPOS>ATOM
      1 C           1.4972   -0.8475   20.0791 C.3     1  UNL1        0.1350
      2 N           1.5647   -0.1015   21.3787 N.ar    1  UNL1       -0.2785
      3 C           0.5640    0.9750   21.6783 C.ar    1  UNL1        0.2633
      4 O          -0.5042    1.3054   20.6783 O.2     1  UNL1       -0.2669
      5 C           0.6314    1.7211   22.9778 C.ar    1  UNL1        0.0755
      6 C           1.6996    1.3907   23.9778 C.ar    1  UNL1        0.0576
      7 C           2.7003    0.3142   23.6781 C.ar    1  UNL1        0.0687
      8 C           3.8571   -0.2277   24.4643 C.ar    1  UNL1        0.1248
      9 N           4.5046   -1.3088   23.6506 N.ar    1  UNL1       -0.1621
     10 N           3.7480   -1.4349   22.3616 N.ar    1  UNL1       -0.2137
     11 C           2.6328   -0.4319   22.3786 C.ar    1  UNL1        0.1502
     12 C           4.0530   -2.3955   21.2506 C.ar    1  UNL1        0.0845
     13 C           4.5925   -1.8872   19.9466 C.ar    1  UNL1        0.0215
     14 C           4.8975   -2.8477   18.8355 C.ar    1  UNL1        0.0312
     15 C           4.6630   -4.3166   19.0286 C.ar    1  UNL1        0.1402
     16 F           4.9680   -5.2772   17.9176 F       1  UNL1       -0.2042
     17 C           4.1234   -4.8249   20.3326 C.ar    1  UNL1        0.0312
     18 C           3.8184   -3.8645   21.4436 C.ar    1  UNL1        0.0215
     19 N           1.7670    2.1368   25.2773 N.pl3   1  UNL1       -0.3116
     20 H           2.1281    3.0524   25.3011 H       1  UNL1        0.1522
     21 C           1.2842    1.4880   26.5406 C.ar    1  UNL1        0.0592
     22 C           2.2624    0.8242   27.4639 C.ar    1  UNL1        0.0200
     23 C           1.7797    0.1753   28.7272 C.ar    1  UNL1        0.0546
     24 C           0.3188    0.1902   29.0672 C.ar    1  UNL1        0.0055
     25 C          -0.6593    0.8540   28.1438 C.ar    1  UNL1        0.0128
     26 C          -0.1767    1.5029   26.8806 C.ar    1  UNL1        0.0710
     27 CL         -1.1548    2.1666   25.9572 Cl      1  UNL1       -0.0810
     28 C           2.7579   -0.4885   29.6506 C.2     1  UNL1        0.2458
     29 O           2.3148   -0.9478   31.0081 O.2     1  UNL1       -0.2701
     30 N           4.1790   -0.6930   29.2165 N.am    1  UNL1       -0.3025
     31 H           4.4697   -0.3916   28.3255 H       1  UNL1        0.1497
     32 C           5.1572   -1.3568   30.1398 C.3     1  UNL1        0.0720
     33 C           6.2949   -2.3092   30.3602 C.3     1  UNL1        0.0213
     34 C           5.7137   -1.5542   31.5187 C.3     1  UNL1        0.0213
@<TRIPOS>BOND
     1     1     2    1
     2     2     3   ar
     3     3     4    2
     4     3     5   ar
     5     5     6   ar
     6     6    19    1
     7    19    21    1
     8    21    22   ar
     9    22    23   ar
    10    23    28    1
    11    28    29    2
    12    28    30   am
    13    30    32    1
    14    32    33    1
    15    33    34    1
    16    23    24   ar
    17    24    25   ar
    18    25    26   ar
    19    26    27    1
    20     6     7   ar
    21     7     8   ar
    22     8     9   ar
    23     9    10   ar
    24    10    12    1
    25    12    13   ar
    26    13    14   ar
    27    14    15   ar
    28    15    16    1
    29    15    17   ar
    30    17    18   ar
    31    10    11   ar
    32    11     2   ar
    33    26    21   ar
    34    11     7   ar
    35    34    32    1
    36    18    12   ar
    37    19    20    1
    38    30    31    1
@<TRIPOS>MOLECULE
*****
 34 38 0 0 0
SMALL
GASTEIGER

@<TRIPOS>ATOM
      1 C           6.1316   -0.3853   30.0268 C.3     1  UNL1        0.1350
      2 N           5.1235   -0.2605   28.9231 N.ar    1  UNL1       -0.2785
      3 C           5.5811   -0.1346   27.5002 C.ar    1  UNL1        0.2633
      4 O           7.0468   -0.1337   27.1810 O.2     1  UNL1       -0.2669
      5 C           4.5731   -0.0098   26.3965 C.ar    1  UNL1        0.0755
      6 C           3.1074   -0.0107   26.7156 C.ar    1  UNL1        0.0576
      7 C           2.6498   -0.1366   28.1385 C.ar    1  UNL1        0.0687
      8 C           1.2823   -0.1676   28.7540 C.ar    1  UNL1        0.1248
      9 N           1.4451   -0.3117   30.2381 N.ar    1  UNL1       -0.1621
     10 N           2.9133   -0.3697   30.5399 N.ar    1  UNL1       -0.2137
     11 C           3.6579   -0.2614   29.2423 C.ar    1  UNL1        0.1502
     12 C           3.5288   -0.5111   31.9005 C.ar    1  UNL1        0.0845
     13 C           4.0209   -1.8495   32.3656 C.ar    1  UNL1        0.0215
     14 C           4.6364   -1.9910   33.7262 C.ar    1  UNL1        0.0312
     15 C           4.7599   -0.7940   34.6216 C.ar    1  UNL1        0.1402
     16 F           5.3754   -0.9354   35.9822 F       1  UNL1       -0.2042
     17 C           4.2679    0.5446   34.1564 C.ar    1  UNL1        0.0312
     18 C           3.6523    0.6860   32.7959 C.ar    1  UNL1        0.0215
     19 N           2.0994    0.1142   25.6118 N.pl3   1  UNL1       -0.3116
     20 H           1.1442   -0.0339   25.7984 H       1  UNL1        0.1522
     21 C           2.5468    0.4647   24.2236 C.ar    1  UNL1        0.0592
     22 C           2.6663   -0.6072   23.1811 C.ar    1  UNL1        0.0200
     23 C           3.1138   -0.2568   21.7930 C.ar    1  UNL1        0.0546
     24 C           3.4417    1.1656   21.4473 C.ar    1  UNL1        0.0055
     25 C           3.3222    2.2374   22.4898 C.ar    1  UNL1        0.0128
     26 C           2.8747    1.8870   23.8780 C.ar    1  UNL1        0.0710
     27 CL          2.7552    2.9589   24.9205 Cl      1  UNL1       -0.0810
     28 C           3.2333   -1.3286   20.7504 C.2     1  UNL1        0.2458
     29 O           2.5536   -1.1633   19.4235 O.2     1  UNL1       -0.2701
     30 N           4.0326   -2.5656   21.0348 N.am    1  UNL1       -0.3025
     31 H           4.4787   -2.6740   21.9057 H       1  UNL1        0.1497
     32 C           4.1522   -3.6375   19.9923 C.3     1  UNL1        0.0720
     33 C           3.6457   -4.9030   19.3663 C.3     1  UNL1        0.0213
     34 C           4.8658   -4.2285   18.8127 C.3     1  UNL1        0.0213
@<TRIPOS>BOND
     1     1     2    1
     2     2     3   ar
     3     3     4    2
     4     3     5   ar
     5     5     6   ar
     6     6    19    1
     7    19    21    1
     8    21    22   ar
     9    22    23   ar
    10    23    28    1
    11    28    29    2
    12    28    30   am
    13    30    32    1
    14    32    33    1
    15    33    34    1
    16    23    24   ar
    17    24    25   ar
    18    25    26   ar
    19    26    27    1
    20     6     7   ar
    21     7     8   ar
    22     8     9   ar
    23     9    10   ar
    24    10    12    1
    25    12    13   ar
    26    13    14   ar
    27    14    15   ar
    28    15    16    1
    29    15    17   ar
    30    17    18   ar
    31    10    11   ar
    32    11     2   ar
    33    26    21   ar
    34    11     7   ar
    35    34    32    1
    36    18    12   ar
    37    19    20    1
    38    30    31    1
@<TRIPOS>MOLECULE
*****
 34 38 0 0 0
SMALL
GASTEIGER

@<TRIPOS>ATOM
      1 C         -12.9745   -7.8936   18.3916 C.3     1  UNL1        0.1350
      2 N         -12.6075   -6.4590   18.6306 N.ar    1  UNL1       -0.2785
      3 C         -11.1644   -6.0558   18.7014 C.ar    1  UNL1        0.2633
      4 O         -10.0884   -7.0874   18.5332 O.2     1  UNL1       -0.2669
      5 C         -10.7974   -4.6213   18.9404 C.ar    1  UNL1        0.0755
      6 C         -11.8734   -3.5897   19.1086 C.ar    1  UNL1        0.0576
      7 C         -13.3164   -3.9929   19.0378 C.ar    1  UNL1        0.0687
      8 C         -14.5862   -3.2045   19.1652 C.ar    1  UNL1        0.1248
      9 N         -15.7380   -4.1519   19.0049 N.ar    1  UNL1       -0.1621
     10 N         -15.1801   -5.5258   18.7785 N.ar    1  UNL1       -0.2137
     11 C         -13.6835   -5.4275   18.7988 C.ar    1  UNL1        0.1502
     12 C         -15.9787   -6.7781   18.5685 C.ar    1  UNL1        0.0845
     13 C         -16.4212   -7.1628   17.1879 C.ar    1  UNL1        0.0215
     14 C         -17.2199   -8.4151   16.9779 C.ar    1  UNL1        0.0312
     15 C         -17.5759   -9.2826   18.1485 C.ar    1  UNL1        0.1402
     16 F         -18.3744  -10.5349   17.9386 F       1  UNL1       -0.2042
     17 C         -17.1333   -8.8979   19.5292 C.ar    1  UNL1        0.0312
     18 C         -16.3347   -7.6457   19.7392 C.ar    1  UNL1        0.0215
     19 N         -11.5062   -2.1551   19.3476 N.pl3   1  UNL1       -0.3116
     20 H         -11.0451   -1.8968   20.1783 H       1  UNL1        0.1522
     21 C         -11.8415   -1.1141   18.3211 C.ar    1  UNL1        0.0592
     22 C         -12.9026   -0.0931   18.6073 C.ar    1  UNL1        0.0200
     23 C         -13.2380    0.9479   17.5808 C.ar    1  UNL1        0.0546
     24 C         -12.5123    0.9680   16.2682 C.ar    1  UNL1        0.0055
     25 C         -11.4513   -0.0529   15.9820 C.ar    1  UNL1        0.0128
     26 C         -11.1159   -1.0940   17.0085 C.ar    1  UNL1        0.0710
     27 CL        -10.0548   -2.1149   16.7223 Cl      1  UNL1       -0.0810
     28 C         -14.2990    1.9689   17.8669 C.2     1  UNL1        0.2458
     29 O         -15.4412    1.6286   18.7776 O.2     1  UNL1       -0.2701
     30 N         -14.2178    3.3302   17.2421 N.am    1  UNL1       -0.3025
     31 H         -13.4681    3.5535   16.6444 H       1  UNL1        0.1497
     32 C         -15.2787    4.3512   17.5282 C.3     1  UNL1        0.0720
     33 C         -16.2946    5.3409   17.0396 C.3     1  UNL1        0.0213
     34 C         -16.1005    5.1301   18.5120 C.3     1  UNL1        0.0213
@<TRIPOS>BOND
     1     1     2    1
     2     2     3   ar
     3     3     4    2
     4     3     5   ar
     5     5     6   ar
     6     6    19    1
     7    19    21    1
     8    21    22   ar
     9    22    23   ar
    10    23    28    1
    11    28    29    2
    12    28    30   am
    13    30    32    1
    14    32    33    1
    15    33    34    1
    16    23    24   ar
    17    24    25   ar
    18    25    26   ar
    19    26    27    1
    20     6     7   ar
    21     7     8   ar
    22     8     9   ar
    23     9    10   ar
    24    10    12    1
    25    12    13   ar
    26    13    14   ar
    27    14    15   ar
    28    15    16    1
    29    15    17   ar
    30    17    18   ar
    31    10    11   ar
    32    11     2   ar
    33    26    21   ar
    34    11     7   ar
    35    34    32    1
    36    18    12   ar
    37    19    20    1
    38    30    31    1
@<TRIPOS>MOLECULE
*****
 34 38 0 0 0
SMALL
GASTEIGER

@<TRIPOS>ATOM
      1 C           2.7459    3.6687   18.2283 C.3     1  UNL1        0.1350
      2 N           2.9361    2.2326   18.6174 N.ar    1  UNL1       -0.2785
      3 C           4.2306    1.5384   18.3136 C.ar    1  UNL1        0.2633
      4 O           5.3349    2.2804   17.6207 O.2     1  UNL1       -0.2669
      5 C           4.4209    0.1024   18.7026 C.ar    1  UNL1        0.0755
      6 C           3.3166   -0.6397   19.3955 C.ar    1  UNL1        0.0576
      7 C           2.0221    0.0545   19.6993 C.ar    1  UNL1        0.0687
      8 C           0.7637   -0.4155   20.3668 C.ar    1  UNL1        0.1248
      9 N          -0.2043    0.7301   20.3903 N.ar    1  UNL1       -0.1621
     10 N           0.4559    1.9082   19.7373 N.ar    1  UNL1       -0.2137
     11 C           1.8318    1.4906   19.3103 C.ar    1  UNL1        0.1502
     12 C          -0.1531    3.2655   19.5451 C.ar    1  UNL1        0.0845
     13 C          -0.0633    4.2892   20.6377 C.ar    1  UNL1        0.0215
     14 C          -0.6723    5.6466   20.4456 C.ar    1  UNL1        0.0312
     15 C          -1.3710    5.9801   19.1609 C.ar    1  UNL1        0.1402
     16 F          -1.9799    7.3374   18.9687 F       1  UNL1       -0.2042
     17 C          -1.4607    4.9562   18.0683 C.ar    1  UNL1        0.0312
     18 C          -0.8518    3.5990   18.2604 C.ar    1  UNL1        0.0215
     19 N           3.5069   -2.0758   19.7846 N.pl3   1  UNL1       -0.3116
     20 H           3.2275   -2.7932   19.1710 H       1  UNL1        0.1522
     21 C           4.1230   -2.4189   21.1085 C.ar    1  UNL1        0.0592
     22 C           3.6622   -1.7206   22.3535 C.ar    1  UNL1        0.0200
     23 C           4.2782   -2.0636   23.6775 C.ar    1  UNL1        0.0546
     24 C           5.3550   -3.1049   23.7564 C.ar    1  UNL1        0.0055
     25 C           5.8157   -3.8032   22.5114 C.ar    1  UNL1        0.0128
     26 C           5.1997   -3.4602   21.1874 C.ar    1  UNL1        0.0710
     27 CL          5.6605   -4.1585   19.9424 Cl      1  UNL1       -0.0810
     28 C           3.8175   -1.3653   24.9226 C.2     1  UNL1        0.2458
     29 O           3.0084   -0.1064   24.8207 O.2     1  UNL1       -0.2701
     30 N           4.1660   -1.9261   26.2694 N.am    1  UNL1       -0.3025
     31 H           4.6970   -2.7524   26.3362 H       1  UNL1        0.1497
     32 C           3.7053   -1.2279   27.5146 C.3     1  UNL1        0.0720
     33 C           2.5927   -0.7265   28.3867 C.3     1  UNL1        0.0213
     34 C           4.0201   -0.5200   28.7990 C.3     1  UNL1        0.0213
@<TRIPOS>BOND
     1     1     2    1
     2     2     3   ar
     3     3     4    2
     4     3     5   ar
     5     5     6   ar
     6     6    19    1
     7    19    21    1
     8    21    22   ar
     9    22    23   ar
    10    23    28    1
    11    28    29    2
    12    28    30   am
    13    30    32    1
    14    32    33    1
    15    33    34    1
    16    23    24   ar
    17    24    25   ar
    18    25    26   ar
    19    26    27    1
    20     6     7   ar
    21     7     8   ar
    22     8     9   ar
    23     9    10   ar
    24    10    12    1
    25    12    13   ar
    26    13    14   ar
    27    14    15   ar
    28    15    16    1
    29    15    17   ar
    30    17    18   ar
    31    10    11   ar
    32    11     2   ar
    33    26    21   ar
    34    11     7   ar
    35    34    32    1
    36    18    12   ar
    37    19    20    1
    38    30    31    1
@<TRIPOS>MOLECULE
*****
 34 38 0 0 0
SMALL
GASTEIGER

@<TRIPOS>ATOM
      1 C          -1.5113    4.4199   24.4361 C.3     1  UNL1        0.1350
      2 N          -1.1297    3.8824   23.0887 N.ar    1  UNL1       -0.2785
      3 C          -1.7141    4.4876   21.8468 C.ar    1  UNL1        0.2633
      4 O          -2.6801    5.6304   21.9524 O.2     1  UNL1       -0.2669
      5 C          -1.3326    3.9501   20.4995 C.ar    1  UNL1        0.0755
      6 C          -0.3666    2.8074   20.3939 C.ar    1  UNL1        0.0576
      7 C           0.2178    2.2022   21.6357 C.ar    1  UNL1        0.0687
      8 C           1.1869    1.0763   21.8432 C.ar    1  UNL1        0.1248
      9 N           1.4043    0.9179   23.3189 N.ar    1  UNL1       -0.1621
     10 N           0.5696    1.9460   24.0234 N.ar    1  UNL1       -0.2137
     11 C          -0.1638    2.7397   22.9831 C.ar    1  UNL1        0.1502
     12 C           0.4833    2.1452   25.5076 C.ar    1  UNL1        0.0845
     13 C           1.4153    3.1011   26.1914 C.ar    1  UNL1        0.0215
     14 C           1.3291    3.3004   27.6756 C.ar    1  UNL1        0.0312
     15 C           0.3109    2.5439   28.4760 C.ar    1  UNL1        0.1402
     16 F           0.2246    2.7432   29.9602 F       1  UNL1       -0.2042
     17 C          -0.6212    1.5880   27.7921 C.ar    1  UNL1        0.0312
     18 C          -0.5350    1.3887   26.3080 C.ar    1  UNL1        0.0215
     19 N           0.0149    2.2699   19.0464 N.pl3   1  UNL1       -0.3116
     20 H          -0.6743    2.1378   18.3559 H       1  UNL1        0.1522
     21 C           1.4466    1.9339   18.7509 C.ar    1  UNL1        0.0592
     22 C           1.8787    0.4998   18.6688 C.ar    1  UNL1        0.0200
     23 C           3.3104    0.1636   18.3733 C.ar    1  UNL1        0.0546
     24 C           4.3099    1.2616   18.1599 C.ar    1  UNL1        0.0055
     25 C           3.8778    2.6956   18.2419 C.ar    1  UNL1        0.0128
     26 C           2.4461    3.0318   18.5374 C.ar    1  UNL1        0.0710
     27 CL          2.0140    4.4658   18.6195 Cl      1  UNL1       -0.0810
     28 C           3.7426   -1.2704   18.2912 C.2     1  UNL1        0.2458
     29 O           4.6186   -1.7263   17.1621 O.2     1  UNL1       -0.2701
     30 N           3.2989   -2.2485   19.3383 N.am    1  UNL1       -0.3025
     31 H           2.7240   -1.9493   20.0794 H       1  UNL1        0.1497
     32 C           3.7311   -3.6826   19.2563 C.3     1  UNL1        0.0720
     33 C           3.5524   -5.1179   19.6537 C.3     1  UNL1        0.0213
     34 C           4.6583   -4.7311   18.7170 C.3     1  UNL1        0.0213
@<TRIPOS>BOND
     1     1     2    1
     2     2     3   ar
     3     3     4    2
     4     3     5   ar
     5     5     6   ar
     6     6    19    1
     7    19    21    1
     8    21    22   ar
     9    22    23   ar
    10    23    28    1
    11    28    29    2
    12    28    30   am
    13    30    32    1
    14    32    33    1
    15    33    34    1
    16    23    24   ar
    17    24    25   ar
    18    25    26   ar
    19    26    27    1
    20     6     7   ar
    21     7     8   ar
    22     8     9   ar
    23     9    10   ar
    24    10    12    1
    25    12    13   ar
    26    13    14   ar
    27    14    15   ar
    28    15    16    1
    29    15    17   ar
    30    17    18   ar
    31    10    11   ar
    32    11     2   ar
    33    26    21   ar
    34    11     7   ar
    35    34    32    1
    36    18    12   ar
    37    19    20    1
    38    30    31    1
