@<TRIPOS>MOLECULE
*****
 26 28 0 0 0
SMALL
GASTEIGER

@<TRIPOS>ATOM
      1 C          -6.3582  -16.3260   24.0512 C.ar    1  UNL1        0.1374
      2 C          -7.7391  -16.3954   23.4696 C.ar    1  UNL1        0.0612
      3 C          -8.9243  -16.0079   24.3033 C.ar    1  UNL1        0.1482
      4 C          -8.7286  -15.5509   25.7185 C.ar    1  UNL1        0.0522
      5 C          -7.3477  -15.4814   26.3001 C.ar    1  UNL1        0.0625
      6 C          -7.1519  -15.0243   27.7153 C.3     1  UNL1        0.0522
      7 N          -6.1625  -15.8689   25.4664 N.ar    1  UNL1       -0.2449
      8 N          -5.1368  -18.0521   22.5416 N.am    1  UNL1       -0.2646
      9 C          -5.1729  -16.7135   23.2174 C.2     1  UNL1        0.2684
     10 O          -4.0238  -15.7624   23.0597 O.2     1  UNL1       -0.2681
     11 H          -5.8911  -18.6763   22.6451 H       1  UNL1        0.1566
     12 C          -2.2661  -17.4601   18.2510 C.3     1  UNL1        0.0521
     13 C          -2.5163  -18.1436   19.5626 C.ar    1  UNL1        0.0608
     14 C          -1.5812  -19.2146   20.0405 C.ar    1  UNL1        0.0148
     15 C          -1.8313  -19.8982   21.3520 C.ar    1  UNL1        0.0041
     16 C          -3.0165  -19.5107   22.1857 C.ar    1  UNL1        0.0345
     17 C          -3.9516  -18.4396   21.7079 C.ar    1  UNL1        0.1340
     18 N          -3.7015  -17.7561   20.3963 N.ar    1  UNL1       -0.2348
     19 O         -10.3053  -16.0774   23.7218 O.3     1  UNL1       -0.4518
     20 C         -10.5413  -16.8116   22.4353 C.ar    1  UNL1        0.1666
     21 C         -10.5948  -16.0570   21.1400 C.ar    1  UNL1        0.1364
     22 N         -10.8307  -16.7912   19.8534 N.ar    1  UNL1       -0.2368
     23 C         -11.0132  -18.2801   19.8622 C.ar    1  UNL1        0.1286
     24 C         -10.9597  -19.0347   21.1574 C.ar    1  UNL1        0.1623
     25 F         -11.1421  -20.5235   21.1661 F       1  UNL1       -0.2024
     26 C         -10.7237  -18.3004   22.4440 C.ar    1  UNL1        0.0703
@<TRIPOS>BOND
     1    12    13    1
     2    13    14   ar
     3    14    15   ar
     4    15    16   ar
     5    16    17   ar
     6    17     8    1
     7     8     9   am
     8     9    10    2
     9     9     1    1
    10     1     2   ar
    11     2     3   ar
    12     3    19    1
    13    19    20    1
    14    20    21   ar
    15    21    22   ar
    16    22    23   ar
    17    23    24   ar
    18    24    25    1
    19    24    26   ar
    20     3     4   ar
    21     4     5   ar
    22     5     6    1
    23     5     7   ar
    24    17    18   ar
    25    18    13   ar
    26     7     1   ar
    27    26    20   ar
    28     8    11    1
@<TRIPOS>MOLECULE
*****
 26 28 0 0 0
SMALL
GASTEIGER

@<TRIPOS>ATOM
      1 C          -9.1239  -17.9416   21.5611 C.ar    1  UNL1        0.1374
      2 C          -8.8532  -17.0193   22.7127 C.ar    1  UNL1        0.0612
      3 C          -9.9951  -16.3838   23.4489 C.ar    1  UNL1        0.1482
      4 C         -11.4077  -16.6705   23.0336 C.ar    1  UNL1        0.0522
      5 C         -11.6783  -17.5927   21.8820 C.ar    1  UNL1        0.0625
      6 C         -13.0909  -17.8795   21.4666 C.3     1  UNL1        0.0522
      7 N         -10.5364  -18.2283   21.1457 N.ar    1  UNL1       -0.2449
      8 N          -6.6098  -18.5840   21.4307 N.am    1  UNL1       -0.2646
      9 C          -7.9819  -18.5771   20.8248 C.2     1  UNL1        0.2684
     10 O          -8.2122  -19.2058   19.4825 O.2     1  UNL1       -0.2681
     11 H          -6.4587  -18.1713   22.3117 H       1  UNL1        0.1566
     12 C          -2.0598  -18.1634   18.9568 C.3     1  UNL1        0.0521
     13 C          -3.1929  -19.0092   19.4575 C.ar    1  UNL1        0.0608
     14 C          -3.1841  -20.4906   19.2219 C.ar    1  UNL1        0.0148
     15 C          -4.3172  -21.3364   19.7225 C.ar    1  UNL1        0.0041
     16 C          -5.4591  -20.7009   20.4588 C.ar    1  UNL1        0.0345
     17 C          -5.4679  -19.2196   20.6944 C.ar    1  UNL1        0.1340
     18 N          -4.3348  -18.3737   20.1937 N.ar    1  UNL1       -0.2348
     19 O          -9.7245  -15.4615   24.6006 O.3     1  UNL1       -0.4518
     20 C          -8.3467  -15.3790   25.1876 C.ar    1  UNL1        0.1666
     21 C          -7.2267  -14.7784   24.3908 C.ar    1  UNL1        0.1364
     22 N          -5.8488  -14.6959   24.9778 N.ar    1  UNL1       -0.2368
     23 C          -5.5909  -15.2141   26.3617 C.ar    1  UNL1        0.1286
     24 C          -6.7108  -15.8147   27.1584 C.ar    1  UNL1        0.1623
     25 F          -6.4529  -16.3329   28.5422 F       1  UNL1       -0.2024
     26 C          -8.0887  -15.8972   26.5714 C.ar    1  UNL1        0.0703
@<TRIPOS>BOND
     1    12    13    1
     2    13    14   ar
     3    14    15   ar
     4    15    16   ar
     5    16    17   ar
     6    17     8    1
     7     8     9   am
     8     9    10    2
     9     9     1    1
    10     1     2   ar
    11     2     3   ar
    12     3    19    1
    13    19    20    1
    14    20    21   ar
    15    21    22   ar
    16    22    23   ar
    17    23    24   ar
    18    24    25    1
    19    24    26   ar
    20     3     4   ar
    21     4     5   ar
    22     5     6    1
    23     5     7   ar
    24    17    18   ar
    25    18    13   ar
    26     7     1   ar
    27    26    20   ar
    28     8    11    1
@<TRIPOS>MOLECULE
*****
 26 28 0 0 0
SMALL
GASTEIGER

@<TRIPOS>ATOM
      1 C          -6.7795  -16.6367   23.5430 C.ar    1  UNL1        0.1374
      2 C          -5.5142  -17.3013   23.0879 C.ar    1  UNL1        0.0612
      3 C          -4.2422  -17.0984   23.8566 C.ar    1  UNL1        0.1482
      4 C          -4.2356  -16.2309   25.0803 C.ar    1  UNL1        0.0522
      5 C          -5.5010  -15.5664   25.5354 C.ar    1  UNL1        0.0625
      6 C          -5.4944  -14.6989   26.7591 C.3     1  UNL1        0.0522
      7 N          -6.7730  -15.7693   24.7667 N.ar    1  UNL1       -0.2449
      8 N          -9.3756  -16.6148   23.4424 N.am    1  UNL1       -0.2646
      9 C          -8.0516  -16.8397   22.7743 C.2     1  UNL1        0.2684
     10 O          -7.9996  -17.2674   21.3375 O.2     1  UNL1       -0.2681
     11 H          -9.4097  -16.3340   24.3854 H       1  UNL1        0.1566
     12 C         -12.2787  -15.7157   19.2277 C.3     1  UNL1        0.0521
     13 C         -12.0992  -16.3681   20.5664 C.ar    1  UNL1        0.0608
     14 C         -13.1916  -17.2234   21.1364 C.ar    1  UNL1        0.0148
     15 C         -13.0121  -17.8759   22.4751 C.ar    1  UNL1        0.0041
     16 C         -11.7401  -17.6730   23.2438 C.ar    1  UNL1        0.0345
     17 C         -10.6477  -16.8177   22.6737 C.ar    1  UNL1        0.1340
     18 N         -10.8272  -16.1653   21.3350 N.ar    1  UNL1       -0.2348
     19 O          -2.9767  -17.7629   23.4015 O.3     1  UNL1       -0.4518
     20 C          -2.7275  -17.9792   21.9383 C.ar    1  UNL1        0.1666
     21 C          -1.8692  -17.0158   21.1732 C.ar    1  UNL1        0.1364
     22 N          -1.6200  -17.2321   19.7100 N.ar    1  UNL1       -0.2368
     23 C          -2.2290  -18.4119   19.0118 C.ar    1  UNL1        0.1286
     24 C          -3.0871  -19.3752   19.7769 C.ar    1  UNL1        0.1623
     25 F          -3.6960  -20.5549   19.0787 F       1  UNL1       -0.2024
     26 C          -3.3364  -19.1589   21.2401 C.ar    1  UNL1        0.0703
@<TRIPOS>BOND
     1    12    13    1
     2    13    14   ar
     3    14    15   ar
     4    15    16   ar
     5    16    17   ar
     6    17     8    1
     7     8     9   am
     8     9    10    2
     9     9     1    1
    10     1     2   ar
    11     2     3   ar
    12     3    19    1
    13    19    20    1
    14    20    21   ar
    15    21    22   ar
    16    22    23   ar
    17    23    24   ar
    18    24    25    1
    19    24    26   ar
    20     3     4   ar
    21     4     5   ar
    22     5     6    1
    23     5     7   ar
    24    17    18   ar
    25    18    13   ar
    26     7     1   ar
    27    26    20   ar
    28     8    11    1
@<TRIPOS>MOLECULE
*****
 26 28 0 0 0
SMALL
GASTEIGER

@<TRIPOS>ATOM
      1 C          -7.9402  -18.6212   21.6634 C.ar    1  UNL1        0.1374
      2 C          -8.1087  -17.5979   22.7471 C.ar    1  UNL1        0.0612
      3 C          -9.4752  -17.2939   23.2856 C.ar    1  UNL1        0.1482
      4 C         -10.6733  -18.0132   22.7404 C.ar    1  UNL1        0.0522
      5 C         -10.5048  -19.0365   21.6567 C.ar    1  UNL1        0.0625
      6 C         -11.7029  -19.7558   21.1116 C.3     1  UNL1        0.0522
      7 N          -9.1383  -19.3405   21.1182 N.ar    1  UNL1       -0.2449
      8 N          -5.3692  -18.2493   21.7102 N.am    1  UNL1       -0.2646
      9 C          -6.5736  -18.9252   21.1248 C.2     1  UNL1        0.2684
     10 O          -6.4113  -19.9052   20.0009 O.2     1  UNL1       -0.2681
     11 H          -5.4757  -17.6062   22.4479 H       1  UNL1        0.1566
     12 C          -1.7347  -17.6287   18.0490 C.3     1  UNL1        0.0521
     13 C          -2.1854  -18.2430   19.3410 C.ar    1  UNL1        0.0608
     14 C          -1.2696  -19.1614   20.0945 C.ar    1  UNL1        0.0148
     15 C          -1.7203  -19.7758   21.3866 C.ar    1  UNL1        0.0041
     16 C          -3.0868  -19.4718   21.9251 C.ar    1  UNL1        0.0345
     17 C          -4.0026  -18.5534   21.1717 C.ar    1  UNL1        0.1340
     18 N          -3.5519  -17.9390   19.8796 N.ar    1  UNL1       -0.2348
     19 O          -9.6437  -16.2706   24.3694 O.3     1  UNL1       -0.4518
     20 C          -8.5680  -16.0831   25.3978 C.ar    1  UNL1        0.1666
     21 C          -8.7677  -16.5943   26.7938 C.ar    1  UNL1        0.1364
     22 N          -7.6919  -16.4069   27.8222 N.ar    1  UNL1       -0.2368
     23 C          -6.4164  -15.7083   27.4545 C.ar    1  UNL1        0.1286
     24 C          -6.2167  -15.1972   26.0585 C.ar    1  UNL1        0.1623
     25 F          -4.9413  -14.4986   25.6909 F       1  UNL1       -0.2024
     26 C          -7.2925  -15.3846   25.0301 C.ar    1  UNL1        0.0703
@<TRIPOS>BOND
     1    12    13    1
     2    13    14   ar
     3    14    15   ar
     4    15    16   ar
     5    16    17   ar
     6    17     8    1
     7     8     9   am
     8     9    10    2
     9     9     1    1
    10     1     2   ar
    11     2     3   ar
    12     3    19    1
    13    19    20    1
    14    20    21   ar
    15    21    22   ar
    16    22    23   ar
    17    23    24   ar
    18    24    25    1
    19    24    26   ar
    20     3     4   ar
    21     4     5   ar
    22     5     6    1
    23     5     7   ar
    24    17    18   ar
    25    18    13   ar
    26     7     1   ar
    27    26    20   ar
    28     8    11    1
@<TRIPOS>MOLECULE
*****
 26 28 0 0 0
SMALL
GASTEIGER

@<TRIPOS>ATOM
      1 C         -12.9592   -6.3059   18.7105 C.ar    1  UNL1        0.1374
      2 C         -12.7290   -4.8243   18.7549 C.ar    1  UNL1        0.0612
      3 C         -11.3328   -4.2849   18.8526 C.ar    1  UNL1        0.1482
      4 C         -10.1668   -5.2270   18.9058 C.ar    1  UNL1        0.0522
      5 C         -10.3970   -6.7086   18.8614 C.ar    1  UNL1        0.0625
      6 C          -9.2310   -7.6507   18.9146 C.3     1  UNL1        0.0522
      7 N         -11.7932   -7.2480   18.7637 N.ar    1  UNL1       -0.2449
      8 N         -14.7049   -8.1459   19.2733 N.am    1  UNL1       -0.2646
      9 C         -14.3555   -6.8454   18.6128 C.2     1  UNL1        0.2684
     10 O         -15.4023   -6.0842   17.8545 O.2     1  UNL1       -0.2681
     11 H         -14.0179   -8.6455   19.7710 H       1  UNL1        0.1566
     12 C         -19.6797   -8.0539   20.7709 C.3     1  UNL1        0.0521
     13 C         -18.5886   -8.6394   19.9245 C.ar    1  UNL1        0.0608
     14 C         -18.8936   -9.7643   18.9803 C.ar    1  UNL1        0.0148
     15 C         -17.8024  -10.3498   18.1338 C.ar    1  UNL1        0.0041
     16 C         -16.4062   -9.8104   18.2315 C.ar    1  UNL1        0.0345
     17 C         -16.1012   -8.6854   19.1756 C.ar    1  UNL1        0.1340
     18 N         -17.1924   -8.0999   20.0221 N.ar    1  UNL1       -0.2348
     19 O         -11.1026   -2.8033   18.8971 O.3     1  UNL1       -0.4518
     20 C         -12.0244   -1.8786   18.1588 C.ar    1  UNL1        0.1666
     21 C         -11.7587   -1.5454   16.7205 C.ar    1  UNL1        0.1364
     22 N         -12.6806   -0.6207   15.9822 N.ar    1  UNL1       -0.2368
     23 C         -13.8681   -0.0291   16.6822 C.ar    1  UNL1        0.1286
     24 C         -14.1338   -0.3623   18.1203 C.ar    1  UNL1        0.1623
     25 F         -15.3213    0.2293   18.8202 F       1  UNL1       -0.2024
     26 C         -13.2119   -1.2870   18.8586 C.ar    1  UNL1        0.0703
@<TRIPOS>BOND
     1    12    13    1
     2    13    14   ar
     3    14    15   ar
     4    15    16   ar
     5    16    17   ar
     6    17     8    1
     7     8     9   am
     8     9    10    2
     9     9     1    1
    10     1     2   ar
    11     2     3   ar
    12     3    19    1
    13    19    20    1
    14    20    21   ar
    15    21    22   ar
    16    22    23   ar
    17    23    24   ar
    18    24    25    1
    19    24    26   ar
    20     3     4   ar
    21     4     5   ar
    22     5     6    1
    23     5     7   ar
    24    17    18   ar
    25    18    13   ar
    26     7     1   ar
    27    26    20   ar
    28     8    11    1
@<TRIPOS>MOLECULE
*****
 26 28 0 0 0
SMALL
GASTEIGER

@<TRIPOS>ATOM
      1 C          -7.5048  -19.7707   19.7949 C.ar    1  UNL1        0.1374
      2 C          -8.6147  -18.9665   20.4042 C.ar    1  UNL1        0.0612
      3 C         -10.0074  -19.0760   19.8580 C.ar    1  UNL1        0.1482
      4 C         -10.2902  -19.9896   18.7025 C.ar    1  UNL1        0.0522
      5 C          -9.1803  -20.7938   18.0931 C.ar    1  UNL1        0.0625
      6 C          -9.4631  -21.7074   16.9376 C.3     1  UNL1        0.0522
      7 N          -7.7876  -20.6844   18.6393 N.ar    1  UNL1       -0.2449
      8 N          -5.6551  -18.3832   20.9795 N.am    1  UNL1       -0.2646
      9 C          -6.1121  -19.6613   20.3411 C.2     1  UNL1        0.2684
     10 O          -5.1763  -20.8300   20.2488 O.2     1  UNL1       -0.2681
     11 H          -6.2692  -17.6161   21.0400 H       1  UNL1        0.1566
     12 C          -0.5397  -17.9096   20.1991 C.3     1  UNL1        0.0521
     13 C          -1.7046  -18.0370   21.1355 C.ar    1  UNL1        0.0608
     14 C          -1.4768  -18.0550   22.6179 C.ar    1  UNL1        0.0148
     15 C          -2.6418  -18.1823   23.5543 C.ar    1  UNL1        0.0041
     16 C          -4.0345  -18.2917   23.0081 C.ar    1  UNL1        0.0345
     17 C          -4.2623  -18.2738   21.5257 C.ar    1  UNL1        0.1340
     18 N          -3.0974  -18.1464   20.5893 N.ar    1  UNL1       -0.2348
     19 O         -11.1174  -18.2717   20.4673 O.3     1  UNL1       -0.4518
     20 C         -11.4931  -18.4802   21.9045 C.ar    1  UNL1        0.1666
     21 C         -10.5781  -19.2436   22.8157 C.ar    1  UNL1        0.1364
     22 N         -10.9538  -19.4521   24.2529 N.ar    1  UNL1       -0.2368
     23 C         -12.2444  -18.8972   24.7788 C.ar    1  UNL1        0.1286
     24 C         -13.1593  -18.1340   23.8676 C.ar    1  UNL1        0.1623
     25 F         -14.4498  -17.5792   24.3936 F       1  UNL1       -0.2024
     26 C         -12.7836  -17.9255   22.4304 C.ar    1  UNL1        0.0703
@<TRIPOS>BOND
     1    12    13    1
     2    13    14   ar
     3    14    15   ar
     4    15    16   ar
     5    16    17   ar
     6    17     8    1
     7     8     9   am
     8     9    10    2
     9     9     1    1
    10     1     2   ar
    11     2     3   ar
    12     3    19    1
    13    19    20    1
    14    20    21   ar
    15    21    22   ar
    16    22    23   ar
    17    23    24   ar
    18    24    25    1
    19    24    26   ar
    20     3     4   ar
    21     4     5   ar
    22     5     6    1
    23     5     7   ar
    24    17    18   ar
    25    18    13   ar
    26     7     1   ar
    27    26    20   ar
    28     8    11    1
@<TRIPOS>MOLECULE
*****
 26 28 0 0 0
SMALL
GASTEIGER

@<TRIPOS>ATOM
      1 C         -13.3329   -7.1924   18.0794 C.ar    1  UNL1        0.1374
      2 C         -13.3488   -5.9634   17.2197 C.ar    1  UNL1        0.0612
      3 C         -12.0699   -5.2367   16.9264 C.ar    1  UNL1        0.1482
      4 C         -10.7750   -5.7390   17.4929 C.ar    1  UNL1        0.0522
      5 C         -10.7591   -6.9681   18.3526 C.ar    1  UNL1        0.0625
      6 C          -9.4642   -7.4704   18.9191 C.3     1  UNL1        0.0522
      7 N         -12.0380   -7.6948   18.6458 N.ar    1  UNL1       -0.2449
      8 N         -15.9201   -7.1872   18.3177 N.am    1  UNL1       -0.2646
      9 C         -14.6120   -7.9192   18.3726 C.2     1  UNL1        0.2684
     10 O         -14.5828   -9.3779   18.7208 O.2     1  UNL1       -0.2681
     11 H         -15.9392   -6.2298   18.0892 H       1  UNL1        0.1566
     12 C         -19.7133  -10.4054   16.8161 C.3     1  UNL1        0.0521
     13 C         -19.0957   -9.5231   17.8601 C.ar    1  UNL1        0.0608
     14 C         -19.7571   -9.3675   19.1974 C.ar    1  UNL1        0.0148
     15 C         -19.1395   -8.4852   20.2415 C.ar    1  UNL1        0.0041
     16 C         -17.8605   -7.7584   19.9483 C.ar    1  UNL1        0.0345
     17 C         -17.1991   -7.9140   18.6110 C.ar    1  UNL1        0.1340
     18 N         -17.8167   -8.7963   17.5669 N.ar    1  UNL1       -0.2348
     19 O         -12.0857   -4.0075   16.0667 O.3     1  UNL1       -0.4518
     20 C         -12.0943   -2.6484   16.7014 C.ar    1  UNL1        0.1666
     21 C         -10.9454   -1.7099   16.4797 C.ar    1  UNL1        0.1364
     22 N         -10.9540   -0.3508   17.1143 N.ar    1  UNL1       -0.2368
     23 C         -12.1115    0.0698   17.9707 C.ar    1  UNL1        0.1286
     24 C         -13.2604   -0.8688   18.1923 C.ar    1  UNL1        0.1623
     25 F         -14.4179   -0.4482   19.0486 F       1  UNL1       -0.2024
     26 C         -13.2518   -2.2279   17.5577 C.ar    1  UNL1        0.0703
@<TRIPOS>BOND
     1    12    13    1
     2    13    14   ar
     3    14    15   ar
     4    15    16   ar
     5    16    17   ar
     6    17     8    1
     7     8     9   am
     8     9    10    2
     9     9     1    1
    10     1     2   ar
    11     2     3   ar
    12     3    19    1
    13    19    20    1
    14    20    21   ar
    15    21    22   ar
    16    22    23   ar
    17    23    24   ar
    18    24    25    1
    19    24    26   ar
    20     3     4   ar
    21     4     5   ar
    22     5     6    1
    23     5     7   ar
    24    17    18   ar
    25    18    13   ar
    26     7     1   ar
    27    26    20   ar
    28     8    11    1
@<TRIPOS>MOLECULE
*****
 26 28 0 0 0
SMALL
GASTEIGER

@<TRIPOS>ATOM
      1 C           2.7194    0.6906   32.3024 C.ar    1  UNL1        0.1374
      2 C           3.0246    1.4875   33.5359 C.ar    1  UNL1        0.0612
      3 C           3.9650    0.9404   34.5685 C.ar    1  UNL1        0.1482
      4 C           4.6002   -0.4035   34.3676 C.ar    1  UNL1        0.0522
      5 C           4.2949   -1.2004   33.1340 C.ar    1  UNL1        0.0625
      6 C           4.9301   -2.5444   32.9330 C.3     1  UNL1        0.0522
      7 N           3.3545   -0.6534   32.1014 N.ar    1  UNL1       -0.2449
      8 N           2.1604    1.2121   29.8193 N.am    1  UNL1       -0.2646
      9 C           1.7789    1.2376   31.2697 C.2     1  UNL1        0.2684
     10 O           0.4570    1.8102   31.6875 O.2     1  UNL1       -0.2681
     11 H           3.0281    0.8363   29.5451 H       1  UNL1        0.1566
     12 C          -0.0730    5.2716   27.4672 C.3     1  UNL1        0.0521
     13 C           0.1033    3.7889   27.6106 C.ar    1  UNL1        0.0608
     14 C          -0.6608    2.8533   26.7214 C.ar    1  UNL1        0.0148
     15 C          -0.4845    1.3706   26.8648 C.ar    1  UNL1        0.0041
     16 C           0.4559    0.8235   27.8974 C.ar    1  UNL1        0.0345
     17 C           1.2200    1.7591   28.7866 C.ar    1  UNL1        0.1340
     18 N           1.0437    3.2418   28.6432 N.ar    1  UNL1       -0.2348
     19 O           4.2703    1.7373   35.8022 O.3     1  UNL1       -0.4518
     20 C           3.2203    1.9162   36.8584 C.ar    1  UNL1        0.1666
     21 C           2.3655    3.1489   36.8648 C.ar    1  UNL1        0.1364
     22 N           1.3155    3.3278   37.9210 N.ar    1  UNL1       -0.2368
     23 C           1.1203    2.2742   38.9707 C.ar    1  UNL1        0.1286
     24 C           1.9751    1.0416   38.9642 C.ar    1  UNL1        0.1623
     25 F           1.7799   -0.0119   40.0138 F       1  UNL1       -0.2024
     26 C           3.0251    0.8627   37.9080 C.ar    1  UNL1        0.0703
@<TRIPOS>BOND
     1    12    13    1
     2    13    14   ar
     3    14    15   ar
     4    15    16   ar
     5    16    17   ar
     6    17     8    1
     7     8     9   am
     8     9    10    2
     9     9     1    1
    10     1     2   ar
    11     2     3   ar
    12     3    19    1
    13    19    20    1
    14    20    21   ar
    15    21    22   ar
    16    22    23   ar
    17    23    24   ar
    18    24    25    1
    19    24    26   ar
    20     3     4   ar
    21     4     5   ar
    22     5     6    1
    23     5     7   ar
    24    17    18   ar
    25    18    13   ar
    26     7     1   ar
    27    26    20   ar
    28     8    11    1
@<TRIPOS>MOLECULE
*****
 26 28 0 0 0
SMALL
GASTEIGER

@<TRIPOS>ATOM
      1 C           0.4497    4.8578   33.7608 C.ar    1  UNL1        0.1374
      2 C           1.4171    4.6380   34.8859 C.ar    1  UNL1        0.0612
      3 C           1.2772    5.4194   36.1586 C.ar    1  UNL1        0.1482
      4 C           0.1700    6.4205   36.3063 C.ar    1  UNL1        0.0522
      5 C          -0.7974    6.6402   35.1812 C.ar    1  UNL1        0.0625
      6 C          -1.9047    7.6413   35.3289 C.3     1  UNL1        0.0522
      7 N          -0.6576    5.8589   33.9085 N.ar    1  UNL1       -0.2449
      8 N           0.9136    2.6128   32.5382 N.am    1  UNL1       -0.2646
      9 C           0.5895    4.0764   32.4880 C.2     1  UNL1        0.2684
     10 O           0.4052    4.7588   31.1650 O.2     1  UNL1       -0.2681
     11 H           1.0346    2.1649   33.4066 H       1  UNL1        0.1566
     12 C          -1.2239   -0.1919   28.7218 C.3     1  UNL1        0.0521
     13 C          -0.0153    0.4291   29.3572 C.ar    1  UNL1        0.0608
     14 C           1.3330    0.2688   28.7199 C.ar    1  UNL1        0.0148
     15 C           2.5416    0.8898   29.3553 C.ar    1  UNL1        0.0041
     16 C           2.4018    1.6711   30.6281 C.ar    1  UNL1        0.0345
     17 C           1.0535    1.8314   31.2654 C.ar    1  UNL1        0.1340
     18 N          -0.1551    1.2104   30.6300 N.ar    1  UNL1       -0.2348
     19 O           2.2447    5.1997   37.2838 O.3     1  UNL1       -0.4518
     20 C           2.6293    3.8052   37.6806 C.ar    1  UNL1        0.1666
     21 C           4.0360    3.3274   37.4729 C.ar    1  UNL1        0.1364
     22 N           4.4207    1.9329   37.8697 N.ar    1  UNL1       -0.2368
     23 C           3.3987    1.0162   38.4742 C.ar    1  UNL1        0.1286
     24 C           1.9921    1.4940   38.6818 C.ar    1  UNL1        0.1623
     25 F           0.9702    0.5774   39.2862 F       1  UNL1       -0.2024
     26 C           1.6074    2.8885   38.2850 C.ar    1  UNL1        0.0703
@<TRIPOS>BOND
     1    12    13    1
     2    13    14   ar
     3    14    15   ar
     4    15    16   ar
     5    16    17   ar
     6    17     8    1
     7     8     9   am
     8     9    10    2
     9     9     1    1
    10     1     2   ar
    11     2     3   ar
    12     3    19    1
    13    19    20    1
    14    20    21   ar
    15    21    22   ar
    16    22    23   ar
    17    23    24   ar
    18    24    25    1
    19    24    26   ar
    20     3     4   ar
    21     4     5   ar
    22     5     6    1
    23     5     7   ar
    24    17    18   ar
    25    18    13   ar
    26     7     1   ar
    27    26    20   ar
    28     8    11    1
