@<TRIPOS>MOLECULE
*****
 18 18 0 0 0
SMALL
GASTEIGER

@<TRIPOS>ATOM
      1 C          -8.4724  -17.4529   21.9028 C.3     1  UNL1        0.1697
      2 O          -7.4024  -18.0000   21.0052 O.3     1  UNL1       -0.3793
      3 H          -7.4659  -18.9676   20.9789 H       1  UNL1        0.2106
      4 C          -9.4253  -18.3862   22.5891 C.3     1  UNL1        0.1020
      5 N         -10.7762  -18.6505   21.9933 N.3     1  UNL1       -0.2975
      6 H         -10.8029  -18.1646   21.0969 H       1  UNL1        0.1232
      7 C         -11.4154  -18.7689   24.0125 C.3     1  UNL1        0.0158
      8 C         -12.0156  -18.2525   22.7385 C.3     1  UNL1        0.0421
      9 C         -12.6159  -17.7362   21.4646 C.3     1  UNL1        0.0158
     10 C         -13.2551  -17.8545   23.4838 C.3     1  UNL1        0.0158
     11 C          -8.5896  -15.9725   22.1141 C.3     1  UNL1        0.2358
     12 O          -7.4698  -15.2170   22.7660 O.3     1  UNL1       -0.4728
     13 C          -7.2602  -15.3172   24.2479 C.ar    1  UNL1        0.1387
     14 C          -8.4413  -15.4143   25.1675 C.ar    1  UNL1        0.0369
     15 C          -8.2317  -15.5145   26.6494 C.ar    1  UNL1        0.0031
     16 C          -6.8412  -15.5178   27.2117 C.ar    1  UNL1        0.0002
     17 C          -5.6601  -15.4207   26.2921 C.ar    1  UNL1        0.0031
     18 C          -5.8697  -15.3204   24.8102 C.ar    1  UNL1        0.0369
@<TRIPOS>BOND
     1     7     8    1
     2     8     9    1
     3     8    10    1
     4     8     5    1
     5     5     4    1
     6     4     1    1
     7     1     2    1
     8     1    11    1
     9    11    12    1
    10    12    13    1
    11    13    14   ar
    12    14    15   ar
    13    15    16   ar
    14    16    17   ar
    15    17    18   ar
    16    18    13   ar
    17     5     6    1
    18     2     3    1
@<TRIPOS>MOLECULE
*****
 18 18 0 0 0
SMALL
GASTEIGER

@<TRIPOS>ATOM
      1 C          -9.5180  -16.5750   21.4871 C.3     1  UNL1        0.1697
      2 O          -9.7707  -15.1612   21.0544 O.3     1  UNL1       -0.3793
      3 H         -10.6077  -15.1172   20.5662 H       1  UNL1        0.2106
      4 C         -10.5032  -17.6524   21.1424 C.3     1  UNL1        0.1020
      5 N         -11.0167  -18.5694   22.2127 N.3     1  UNL1       -0.2975
      6 H         -11.1891  -19.4717   21.7695 H       1  UNL1        0.1232
      7 C         -12.9225  -17.7981   21.6902 C.3     1  UNL1        0.0158
      8 C         -12.2614  -18.2145   22.9707 C.3     1  UNL1        0.0421
      9 C         -11.6004  -18.6309   24.2511 C.3     1  UNL1        0.0158
     10 C         -13.5062  -17.8595   23.7288 C.3     1  UNL1        0.0158
     11 C          -8.2800  -16.9115   22.2644 C.3     1  UNL1        0.2358
     12 O          -7.4055  -15.8140   22.7940 O.3     1  UNL1       -0.4728
     13 C          -7.2074  -15.6605   24.2730 C.ar    1  UNL1        0.1387
     14 C          -5.8323  -15.4281   24.8253 C.ar    1  UNL1        0.0369
     15 C          -5.6342  -15.2746   26.3042 C.ar    1  UNL1        0.0031
     16 C          -6.8111  -15.3535   27.2308 C.ar    1  UNL1        0.0002
     17 C          -8.1862  -15.5859   26.6784 C.ar    1  UNL1        0.0031
     18 C          -8.3843  -15.7394   25.1995 C.ar    1  UNL1        0.0369
@<TRIPOS>BOND
     1     7     8    1
     2     8     9    1
     3     8    10    1
     4     8     5    1
     5     5     4    1
     6     4     1    1
     7     1     2    1
     8     1    11    1
     9    11    12    1
    10    12    13    1
    11    13    14   ar
    12    14    15   ar
    13    15    16   ar
    14    16    17   ar
    15    17    18   ar
    16    18    13   ar
    17     5     6    1
    18     2     3    1
@<TRIPOS>MOLECULE
*****
 18 18 0 0 0
SMALL
GASTEIGER

@<TRIPOS>ATOM
      1 C          -7.4254  -15.6660   22.4570 C.3     1  UNL1        0.1697
      2 O          -8.0273  -14.6661   21.5146 O.3     1  UNL1       -0.3793
      3 H          -7.7295  -13.7749   21.7554 H       1  UNL1        0.2106
      4 C          -6.5171  -15.2061   23.5586 C.3     1  UNL1        0.1020
      5 N          -7.0943  -14.5902   24.7986 N.3     1  UNL1       -0.2975
      6 H          -6.6352  -13.6876   24.9202 H       1  UNL1        0.1232
      7 C          -8.4851  -15.4285   26.1635 C.3     1  UNL1        0.0158
      8 C          -6.9908  -15.3090   26.1111 C.3     1  UNL1        0.0421
      9 C          -5.4965  -15.1895   26.0586 C.3     1  UNL1        0.0158
     10 C          -6.8872  -16.0278   27.4236 C.3     1  UNL1        0.0158
     11 C          -7.7317  -17.1257   22.2977 C.3     1  UNL1        0.2358
     12 O          -8.8174  -17.5663   21.3612 O.3     1  UNL1       -0.4728
     13 C         -10.2357  -17.6482   21.8426 C.ar    1  UNL1        0.1387
     14 C         -11.3665  -17.3846   20.8930 C.ar    1  UNL1        0.0369
     15 C         -12.7847  -17.4665   21.3745 C.ar    1  UNL1        0.0031
     16 C         -13.0722  -17.8119   22.8055 C.ar    1  UNL1        0.0002
     17 C         -11.9415  -18.0755   23.7551 C.ar    1  UNL1        0.0031
     18 C         -10.5232  -17.9936   23.2737 C.ar    1  UNL1        0.0369
@<TRIPOS>BOND
     1     7     8    1
     2     8     9    1
     3     8    10    1
     4     8     5    1
     5     5     4    1
     6     4     1    1
     7     1     2    1
     8     1    11    1
     9    11    12    1
    10    12    13    1
    11    13    14   ar
    12    14    15   ar
    13    15    16   ar
    14    16    17   ar
    15    17    18   ar
    16    18    13   ar
    17     5     6    1
    18     2     3    1
@<TRIPOS>MOLECULE
*****
 18 18 0 0 0
SMALL
GASTEIGER

@<TRIPOS>ATOM
      1 C          -7.8997  -18.7933   22.3352 C.3     1  UNL1        0.1697
      2 O          -8.8196  -19.6449   23.1590 O.3     1  UNL1       -0.3793
      3 H          -8.5022  -20.5615   23.1546 H       1  UNL1        0.2106
      4 C          -6.7073  -19.4088   21.6648 C.3     1  UNL1        0.1020
      5 N          -5.5142  -18.5628   21.3322 N.3     1  UNL1       -0.2975
      6 H          -5.6180  -18.2770   20.3586 H       1  UNL1        0.1232
      7 C          -4.0392  -18.5570   22.8567 C.3     1  UNL1        0.0158
      8 C          -4.1317  -19.1275   21.4726 C.3     1  UNL1        0.0421
      9 C          -4.2242  -19.6981   20.0885 C.3     1  UNL1        0.0158
     10 C          -2.7491  -19.6923   21.6130 C.3     1  UNL1        0.0158
     11 C          -8.1723  -17.3263   22.1817 C.3     1  UNL1        0.2358
     12 O          -7.1563  -16.3227   22.6405 O.3     1  UNL1       -0.4728
     13 C          -7.0169  -16.0106   24.1011 C.ar    1  UNL1        0.1387
     14 C          -5.6791  -15.6290   24.6621 C.ar    1  UNL1        0.0369
     15 C          -5.5397  -15.3168   26.1226 C.ar    1  UNL1        0.0031
     16 C          -6.7380  -15.3862   27.0221 C.ar    1  UNL1        0.0002
     17 C          -8.0758  -15.7678   26.4611 C.ar    1  UNL1        0.0031
     18 C          -8.2152  -16.0799   25.0005 C.ar    1  UNL1        0.0369
@<TRIPOS>BOND
     1     7     8    1
     2     8     9    1
     3     8    10    1
     4     8     5    1
     5     5     4    1
     6     4     1    1
     7     1     2    1
     8     1    11    1
     9    11    12    1
    10    12    13    1
    11    13    14   ar
    12    14    15   ar
    13    15    16   ar
    14    16    17   ar
    15    17    18   ar
    16    18    13   ar
    17     5     6    1
    18     2     3    1
@<TRIPOS>MOLECULE
*****
 18 18 0 0 0
SMALL
GASTEIGER

@<TRIPOS>ATOM
      1 C         -10.0257  -19.6114   24.3538 C.3     1  UNL1        0.1697
      2 O          -9.8834  -20.7802   25.2831 O.3     1  UNL1       -0.3793
      3 H          -9.7745  -21.5934   24.7655 H       1  UNL1        0.2106
      4 C          -9.9858  -19.8242   22.8694 C.3     1  UNL1        0.1020
      5 N         -11.2276  -19.6314   22.0505 N.3     1  UNL1       -0.2975
      6 H         -11.4363  -20.5303   21.6161 H       1  UNL1        0.1232
      7 C         -10.1314  -19.3191   20.2615 C.3     1  UNL1        0.0158
      8 C         -11.2528  -18.6055   20.9565 C.3     1  UNL1        0.0421
      9 C         -12.3743  -17.8919   21.6515 C.3     1  UNL1        0.0158
     10 C         -11.2781  -17.5795   19.8625 C.3     1  UNL1        0.0158
     11 C         -10.2079  -18.2298   24.9088 C.3     1  UNL1        0.2358
     12 O          -9.4969  -17.0688   24.2792 O.3     1  UNL1       -0.4728
     13 C          -8.3252  -16.4407   24.9739 C.ar    1  UNL1        0.1387
     14 C          -7.1299  -16.0024   24.1808 C.ar    1  UNL1        0.0369
     15 C          -5.9582  -15.3742   24.8755 C.ar    1  UNL1        0.0031
     16 C          -5.9818  -15.1845   26.3633 C.ar    1  UNL1        0.0002
     17 C          -7.1772  -15.6228   27.1563 C.ar    1  UNL1        0.0031
     18 C          -8.3489  -16.2509   26.4616 C.ar    1  UNL1        0.0369
@<TRIPOS>BOND
     1     7     8    1
     2     8     9    1
     3     8    10    1
     4     8     5    1
     5     5     4    1
     6     4     1    1
     7     1     2    1
     8     1    11    1
     9    11    12    1
    10    12    13    1
    11    13    14   ar
    12    14    15   ar
    13    15    16   ar
    14    16    17   ar
    15    17    18   ar
    16    18    13   ar
    17     5     6    1
    18     2     3    1
@<TRIPOS>MOLECULE
*****
 18 18 0 0 0
SMALL
GASTEIGER

@<TRIPOS>ATOM
      1 C          -6.6559  -15.5534   23.8589 C.3     1  UNL1        0.1697
      2 O          -6.4926  -14.3804   24.7794 O.3     1  UNL1       -0.3793
      3 H          -5.5987  -14.3869   25.1560 H       1  UNL1        0.2106
      4 C          -5.5179  -16.5083   23.6516 C.3     1  UNL1        0.1020
      5 N          -5.6871  -17.6914   22.7452 N.3     1  UNL1       -0.2975
      6 H          -6.3956  -18.2893   23.1706 H       1  UNL1        0.1232
      7 C          -3.6408  -17.7160   23.3036 C.3     1  UNL1        0.0158
      8 C          -4.5123  -18.5691   22.4302 C.3     1  UNL1        0.0421
      9 C          -5.3837  -19.4221   21.5568 C.3     1  UNL1        0.0158
     10 C          -3.3373  -19.4468   22.1151 C.3     1  UNL1        0.0158
     11 C          -7.9573  -15.7715   23.1456 C.3     1  UNL1        0.2358
     12 O          -8.5734  -17.1386   23.1104 O.3     1  UNL1       -0.4728
     13 C         -10.0636  -17.2920   23.1863 C.ar    1  UNL1        0.1387
     14 C         -10.6646  -18.3582   24.0534 C.ar    1  UNL1        0.0369
     15 C         -12.1549  -18.5115   24.1293 C.ar    1  UNL1        0.0031
     16 C         -13.0440  -17.5986   23.3382 C.ar    1  UNL1        0.0002
     17 C         -12.4430  -16.5324   22.4711 C.ar    1  UNL1        0.0031
     18 C         -10.9528  -16.3791   22.3952 C.ar    1  UNL1        0.0369
@<TRIPOS>BOND
     1     7     8    1
     2     8     9    1
     3     8    10    1
     4     8     5    1
     5     5     4    1
     6     4     1    1
     7     1     2    1
     8     1    11    1
     9    11    12    1
    10    12    13    1
    11    13    14   ar
    12    14    15   ar
    13    15    16   ar
    14    16    17   ar
    15    17    18   ar
    16    18    13   ar
    17     5     6    1
    18     2     3    1
@<TRIPOS>MOLECULE
*****
 18 18 0 0 0
SMALL
GASTEIGER

@<TRIPOS>ATOM
      1 C          -8.0292  -15.9813   22.6269 C.3     1  UNL1        0.1697
      2 O          -8.1601  -15.0043   21.4964 O.3     1  UNL1       -0.3793
      3 H          -8.4409  -14.1433   21.8440 H       1  UNL1        0.2106
      4 C          -8.3225  -15.5460   24.0322 C.3     1  UNL1        0.1020
      5 N          -7.2522  -14.8895   24.8528 N.3     1  UNL1       -0.2975
      6 H          -6.3891  -14.9484   24.3124 H       1  UNL1        0.1232
      7 C          -8.4055  -15.5388   26.5105 C.3     1  UNL1        0.0158
      8 C          -6.9388  -15.4039   26.2265 C.3     1  UNL1        0.0421
      9 C          -5.4722  -15.2690   25.9425 C.3     1  UNL1        0.0158
     10 C          -6.6254  -15.9183   27.6003 C.3     1  UNL1        0.0158
     11 C          -7.6050  -17.3937   22.3524 C.3     1  UNL1        0.2358
     12 O          -6.2259  -17.8489   22.7273 O.3     1  UNL1       -0.4728
     13 C          -5.4948  -18.8248   21.8537 C.ar    1  UNL1        0.1387
     14 C          -3.9954  -18.8174   21.8123 C.ar    1  UNL1        0.0369
     15 C          -3.2644  -19.7933   20.9388 C.ar    1  UNL1        0.0031
     16 C          -4.0327  -20.7766   20.1065 C.ar    1  UNL1        0.0002
     17 C          -5.5321  -20.7840   20.1478 C.ar    1  UNL1        0.0031
     18 C          -6.2631  -19.8081   21.0214 C.ar    1  UNL1        0.0369
@<TRIPOS>BOND
     1     7     8    1
     2     8     9    1
     3     8    10    1
     4     8     5    1
     5     5     4    1
     6     4     1    1
     7     1     2    1
     8     1    11    1
     9    11    12    1
    10    12    13    1
    11    13    14   ar
    12    14    15   ar
    13    15    16   ar
    14    16    17   ar
    15    17    18   ar
    16    18    13   ar
    17     5     6    1
    18     2     3    1
@<TRIPOS>MOLECULE
*****
 18 18 0 0 0
SMALL
GASTEIGER

@<TRIPOS>ATOM
      1 C          -7.4389  -18.5103   21.0351 C.3     1  UNL1        0.1697
      2 O          -6.3080  -18.3489   20.0630 O.3     1  UNL1       -0.3793
      3 H          -5.5718  -17.8900   20.4969 H       1  UNL1        0.2106
      4 C          -7.3049  -17.9887   22.4351 C.3     1  UNL1        0.1020
      5 N          -7.1209  -16.5192   22.6735 N.3     1  UNL1       -0.2975
      6 H          -6.1228  -16.3289   22.5831 H       1  UNL1        0.1232
      7 C          -8.9801  -16.2953   23.6700 C.3     1  UNL1        0.0158
      8 C          -7.5623  -15.9088   23.9706 C.3     1  UNL1        0.0421
      9 C          -6.1445  -15.5223   24.2712 C.3     1  UNL1        0.0158
     10 C          -8.0037  -15.2983   25.2678 C.3     1  UNL1        0.0158
     11 C          -8.7040  -19.1934   20.6072 C.3     1  UNL1        0.2358
     12 O          -9.5754  -19.8651   21.6267 O.3     1  UNL1       -0.4728
     13 C         -10.7804  -19.1547   22.1683 C.ar    1  UNL1        0.1387
     14 C         -11.6816  -18.3936   21.2418 C.ar    1  UNL1        0.0369
     15 C         -12.8866  -17.6831   21.7834 C.ar    1  UNL1        0.0031
     16 C         -13.1903  -17.7338   23.2515 C.ar    1  UNL1        0.0002
     17 C         -12.2891  -18.4950   24.1779 C.ar    1  UNL1        0.0031
     18 C         -11.0841  -19.2054   23.6363 C.ar    1  UNL1        0.0369
@<TRIPOS>BOND
     1     7     8    1
     2     8     9    1
     3     8    10    1
     4     8     5    1
     5     5     4    1
     6     4     1    1
     7     1     2    1
     8     1    11    1
     9    11    12    1
    10    12    13    1
    11    13    14   ar
    12    14    15   ar
    13    15    16   ar
    14    16    17   ar
    15    17    18   ar
    16    18    13   ar
    17     5     6    1
    18     2     3    1
@<TRIPOS>MOLECULE
*****
 18 18 0 0 0
SMALL
GASTEIGER

@<TRIPOS>ATOM
      1 C          -8.5347  -16.4826   22.0362 C.3     1  UNL1        0.1697
      2 O          -7.8531  -15.2629   21.4906 O.3     1  UNL1       -0.3793
      3 H          -8.4027  -14.4819   21.6608 H       1  UNL1        0.2106
      4 C          -9.8651  -16.3566   22.7177 C.3     1  UNL1        0.1020
      5 N         -10.4441  -17.5279   23.4545 N.3     1  UNL1       -0.2975
      6 H         -10.0452  -18.3670   23.0336 H       1  UNL1        0.1232
      7 C         -11.7487  -18.8829   24.4352 C.3     1  UNL1        0.0158
      8 C         -11.9301  -17.7283   23.4951 C.3     1  UNL1        0.0421
      9 C         -12.1114  -16.5736   22.5550 C.3     1  UNL1        0.0158
     10 C         -13.4161  -17.9287   23.5356 C.3     1  UNL1        0.0158
     11 C          -7.8861  -17.8282   21.9003 C.3     1  UNL1        0.2358
     12 O          -6.6541  -18.1505   22.6929 O.3     1  UNL1       -0.4728
     13 C          -5.4706  -18.7779   22.0178 C.ar    1  UNL1        0.1387
     14 C          -4.1135  -18.6921   22.6507 C.ar    1  UNL1        0.0369
     15 C          -2.9300  -19.3195   21.9755 C.ar    1  UNL1        0.0031
     16 C          -3.1038  -20.0327   20.6674 C.ar    1  UNL1        0.0002
     17 C          -4.4609  -20.1184   20.0345 C.ar    1  UNL1        0.0031
     18 C          -5.6444  -19.4910   20.7097 C.ar    1  UNL1        0.0369
@<TRIPOS>BOND
     1     7     8    1
     2     8     9    1
     3     8    10    1
     4     8     5    1
     5     5     4    1
     6     4     1    1
     7     1     2    1
     8     1    11    1
     9    11    12    1
    10    12    13    1
    11    13    14   ar
    12    14    15   ar
    13    15    16   ar
    14    16    17   ar
    15    17    18   ar
    16    18    13   ar
    17     5     6    1
    18     2     3    1
