@<TRIPOS>MOLECULE
*****
 38 43 0 0 0
SMALL
GASTEIGER

@<TRIPOS>ATOM
      1 O           6.5648   -5.5671   32.2341 O.2     1  UNL1       -0.2749
      2 C           6.5619   -4.2148   31.5852 C.2     1  UNL1        0.2252
      3 N           6.6174   -4.1001   30.0906 N.am    1  UNL1       -0.2794
      4 C           6.6759   -5.3377   29.2451 C.3     1  UNL1        0.0953
      5 C           6.7314   -5.2229   27.7505 C.3     1  UNL1        0.0442
      6 C           6.7285   -3.8705   27.1014 C.3     1  UNL1        0.0933
      7 C           6.6700   -2.6330   27.9470 C.3     1  UNL1        0.0442
      8 C           6.6145   -2.7478   29.4416 C.3     1  UNL1        0.0953
      9 N           6.7840   -3.7558   25.6069 N.ar    1  UNL1       -0.2817
     10 C           6.0361   -2.7601   24.7706 C.ar    1  UNL1        0.3317
     11 O           5.1014   -1.7043   25.2821 O.2     1  UNL1       -0.2463
     12 N           6.3871   -3.0056   23.3331 N.ar    1  UNL1       -0.2758
     13 C           7.3519   -4.1530   23.2809 C.ar    1  UNL1        0.0800
     14 C           8.0387   -4.8355   22.1353 C.ar    1  UNL1        0.0188
     15 C           8.9708   -5.9816   22.3949 C.ar    1  UNL1        0.0016
     16 C           9.2161   -6.4452   23.8002 C.ar    1  UNL1        0.0016
     17 C           8.5293   -5.7628   24.9458 C.ar    1  UNL1        0.0188
     18 C           7.5972   -4.6166   24.6862 C.ar    1  UNL1        0.0796
     19 C           5.8650   -2.2384   22.1546 C.3     1  UNL1        0.1373
     20 C           5.3321   -2.9711   20.9590 C.ar    1  UNL1        0.0005
     21 C           5.8201   -2.6194   19.5849 C.ar    1  UNL1       -0.0024
     22 C           5.2874   -3.3520   18.3894 C.ar    1  UNL1       -0.0003
     23 C           4.2665   -4.4365   18.5680 C.ar    1  UNL1       -0.0000
     24 C           3.7785   -4.7882   19.9420 C.ar    1  UNL1       -0.0003
     25 C           4.3113   -4.0556   21.1376 C.ar    1  UNL1       -0.0024
     26 C           6.5034   -2.9772   32.4308 C.3     1  UNL1        0.0795
     27 C           7.7515   -2.1867   32.6905 C.3     1  UNL1        0.0264
     28 C           7.6931   -0.9492   33.5360 C.3     1  UNL1        0.0729
     29 N           6.3866   -0.5021   34.1219 N.3     1  UNL1       -0.2689
     30 C           5.1384   -1.2926   33.8621 C.3     1  UNL1        0.0729
     31 C           5.1969   -2.5302   33.0166 C.3     1  UNL1        0.0264
     32 C           6.3281    0.7355   34.9674 C.3     1  UNL1        0.0992
     33 C           5.0479    1.1186   35.6488 C.ar    1  UNL1       -0.0031
     34 C           4.7416    0.5929   37.0198 C.ar    1  UNL1        0.0178
     35 C           3.4614    0.9760   37.7013 C.ar    1  UNL1        0.0986
     36 N           2.4875    1.8847   37.0116 N.ar    1  UNL1       -0.2423
     37 C           2.7938    2.4104   35.6406 C.ar    1  UNL1        0.0986
     38 C           4.0740    2.0274   34.9591 C.ar    1  UNL1        0.0178
@<TRIPOS>BOND
     1     1     2    2
     2     2    26    1
     3    26    27    1
     4    27    28    1
     5    28    29    1
     6    29    32    1
     7    32    33    1
     8    33    34   ar
     9    34    35   ar
    10    35    36   ar
    11    36    37   ar
    12    37    38   ar
    13    29    30    1
    14    30    31    1
    15     2     3   am
    16     3     4    1
    17     4     5    1
    18     5     6    1
    19     6     9    1
    20     9    10   ar
    21    10    11    2
    22    10    12   ar
    23    12    19    1
    24    19    20    1
    25    20    21   ar
    26    21    22   ar
    27    22    23   ar
    28    23    24   ar
    29    24    25   ar
    30    12    13   ar
    31    13    14   ar
    32    14    15   ar
    33    15    16   ar
    34    16    17   ar
    35    17    18   ar
    36     6     7    1
    37     7     8    1
    38    31    26    1
    39     8     3    1
    40    38    33   ar
    41    18     9   ar
    42    25    20   ar
    43    18    13   ar
@<TRIPOS>MOLECULE
*****
 38 43 0 0 0
SMALL
GASTEIGER

@<TRIPOS>ATOM
      1 O           1.7282    0.1605   30.5994 O.2     1  UNL1       -0.2749
      2 C           3.1638   -0.2720   30.6434 C.2     1  UNL1        0.2252
      3 N           3.8247   -0.8047   29.4067 N.am    1  UNL1       -0.2794
      4 C           3.0501   -0.9049   28.1261 C.3     1  UNL1        0.0953
      5 C           3.7110   -1.4376   26.8894 C.3     1  UNL1        0.0442
      6 C           5.1467   -1.8702   26.9333 C.3     1  UNL1        0.0933
      7 C           5.9212   -1.7700   28.2139 C.3     1  UNL1        0.0442
      8 C           5.2603   -1.2373   29.4506 C.3     1  UNL1        0.0953
      9 N           5.8077   -2.4029   25.6967 N.ar    1  UNL1       -0.2817
     10 C           5.9077   -1.6973   24.3768 C.ar    1  UNL1        0.3317
     11 O           5.3644   -0.3351   24.0618 O.2     1  UNL1       -0.2463
     12 N           6.6465   -2.5931   23.4272 N.ar    1  UNL1       -0.2758
     13 C           7.0030   -3.8523   24.1602 C.ar    1  UNL1        0.0800
     14 C           7.7328   -5.0908   23.7316 C.ar    1  UNL1        0.0188
     15 C           7.9441   -6.2116   24.7057 C.ar    1  UNL1        0.0016
     16 C           7.4256   -6.0941   26.1084 C.ar    1  UNL1        0.0016
     17 C           6.6959   -4.8557   26.5369 C.ar    1  UNL1        0.0188
     18 C           6.4846   -3.7348   25.5628 C.ar    1  UNL1        0.0796
     19 C           6.9716   -2.2840   21.9958 C.3     1  UNL1        0.1373
     20 C           6.1176   -2.8409   20.8955 C.ar    1  UNL1        0.0005
     21 C           4.9574   -3.7328   21.2250 C.ar    1  UNL1       -0.0024
     22 C           4.1034   -4.2897   20.1248 C.ar    1  UNL1       -0.0003
     23 C           4.4096   -3.9547   18.6951 C.ar    1  UNL1       -0.0000
     24 C           5.5697   -3.0628   18.3657 C.ar    1  UNL1       -0.0003
     25 C           6.4238   -2.5059   19.4658 C.ar    1  UNL1       -0.0024
     26 C           3.9384   -0.1719   31.9239 C.3     1  UNL1        0.0795
     27 C           4.5922    1.1230   32.3056 C.3     1  UNL1        0.0264
     28 C           5.3669    1.2232   33.5862 C.3     1  UNL1        0.0729
     29 N           5.4877    0.0284   34.4851 N.3     1  UNL1       -0.2689
     30 C           4.8338   -1.2666   34.1034 C.3     1  UNL1        0.0729
     31 C           4.0592   -1.3667   32.8228 C.3     1  UNL1        0.0264
     32 C           6.2623    0.1285   35.7657 C.3     1  UNL1        0.0992
     33 C           5.6587    0.8134   36.9558 C.ar    1  UNL1       -0.0031
     34 C           6.4774    1.7786   37.7609 C.ar    1  UNL1        0.0178
     35 C           5.8738    2.4634   38.9511 C.ar    1  UNL1        0.0986
     36 N           4.4515    2.1831   39.3363 N.ar    1  UNL1       -0.2423
     37 C           3.6327    1.2179   38.5312 C.ar    1  UNL1        0.0986
     38 C           4.2363    0.5330   37.3410 C.ar    1  UNL1        0.0178
@<TRIPOS>BOND
     1     1     2    2
     2     2    26    1
     3    26    27    1
     4    27    28    1
     5    28    29    1
     6    29    32    1
     7    32    33    1
     8    33    34   ar
     9    34    35   ar
    10    35    36   ar
    11    36    37   ar
    12    37    38   ar
    13    29    30    1
    14    30    31    1
    15     2     3   am
    16     3     4    1
    17     4     5    1
    18     5     6    1
    19     6     9    1
    20     9    10   ar
    21    10    11    2
    22    10    12   ar
    23    12    19    1
    24    19    20    1
    25    20    21   ar
    26    21    22   ar
    27    22    23   ar
    28    23    24   ar
    29    24    25   ar
    30    12    13   ar
    31    13    14   ar
    32    14    15   ar
    33    15    16   ar
    34    16    17   ar
    35    17    18   ar
    36     6     7    1
    37     7     8    1
    38    31    26    1
    39     8     3    1
    40    38    33   ar
    41    18     9   ar
    42    25    20   ar
    43    18    13   ar
@<TRIPOS>MOLECULE
*****
 38 43 0 0 0
SMALL
GASTEIGER

@<TRIPOS>ATOM
      1 O           6.9580   -5.7181   30.7788 O.2     1  UNL1       -0.2749
      2 C           6.8917   -4.3173   30.2465 C.2     1  UNL1        0.2252
      3 N           6.2708   -3.2299   31.0723 N.am    1  UNL1       -0.2794
      4 C           5.7162   -3.5433   32.4303 C.3     1  UNL1        0.0953
      5 C           5.0952   -2.4559   33.2561 C.3     1  UNL1        0.0442
      6 C           5.0289   -1.0549   32.7238 C.3     1  UNL1        0.0933
      7 C           5.5835   -0.7416   31.3659 C.3     1  UNL1        0.0442
      8 C           6.2044   -1.8291   30.5401 C.3     1  UNL1        0.0953
      9 N           4.4080    0.0325   33.5496 N.ar    1  UNL1       -0.2817
     10 C           4.7736    0.3858   34.9608 C.ar    1  UNL1        0.3317
     11 O           5.8245   -0.2862   35.7940 O.2     1  UNL1       -0.2463
     12 N           3.9040    1.5292   35.3925 N.ar    1  UNL1       -0.2758
     13 C           3.0009    1.8825   34.2482 C.ar    1  UNL1        0.0800
     14 C           1.9351    2.9270   34.0961 C.ar    1  UNL1        0.0188
     15 C           1.1808    3.0465   32.8051 C.ar    1  UNL1        0.0016
     16 C           1.4923    2.1214   31.6661 C.ar    1  UNL1        0.0016
     17 C           2.5581    1.0769   31.8182 C.ar    1  UNL1        0.0188
     18 C           3.3123    0.9575   33.1092 C.ar    1  UNL1        0.0796
     19 C           3.9325    2.2013   36.7332 C.3     1  UNL1        0.1373
     20 C           2.8026    1.9973   37.6986 C.ar    1  UNL1        0.0005
     21 C           1.8237    3.1051   37.9525 C.ar    1  UNL1       -0.0024
     22 C           0.6939    2.9012   38.9178 C.ar    1  UNL1       -0.0003
     23 C           0.5431    1.5893   39.6294 C.ar    1  UNL1       -0.0000
     24 C           1.5220    0.4815   39.3755 C.ar    1  UNL1       -0.0003
     25 C           2.6518    0.6854   38.4102 C.ar    1  UNL1       -0.0024
     26 C           7.4463   -4.0040   28.8885 C.3     1  UNL1        0.0795
     27 C           6.5784   -4.1446   27.6732 C.3     1  UNL1        0.0264
     28 C           7.1331   -3.8312   26.3152 C.3     1  UNL1        0.0729
     29 N           8.5555   -3.3772   26.1725 N.3     1  UNL1       -0.2689
     30 C           9.4235   -3.2365   27.3879 C.3     1  UNL1        0.0729
     31 C           8.8688   -3.5499   28.7459 C.3     1  UNL1        0.0264
     32 C           9.1102   -3.0638   24.8145 C.3     1  UNL1        0.0992
     33 C           8.8524   -3.9937   23.6662 C.ar    1  UNL1       -0.0031
     34 C           8.1850   -3.4837   22.4234 C.ar    1  UNL1        0.0178
     35 C           7.9272   -4.4135   21.2750 C.ar    1  UNL1        0.0986
     36 N           8.3368   -5.8534   21.3693 N.ar    1  UNL1       -0.2423
     37 C           9.0042   -6.3635   22.6121 C.ar    1  UNL1        0.0986
     38 C           9.2620   -5.4336   23.7605 C.ar    1  UNL1        0.0178
@<TRIPOS>BOND
     1     1     2    2
     2     2    26    1
     3    26    27    1
     4    27    28    1
     5    28    29    1
     6    29    32    1
     7    32    33    1
     8    33    34   ar
     9    34    35   ar
    10    35    36   ar
    11    36    37   ar
    12    37    38   ar
    13    29    30    1
    14    30    31    1
    15     2     3   am
    16     3     4    1
    17     4     5    1
    18     5     6    1
    19     6     9    1
    20     9    10   ar
    21    10    11    2
    22    10    12   ar
    23    12    19    1
    24    19    20    1
    25    20    21   ar
    26    21    22   ar
    27    22    23   ar
    28    23    24   ar
    29    24    25   ar
    30    12    13   ar
    31    13    14   ar
    32    14    15   ar
    33    15    16   ar
    34    16    17   ar
    35    17    18   ar
    36     6     7    1
    37     7     8    1
    38    31    26    1
    39     8     3    1
    40    38    33   ar
    41    18     9   ar
    42    25    20   ar
    43    18    13   ar
@<TRIPOS>MOLECULE
*****
 38 43 0 0 0
SMALL
GASTEIGER

@<TRIPOS>ATOM
      1 O           9.3545   -1.7464   20.2494 O.2     1  UNL1       -0.2749
      2 C           8.0200   -2.0543   20.8610 C.2     1  UNL1        0.2252
      3 N           7.9451   -2.7837   22.1696 N.am    1  UNL1       -0.2794
      4 C           9.2047   -3.2052   22.8664 C.3     1  UNL1        0.0953
      5 C           9.1299   -3.9347   24.1750 C.3     1  UNL1        0.0442
      6 C           7.7953   -4.2426   24.7867 C.3     1  UNL1        0.0933
      7 C           6.5357   -3.8211   24.0899 C.3     1  UNL1        0.0442
      8 C           6.6106   -3.0917   22.7813 C.3     1  UNL1        0.0953
      9 N           7.7204   -4.9720   26.0953 N.ar    1  UNL1       -0.2817
     10 C           7.0516   -4.4773   27.3435 C.ar    1  UNL1        0.3317
     11 O           6.3404   -3.1662   27.5023 O.2     1  UNL1       -0.2463
     12 N           7.2191   -5.5238   28.4050 N.ar    1  UNL1       -0.2758
     13 C           7.9913   -6.6653   27.8129 C.ar    1  UNL1        0.0800
     14 C           8.4524   -7.9712   28.3891 C.ar    1  UNL1        0.0188
     15 C           9.2233   -8.9361   27.5378 C.ar    1  UNL1        0.0016
     16 C           9.5331   -8.5951   26.1103 C.ar    1  UNL1        0.0016
     17 C           9.0720   -7.2892   25.5341 C.ar    1  UNL1        0.0188
     18 C           8.3011   -6.3243   26.3854 C.ar    1  UNL1        0.0796
     19 C           6.7047   -5.4430   29.8117 C.3     1  UNL1        0.1373
     20 C           7.3157   -4.4731   30.7792 C.ar    1  UNL1        0.0005
     21 C           8.7969   -4.4822   31.0157 C.ar    1  UNL1       -0.0024
     22 C           9.4080   -3.5124   31.9832 C.ar    1  UNL1       -0.0003
     23 C           8.5378   -2.5334   32.7141 C.ar    1  UNL1       -0.0000
     24 C           7.0566   -2.5242   32.4776 C.ar    1  UNL1       -0.0003
     25 C           6.4455   -3.4941   31.5102 C.ar    1  UNL1       -0.0024
     26 C           6.7603   -1.6328   20.1642 C.3     1  UNL1        0.0795
     27 C           6.0850   -2.5678   19.2051 C.3     1  UNL1        0.0264
     28 C           4.8253   -2.1463   18.5083 C.3     1  UNL1        0.0729
     29 N           4.2410   -0.7899   18.7704 N.3     1  UNL1       -0.2689
     30 C           4.9164    0.1451   19.7296 C.3     1  UNL1        0.0729
     31 C           6.1761   -0.2764   20.4264 C.3     1  UNL1        0.0264
     32 C           2.9814   -0.3684   18.0736 C.3     1  UNL1        0.0992
     33 C           1.8749    0.2801   18.8514 C.ar    1  UNL1       -0.0031
     34 C           1.2731   -0.4261   20.0301 C.ar    1  UNL1        0.0178
     35 C           0.1665    0.2223   20.8080 C.ar    1  UNL1        0.0986
     36 N          -0.3382    1.5768   20.4073 N.ar    1  UNL1       -0.2423
     37 C           0.2636    2.2829   19.2286 C.ar    1  UNL1        0.0986
     38 C           1.3702    1.6346   18.4507 C.ar    1  UNL1        0.0178
@<TRIPOS>BOND
     1     1     2    2
     2     2    26    1
     3    26    27    1
     4    27    28    1
     5    28    29    1
     6    29    32    1
     7    32    33    1
     8    33    34   ar
     9    34    35   ar
    10    35    36   ar
    11    36    37   ar
    12    37    38   ar
    13    29    30    1
    14    30    31    1
    15     2     3   am
    16     3     4    1
    17     4     5    1
    18     5     6    1
    19     6     9    1
    20     9    10   ar
    21    10    11    2
    22    10    12   ar
    23    12    19    1
    24    19    20    1
    25    20    21   ar
    26    21    22   ar
    27    22    23   ar
    28    23    24   ar
    29    24    25   ar
    30    12    13   ar
    31    13    14   ar
    32    14    15   ar
    33    15    16   ar
    34    16    17   ar
    35    17    18   ar
    36     6     7    1
    37     7     8    1
    38    31    26    1
    39     8     3    1
    40    38    33   ar
    41    18     9   ar
    42    25    20   ar
    43    18    13   ar
@<TRIPOS>MOLECULE
*****
 38 43 0 0 0
SMALL
GASTEIGER

@<TRIPOS>ATOM
      1 O           6.7545   -5.3825   32.0812 O.2     1  UNL1       -0.2749
      2 C           6.6083   -4.0091   31.4960 C.2     1  UNL1        0.2252
      3 N           6.5342   -3.8319   30.0084 N.am    1  UNL1       -0.2794
      4 C           6.6063   -5.0280   29.1060 C.3     1  UNL1        0.0953
      5 C           6.5322   -4.8507   27.6184 C.3     1  UNL1        0.0442
      6 C           6.3860   -3.4773   27.0330 C.3     1  UNL1        0.0933
      7 C           6.3139   -2.2814   27.9354 C.3     1  UNL1        0.0442
      8 C           6.3879   -2.4586   29.4230 C.3     1  UNL1        0.0953
      9 N           6.3119   -3.3001   25.5454 N.ar    1  UNL1       -0.2817
     10 C           7.2025   -3.9583   24.5336 C.ar    1  UNL1        0.3317
     11 O           8.3235   -4.9092   24.8318 O.2     1  UNL1       -0.2463
     12 N           6.7752   -3.4985   23.1713 N.ar    1  UNL1       -0.2758
     13 C           5.6205   -2.5562   23.3410 C.ar    1  UNL1        0.0800
     14 C           4.7929   -1.7940   22.3491 C.ar    1  UNL1        0.0188
     15 C           3.6789   -0.9091   22.8245 C.ar    1  UNL1        0.0016
     16 C           3.3925   -0.7865   24.2918 C.ar    1  UNL1        0.0016
     17 C           4.2202   -1.5487   25.2837 C.ar    1  UNL1        0.0188
     18 C           5.3342   -2.4336   24.8083 C.ar    1  UNL1        0.0796
     19 C           7.3939   -3.9090   21.8679 C.3     1  UNL1        0.1373
     20 C           6.7338   -3.5353   20.5737 C.ar    1  UNL1        0.0005
     21 C           7.2809   -2.4065   19.7512 C.ar    1  UNL1       -0.0024
     22 C           6.6210   -2.0329   18.4571 C.ar    1  UNL1       -0.0003
     23 C           5.4138   -2.7881   17.9855 C.ar    1  UNL1       -0.0000
     24 C           4.8667   -3.9169   18.8080 C.ar    1  UNL1       -0.0003
     25 C           5.5267   -4.2905   20.1021 C.ar    1  UNL1       -0.0024
     26 C           6.5361   -2.8131   32.3983 C.3     1  UNL1        0.0795
     27 C           7.7810   -2.0411   32.7213 C.3     1  UNL1        0.0264
     28 C           7.7088   -0.8450   33.6237 C.3     1  UNL1        0.0729
     29 N           6.3918   -0.4209   34.2030 N.3     1  UNL1       -0.2689
     30 C           5.1469   -1.1929   33.8799 C.3     1  UNL1        0.0729
     31 C           5.2190   -2.3890   32.9776 C.3     1  UNL1        0.0264
     32 C           6.3197    0.7751   35.1053 C.3     1  UNL1        0.0992
     33 C           5.0181    1.1520   35.7486 C.ar    1  UNL1       -0.0031
     34 C           4.0835    2.0967   35.0528 C.ar    1  UNL1        0.0178
     35 C           2.7819    2.4736   35.6960 C.ar    1  UNL1        0.0986
     36 N           2.4149    1.9058   37.0350 N.ar    1  UNL1       -0.2423
     37 C           3.3495    0.9611   37.7308 C.ar    1  UNL1        0.0986
     38 C           4.6511    0.5842   37.0876 C.ar    1  UNL1        0.0178
@<TRIPOS>BOND
     1     1     2    2
     2     2    26    1
     3    26    27    1
     4    27    28    1
     5    28    29    1
     6    29    32    1
     7    32    33    1
     8    33    34   ar
     9    34    35   ar
    10    35    36   ar
    11    36    37   ar
    12    37    38   ar
    13    29    30    1
    14    30    31    1
    15     2     3   am
    16     3     4    1
    17     4     5    1
    18     5     6    1
    19     6     9    1
    20     9    10   ar
    21    10    11    2
    22    10    12   ar
    23    12    19    1
    24    19    20    1
    25    20    21   ar
    26    21    22   ar
    27    22    23   ar
    28    23    24   ar
    29    24    25   ar
    30    12    13   ar
    31    13    14   ar
    32    14    15   ar
    33    15    16   ar
    34    16    17   ar
    35    17    18   ar
    36     6     7    1
    37     7     8    1
    38    31    26    1
    39     8     3    1
    40    38    33   ar
    41    18     9   ar
    42    25    20   ar
    43    18    13   ar
@<TRIPOS>MOLECULE
*****
 38 43 0 0 0
SMALL
GASTEIGER

@<TRIPOS>ATOM
      1 O           9.5353   -7.1950   26.5087 O.2     1  UNL1       -0.2749
      2 C           8.7114   -5.9471   26.6263 C.2     1  UNL1        0.2252
      3 N           8.2171   -5.2556   25.3905 N.am    1  UNL1       -0.2794
      4 C           8.5465   -5.8121   24.0370 C.3     1  UNL1        0.0953
      5 C           8.0521   -5.1206   22.8011 C.3     1  UNL1        0.0442
      6 C           7.2282   -3.8725   22.9187 C.3     1  UNL1        0.0933
      7 C           6.8988   -3.3162   24.2721 C.3     1  UNL1        0.0442
      8 C           7.3932   -4.0077   25.5080 C.3     1  UNL1        0.0953
      9 N           6.7338   -3.1810   21.6828 N.ar    1  UNL1       -0.2817
     10 C           5.4118   -3.4115   21.0126 C.ar    1  UNL1        0.3317
     11 O           4.3521   -4.3740   21.4606 O.2     1  UNL1       -0.2463
     12 N           5.3356   -2.5106   19.8157 N.ar    1  UNL1       -0.2758
     13 C           6.6105   -1.7233   19.7463 C.ar    1  UNL1        0.0800
     14 C           7.0962   -0.6826   18.7813 C.ar    1  UNL1        0.0188
     15 C           8.4460   -0.0563   18.9704 C.ar    1  UNL1        0.0016
     16 C           9.3101   -0.4707   20.1243 C.ar    1  UNL1        0.0016
     17 C           8.8245   -1.5114   21.0892 C.ar    1  UNL1        0.0188
     18 C           7.4747   -2.1377   20.9002 C.ar    1  UNL1        0.0796
     19 C           4.1863   -2.4139   18.8567 C.3     1  UNL1        0.1373
     20 C           3.2003   -1.2900   18.9786 C.ar    1  UNL1        0.0005
     21 C           3.2982   -0.1041   18.0653 C.ar    1  UNL1       -0.0024
     22 C           2.3123    1.0198   18.1871 C.ar    1  UNL1       -0.0003
     23 C           1.2284    0.9577   19.2223 C.ar    1  UNL1       -0.0000
     24 C           1.1306   -0.2282   20.1355 C.ar    1  UNL1       -0.0003
     25 C           2.1165   -1.3521   20.0137 C.ar    1  UNL1       -0.0024
     26 C           8.3820   -5.3906   27.9798 C.3     1  UNL1        0.0795
     27 C           7.2151   -5.9337   28.7502 C.3     1  UNL1        0.0264
     28 C           6.8857   -5.3772   30.1036 C.3     1  UNL1        0.0729
     29 N           7.7231   -4.2777   30.6866 N.3     1  UNL1       -0.2689
     30 C           8.8900   -3.7347   29.9162 C.3     1  UNL1        0.0729
     31 C           9.2195   -4.2911   28.5627 C.3     1  UNL1        0.0264
     32 C           7.3936   -3.7212   32.0401 C.3     1  UNL1        0.0992
     33 C           6.5007   -2.5221   32.1609 C.ar    1  UNL1       -0.0031
     34 C           5.1532   -2.6525   32.8070 C.ar    1  UNL1        0.0178
     35 C           4.2602   -1.4534   32.9279 C.ar    1  UNL1        0.0986
     36 N           4.7147   -0.1238   32.4028 N.ar    1  UNL1       -0.2423
     37 C           6.0622    0.0066   31.7567 C.ar    1  UNL1        0.0986
     38 C           6.9551   -1.1925   31.6358 C.ar    1  UNL1        0.0178
@<TRIPOS>BOND
     1     1     2    2
     2     2    26    1
     3    26    27    1
     4    27    28    1
     5    28    29    1
     6    29    32    1
     7    32    33    1
     8    33    34   ar
     9    34    35   ar
    10    35    36   ar
    11    36    37   ar
    12    37    38   ar
    13    29    30    1
    14    30    31    1
    15     2     3   am
    16     3     4    1
    17     4     5    1
    18     5     6    1
    19     6     9    1
    20     9    10   ar
    21    10    11    2
    22    10    12   ar
    23    12    19    1
    24    19    20    1
    25    20    21   ar
    26    21    22   ar
    27    22    23   ar
    28    23    24   ar
    29    24    25   ar
    30    12    13   ar
    31    13    14   ar
    32    14    15   ar
    33    15    16   ar
    34    16    17   ar
    35    17    18   ar
    36     6     7    1
    37     7     8    1
    38    31    26    1
    39     8     3    1
    40    38    33   ar
    41    18     9   ar
    42    25    20   ar
    43    18    13   ar
@<TRIPOS>MOLECULE
*****
 38 43 0 0 0
SMALL
GASTEIGER

@<TRIPOS>ATOM
      1 O           5.4591   -3.0845   17.8289 O.2     1  UNL1       -0.2749
      2 C           5.2886   -2.3278   19.1128 C.2     1  UNL1        0.2252
      3 N           4.3463   -1.1624   19.1769 N.am    1  UNL1       -0.2794
      4 C           3.5746   -0.7539   17.9573 C.3     1  UNL1        0.0953
      5 C           2.6323    0.4115   18.0215 C.3     1  UNL1        0.0442
      6 C           2.4618    1.1683   19.3054 C.3     1  UNL1        0.0933
      7 C           3.2335    0.7597   20.5249 C.3     1  UNL1        0.0442
      8 C           4.1758   -0.4057   20.4608 C.3     1  UNL1        0.0953
      9 N           1.5195    2.3336   19.3696 N.ar    1  UNL1       -0.2817
     10 C           0.2208    2.3771   20.1189 C.ar    1  UNL1        0.3317
     11 O          -0.3637    1.2629   20.9355 O.2     1  UNL1       -0.2463
     12 N          -0.3908    3.7305   19.9081 N.ar    1  UNL1       -0.2758
     13 C           0.5300    4.5234   19.0286 C.ar    1  UNL1        0.0800
     14 C           0.4458    5.9199   18.4878 C.ar    1  UNL1        0.0188
     15 C           1.5423    6.4532   17.6141 C.ar    1  UNL1        0.0016
     16 C           2.7230    5.5899   17.2813 C.ar    1  UNL1        0.0016
     17 C           2.8071    4.1933   17.8221 C.ar    1  UNL1        0.0188
     18 C           1.7106    3.6601   18.6958 C.ar    1  UNL1        0.0796
     19 C          -1.6943    4.2072   20.4770 C.3     1  UNL1        0.1373
     20 C          -2.9729    3.9589   19.7329 C.ar    1  UNL1        0.0005
     21 C          -3.0087    4.0889   18.2389 C.ar    1  UNL1       -0.0024
     22 C          -4.2872    3.8407   17.4948 C.ar    1  UNL1       -0.0003
     23 C          -5.5300    3.4624   18.2447 C.ar    1  UNL1       -0.0000
     24 C          -5.4943    3.3325   19.7387 C.ar    1  UNL1       -0.0003
     25 C          -4.2158    3.5807   20.4828 C.ar    1  UNL1       -0.0024
     26 C           6.0603   -2.7363   20.3324 C.3     1  UNL1        0.0795
     27 C           7.5058   -2.3588   20.4666 C.3     1  UNL1        0.0264
     28 C           8.2775   -2.7674   21.6862 C.3     1  UNL1        0.0729
     29 N           7.6038   -3.5535   22.7716 N.3     1  UNL1       -0.2689
     30 C           6.1582   -3.9310   22.6374 C.3     1  UNL1        0.0729
     31 C           5.3865   -3.5225   21.4178 C.3     1  UNL1        0.0264
     32 C           8.3755   -3.9620   23.9912 C.3     1  UNL1        0.0992
     33 C           7.9715   -5.1853   24.7596 C.ar    1  UNL1       -0.0031
     34 C           8.4210   -6.5410   24.3015 C.ar    1  UNL1        0.0178
     35 C           8.0171   -7.7643   25.0698 C.ar    1  UNL1        0.0986
     36 N           7.1635   -7.6319   26.2962 N.ar    1  UNL1       -0.2423
     37 C           6.7140   -6.2761   26.7542 C.ar    1  UNL1        0.0986
     38 C           7.1180   -5.0528   25.9859 C.ar    1  UNL1        0.0178
@<TRIPOS>BOND
     1     1     2    2
     2     2    26    1
     3    26    27    1
     4    27    28    1
     5    28    29    1
     6    29    32    1
     7    32    33    1
     8    33    34   ar
     9    34    35   ar
    10    35    36   ar
    11    36    37   ar
    12    37    38   ar
    13    29    30    1
    14    30    31    1
    15     2     3   am
    16     3     4    1
    17     4     5    1
    18     5     6    1
    19     6     9    1
    20     9    10   ar
    21    10    11    2
    22    10    12   ar
    23    12    19    1
    24    19    20    1
    25    20    21   ar
    26    21    22   ar
    27    22    23   ar
    28    23    24   ar
    29    24    25   ar
    30    12    13   ar
    31    13    14   ar
    32    14    15   ar
    33    15    16   ar
    34    16    17   ar
    35    17    18   ar
    36     6     7    1
    37     7     8    1
    38    31    26    1
    39     8     3    1
    40    38    33   ar
    41    18     9   ar
    42    25    20   ar
    43    18    13   ar
@<TRIPOS>MOLECULE
*****
 38 43 0 0 0
SMALL
GASTEIGER

@<TRIPOS>ATOM
      1 O           6.7864   -3.0116   31.0249 O.2     1  UNL1       -0.2749
      2 C           5.8648   -1.8566   31.2826 C.2     1  UNL1        0.2252
      3 N           5.1199   -1.2233   30.1450 N.am    1  UNL1       -0.2794
      4 C           5.2967   -1.7450   28.7499 C.3     1  UNL1        0.0953
      5 C           4.5518   -1.1117   27.6123 C.3     1  UNL1        0.0442
      6 C           3.6301    0.0434   27.8699 C.3     1  UNL1        0.0933
      7 C           3.4534    0.5651   29.2650 C.3     1  UNL1        0.0442
      8 C           4.1983   -0.0682   30.4026 C.3     1  UNL1        0.0953
      9 N           2.8852    0.6767   26.7323 N.ar    1  UNL1       -0.2817
     10 C           3.4221    0.9183   25.3527 C.ar    1  UNL1        0.3317
     11 O           4.7981    0.5690   24.8684 O.2     1  UNL1       -0.2463
     12 N           2.3413    1.5705   24.5424 N.ar    1  UNL1       -0.2758
     13 C           1.1365    1.7320   25.4213 C.ar    1  UNL1        0.0800
     14 C          -0.2232    2.3107   25.1640 C.ar    1  UNL1        0.0188
     15 C          -1.2468    2.3370   26.2601 C.ar    1  UNL1        0.0016
     16 C          -0.9106    1.7846   27.6136 C.ar    1  UNL1        0.0016
     17 C           0.4491    1.2059   27.8709 C.ar    1  UNL1        0.0188
     18 C           1.4726    1.1796   26.7747 C.ar    1  UNL1        0.0796
     19 C           2.4468    1.9880   23.1056 C.3     1  UNL1        0.1373
     20 C           2.0821    1.0238   22.0157 C.ar    1  UNL1        0.0005
     21 C           0.8009    1.2003   21.2560 C.ar    1  UNL1       -0.0024
     22 C           0.4362    0.2363   20.1662 C.ar    1  UNL1       -0.0003
     23 C           1.3529   -0.9043   19.8362 C.ar    1  UNL1       -0.0000
     24 C           2.6341   -1.0807   20.5959 C.ar    1  UNL1       -0.0003
     25 C           2.9988   -0.1167   21.6857 C.ar    1  UNL1       -0.0024
     26 C           5.6881   -1.3348   32.6778 C.3     1  UNL1        0.0795
     27 C           6.6920   -0.3812   33.2546 C.3     1  UNL1        0.0264
     28 C           6.5153    0.1406   34.6498 C.3     1  UNL1        0.0729
     29 N           5.3347   -0.2912   35.4681 N.3     1  UNL1       -0.2689
     30 C           4.3307   -1.2449   34.8912 C.3     1  UNL1        0.0729
     31 C           4.5074   -1.7667   33.4960 C.3     1  UNL1        0.0264
     32 C           5.1579    0.2305   36.8632 C.3     1  UNL1        0.0992
     33 C           4.0016    1.1294   37.1870 C.ar    1  UNL1       -0.0031
     34 C           3.5824    2.1918   36.2146 C.ar    1  UNL1        0.0178
     35 C           2.4260    3.0907   36.5382 C.ar    1  UNL1        0.0986
     36 N           1.6889    2.9273   37.8344 N.ar    1  UNL1       -0.2423
     37 C           2.1082    1.8649   38.8068 C.ar    1  UNL1        0.0986
     38 C           3.2645    0.9660   38.4831 C.ar    1  UNL1        0.0178
@<TRIPOS>BOND
     1     1     2    2
     2     2    26    1
     3    26    27    1
     4    27    28    1
     5    28    29    1
     6    29    32    1
     7    32    33    1
     8    33    34   ar
     9    34    35   ar
    10    35    36   ar
    11    36    37   ar
    12    37    38   ar
    13    29    30    1
    14    30    31    1
    15     2     3   am
    16     3     4    1
    17     4     5    1
    18     5     6    1
    19     6     9    1
    20     9    10   ar
    21    10    11    2
    22    10    12   ar
    23    12    19    1
    24    19    20    1
    25    20    21   ar
    26    21    22   ar
    27    22    23   ar
    28    23    24   ar
    29    24    25   ar
    30    12    13   ar
    31    13    14   ar
    32    14    15   ar
    33    15    16   ar
    34    16    17   ar
    35    17    18   ar
    36     6     7    1
    37     7     8    1
    38    31    26    1
    39     8     3    1
    40    38    33   ar
    41    18     9   ar
    42    25    20   ar
    43    18    13   ar
@<TRIPOS>MOLECULE
*****
 38 43 0 0 0
SMALL
GASTEIGER

@<TRIPOS>ATOM
      1 O          -0.0576    0.7967   27.1204 O.2     1  UNL1       -0.2749
      2 C           1.2970    0.8661   27.7607 C.2     1  UNL1        0.2252
      3 N           1.4381    1.3785   29.1634 N.am    1  UNL1       -0.2794
      4 C           0.2246    1.8216   29.9257 C.3     1  UNL1        0.0953
      5 C           0.3657    2.3341   31.3283 C.3     1  UNL1        0.0442
      6 C           1.7204    2.4034   31.9688 C.3     1  UNL1        0.0933
      7 C           2.9338    1.9604   31.2065 C.3     1  UNL1        0.0442
      8 C           2.7927    1.4479   29.8039 C.3     1  UNL1        0.0953
      9 N           1.8615    2.9159   33.3715 N.ar    1  UNL1       -0.2817
     10 C           2.6359    2.2600   34.4761 C.ar    1  UNL1        0.3317
     11 O           3.4052    0.9765   34.3719 O.2     1  UNL1       -0.2463
     12 N           2.5059    3.1130   35.7030 N.ar    1  UNL1       -0.2758
     13 C           1.6511    4.2960   35.3568 C.ar    1  UNL1        0.0800
     14 C           1.1841    5.4684   36.1675 C.ar    1  UNL1        0.0188
     15 C           0.3187    6.5190   35.5372 C.ar    1  UNL1        0.0016
     16 C          -0.0796    6.3972   34.0962 C.ar    1  UNL1        0.0016
     17 C           0.3875    5.2248   33.2855 C.ar    1  UNL1        0.0188
     18 C           1.2528    4.1742   33.9158 C.ar    1  UNL1        0.0796
     19 C           3.1224    2.8323   37.0414 C.3     1  UNL1        0.1373
     20 C           2.3135    2.1665   38.1150 C.ar    1  UNL1        0.0005
     21 C           1.2494    2.9368   38.8389 C.ar    1  UNL1       -0.0024
     22 C           0.4405    2.2711   39.9124 C.ar    1  UNL1       -0.0003
     23 C           0.6958    0.8350   40.2621 C.ar    1  UNL1       -0.0000
     24 C           1.7600    0.0646   39.5382 C.ar    1  UNL1       -0.0003
     25 C           2.5689    0.7303   38.4646 C.ar    1  UNL1       -0.0024
     26 C           2.5105    0.4230   26.9985 C.3     1  UNL1        0.0795
     27 C           3.0498    1.2734   25.8868 C.3     1  UNL1        0.0264
     28 C           4.2633    0.8304   25.1245 C.3     1  UNL1        0.0729
     29 N           4.9376   -0.4632   25.4740 N.3     1  UNL1       -0.2689
     30 C           4.3983   -1.3137   26.5858 C.3     1  UNL1        0.0729
     31 C           3.1848   -0.8706   27.3481 C.3     1  UNL1        0.0264
     32 C           6.1511   -0.9063   24.7118 C.3     1  UNL1        0.0992
     33 C           6.0626   -2.0728   23.7730 C.ar    1  UNL1       -0.0031
     34 C           4.7338   -2.4851   23.2124 C.ar    1  UNL1        0.0178
     35 C           4.6453   -3.6517   22.2736 C.ar    1  UNL1        0.0986
     36 N           5.8855   -4.4059   21.8955 N.ar    1  UNL1       -0.2423
     37 C           7.2143   -3.9935   22.4561 C.ar    1  UNL1        0.0986
     38 C           7.3029   -2.8270   23.3949 C.ar    1  UNL1        0.0178
@<TRIPOS>BOND
     1     1     2    2
     2     2    26    1
     3    26    27    1
     4    27    28    1
     5    28    29    1
     6    29    32    1
     7    32    33    1
     8    33    34   ar
     9    34    35   ar
    10    35    36   ar
    11    36    37   ar
    12    37    38   ar
    13    29    30    1
    14    30    31    1
    15     2     3   am
    16     3     4    1
    17     4     5    1
    18     5     6    1
    19     6     9    1
    20     9    10   ar
    21    10    11    2
    22    10    12   ar
    23    12    19    1
    24    19    20    1
    25    20    21   ar
    26    21    22   ar
    27    22    23   ar
    28    23    24   ar
    29    24    25   ar
    30    12    13   ar
    31    13    14   ar
    32    14    15   ar
    33    15    16   ar
    34    16    17   ar
    35    17    18   ar
    36     6     7    1
    37     7     8    1
    38    31    26    1
    39     8     3    1
    40    38    33   ar
    41    18     9   ar
    42    25    20   ar
    43    18    13   ar
