@<TRIPOS>MOLECULE
*****
 39 43 0 0 0
SMALL
GASTEIGER

@<TRIPOS>ATOM
      1 C           6.6554   -2.2579   32.5167 C.3     1  UNL1        0.0453
      2 C           5.3542   -1.9589   33.2004 C.3     1  UNL1        0.0275
      3 C           5.2728   -0.8479   34.2050 C.3     1  UNL1        0.0941
      4 N           6.4926   -0.0361   34.5259 N.am    1  UNL1       -0.2760
      5 C           6.4112    1.0748   35.5305 C.2     1  UNL1        0.2502
      6 O           7.6311    1.8868   35.8514 O.2     1  UNL1       -0.2699
      7 C           7.7938   -0.3351   33.8422 C.3     1  UNL1        0.0941
      8 C           7.8752   -1.4460   32.8376 C.3     1  UNL1        0.0275
      9 C           5.9152   -2.5373   27.1666 C.ar    1  UNL1        0.0689
     10 C           5.8338   -1.4264   28.1712 C.ar    1  UNL1        0.1134
     11 N           6.1076   -1.7036   29.6196 N.ar    1  UNL1       -0.2398
     12 C           6.4629   -3.0917   30.0635 C.ar    1  UNL1        0.1125
     13 C           6.7368   -3.3688   31.5121 C.ar    1  UNL1        0.0795
     14 N           7.0920   -4.7569   31.9560 N.ar    1  UNL1       -0.2268
     15 C           7.1734   -5.8678   30.9513 C.ar    1  UNL1        0.1986
     16 N           6.8996   -5.5906   29.5028 N.ar    1  UNL1       -0.2224
     17 C           6.5443   -4.2026   29.0589 C.ar    1  UNL1        0.1031
     18 C           6.2704   -3.9254   27.6105 C.ar    1  UNL1        0.0368
     19 C           4.8196   -1.4287   21.3725 C.3     1  UNL1        0.0897
     20 N           5.0935   -1.7058   22.8210 N.3     1  UNL1       -0.2686
     21 C           6.3149   -2.4807   23.2185 C.3     1  UNL1        0.0938
     22 C           6.5887   -2.7578   24.6670 C.3     1  UNL1        0.1082
     23 N           5.6413   -2.2601   25.7180 N.pl3   1  UNL1       -0.3034
     24 C           4.4200   -1.4853   25.3205 C.3     1  UNL1        0.1082
     25 C           4.1461   -1.2081   23.8721 C.3     1  UNL1        0.0938
     26 C           5.1101    1.3739   36.2142 C.ar    1  UNL1        0.0666
     27 C           4.8111    0.7706   37.5546 C.ar    1  UNL1        0.0089
     28 C           3.5100    1.0697   38.2383 C.ar    1  UNL1        0.0374
     29 C           2.5077    1.9720   37.5817 C.ar    1  UNL1        0.1480
     30 C           2.8066    2.5753   36.2412 C.ar    1  UNL1        0.0514
     31 C           4.1078    2.2763   35.5575 C.ar    1  UNL1        0.0489
     32 N           4.4067    2.8796   34.2171 N.pl3   1  UNL1       -0.3568
     33 H           3.7489    3.4718   33.7861 H       1  UNL1        0.1424
     34 H           5.2607    2.6833   33.7684 H       1  UNL1        0.1424
     35 O           1.2065    2.2711   38.2654 O.3     1  UNL1       -0.4044
     36 C           0.8826    1.6219   39.5783 C.3     1  UNL1        0.5753
     37 F           0.5587    0.9728   40.8912 F       1  UNL1       -0.1328
     38 F           0.3651    0.4148   38.8538 F       1  UNL1       -0.1328
     39 F           1.4002    2.8291   40.3028 F       1  UNL1       -0.1328
@<TRIPOS>BOND
     1    19    20    1
     2    20    21    1
     3    21    22    1
     4    22    23    1
     5    23     9    1
     6     9    10   ar
     7    10    11   ar
     8    11    12   ar
     9    12    13   ar
    10    13     1    1
    11     1     2    1
    12     2     3    1
    13     3     4    1
    14     4     5   am
    15     5     6    2
    16     5    26    1
    17    26    27   ar
    18    27    28   ar
    19    28    29   ar
    20    29    35    1
    21    35    36    1
    22    36    37    1
    23    36    38    1
    24    36    39    1
    25    29    30   ar
    26    30    31   ar
    27    31    32    1
    28     4     7    1
    29     7     8    1
    30    13    14   ar
    31    14    15   ar
    32    15    16   ar
    33    16    17   ar
    34    17    18   ar
    35    23    24    1
    36    24    25    1
    37    25    20    1
    38    18     9   ar
    39    17    12   ar
    40     8     1    1
    41    31    26   ar
    42    32    33    1
    43    32    34    1
@<TRIPOS>MOLECULE
*****
 39 43 0 0 0
SMALL
GASTEIGER

@<TRIPOS>ATOM
      1 C           2.7057   -0.5889   19.5476 C.3     1  UNL1        0.0453
      2 C           1.2628   -0.2910   19.8292 C.3     1  UNL1        0.0275
      3 C           0.6771    1.0297   19.4256 C.3     1  UNL1        0.0941
      4 N           1.5342    2.0523   18.7405 N.am    1  UNL1       -0.2760
      5 C           0.9484    3.3729   18.3370 C.2     1  UNL1        0.2502
      6 O           1.8055    4.3957   17.6519 O.2     1  UNL1       -0.2699
      7 C           2.9771    1.7545   18.4589 C.3     1  UNL1        0.0941
      8 C           3.5629    0.4339   18.8624 C.3     1  UNL1        0.0275
      9 C           5.0890   -2.4168   24.0451 C.ar    1  UNL1        0.0689
     10 C           4.5032   -1.0962   23.6416 C.ar    1  UNL1        0.1134
     11 N           3.9041   -0.9271   22.2770 N.ar    1  UNL1       -0.2398
     12 C           3.8907   -2.0786   21.3158 C.ar    1  UNL1        0.1125
     13 C           3.2915   -1.9095   19.9511 C.ar    1  UNL1        0.0795
     14 N           3.2782   -3.0610   18.9899 N.ar    1  UNL1       -0.2268
     15 C           3.8640   -4.3816   19.3934 C.ar    1  UNL1        0.1986
     16 N           4.4632   -4.5507   20.7581 N.ar    1  UNL1       -0.2224
     17 C           4.4765   -3.3992   21.7193 C.ar    1  UNL1        0.1031
     18 C           5.0757   -3.5683   23.0840 C.ar    1  UNL1        0.0368
     19 C           7.4858   -3.0934   29.5039 C.3     1  UNL1        0.0897
     20 N           6.8866   -2.9242   28.1393 N.3     1  UNL1       -0.2686
     21 C           5.8276   -1.8874   27.9084 C.3     1  UNL1        0.0938
     22 C           5.2284   -1.7182   26.5437 C.3     1  UNL1        0.1082
     23 N           5.6882   -2.5859   25.4099 N.pl3   1  UNL1       -0.3034
     24 C           6.7473   -3.6228   25.6407 C.3     1  UNL1        0.1082
     25 C           7.3465   -3.7920   27.0054 C.3     1  UNL1        0.0938
     26 C          -0.4945    3.6708   18.6187 C.ar    1  UNL1        0.0666
     27 C          -0.9991    3.6679   20.0312 C.ar    1  UNL1        0.0089
     28 C          -2.4420    3.9658   20.3128 C.ar    1  UNL1        0.0374
     29 C          -3.3803    4.2666   19.1819 C.ar    1  UNL1        0.1480
     30 C          -2.8757    4.2695   17.7692 C.ar    1  UNL1        0.0514
     31 C          -1.4328    3.9717   17.4876 C.ar    1  UNL1        0.0489
     32 N          -0.9282    3.9746   16.0751 N.pl3   1  UNL1       -0.3568
     33 H          -1.5441    4.1720   15.3328 H       1  UNL1        0.1424
     34 H           0.0188    3.7791   15.8903 H       1  UNL1        0.1424
     35 O          -4.8232    4.5645   19.4635 O.3     1  UNL1       -0.4044
     36 C          -5.8854    3.5915   19.0453 C.3     1  UNL1        0.5753
     37 F          -6.9476    2.6184   18.6272 F       1  UNL1       -0.1328
     38 F          -6.2189    4.4608   17.8694 F       1  UNL1       -0.1328
     39 F          -5.5519    2.7221   20.2213 F       1  UNL1       -0.1328
@<TRIPOS>BOND
     1    19    20    1
     2    20    21    1
     3    21    22    1
     4    22    23    1
     5    23     9    1
     6     9    10   ar
     7    10    11   ar
     8    11    12   ar
     9    12    13   ar
    10    13     1    1
    11     1     2    1
    12     2     3    1
    13     3     4    1
    14     4     5   am
    15     5     6    2
    16     5    26    1
    17    26    27   ar
    18    27    28   ar
    19    28    29   ar
    20    29    35    1
    21    35    36    1
    22    36    37    1
    23    36    38    1
    24    36    39    1
    25    29    30   ar
    26    30    31   ar
    27    31    32    1
    28     4     7    1
    29     7     8    1
    30    13    14   ar
    31    14    15   ar
    32    15    16   ar
    33    16    17   ar
    34    17    18   ar
    35    23    24    1
    36    24    25    1
    37    25    20    1
    38    18     9   ar
    39    17    12   ar
    40     8     1    1
    41    31    26   ar
    42    32    33    1
    43    32    34    1
@<TRIPOS>MOLECULE
*****
 39 43 0 0 0
SMALL
GASTEIGER

@<TRIPOS>ATOM
      1 C           7.6250   -4.9440   23.4911 C.3     1  UNL1        0.0453
      2 C           6.3474   -4.2883   23.0575 C.3     1  UNL1        0.0275
      3 C           6.3093   -3.4835   21.7923 C.3     1  UNL1        0.0941
      4 N           7.5487   -3.3343   20.9607 N.am    1  UNL1       -0.2760
      5 C           7.5106   -2.5295   19.6955 C.2     1  UNL1        0.2502
      6 O           8.7500   -2.3803   18.8638 O.2     1  UNL1       -0.2699
      7 C           8.8262   -3.9900   21.3942 C.3     1  UNL1        0.0941
      8 C           8.8644   -4.7949   22.6594 C.3     1  UNL1        0.0275
      9 C           6.6612   -3.8063   28.6898 C.ar    1  UNL1        0.0689
     10 C           6.6231   -3.0014   27.4246 C.ar    1  UNL1        0.1134
     11 N           6.9570   -3.6490   26.1134 N.ar    1  UNL1       -0.2398
     12 C           7.3291   -5.1013   26.0675 C.ar    1  UNL1        0.1125
     13 C           7.6631   -5.7489   24.7563 C.ar    1  UNL1        0.0795
     14 N           8.0352   -7.2013   24.7103 N.ar    1  UNL1       -0.2268
     15 C           8.0734   -8.0061   25.9756 C.ar    1  UNL1        0.1986
     16 N           7.7394   -7.3586   27.2867 N.ar    1  UNL1       -0.2224
     17 C           7.3673   -5.9062   27.3327 C.ar    1  UNL1        0.1031
     18 C           7.0333   -5.2586   28.6438 C.ar    1  UNL1        0.0368
     19 C           5.3254   -1.2161   33.9345 C.3     1  UNL1        0.0897
     20 N           5.6593   -1.8636   32.6233 N.3     1  UNL1       -0.2686
     21 C           6.2022   -3.2616   32.5940 C.3     1  UNL1        0.0938
     22 C           6.5362   -3.9092   31.2828 C.3     1  UNL1        0.1082
     23 N           6.3273   -3.1587   30.0010 N.pl3   1  UNL1       -0.3034
     24 C           5.7844   -1.7607   30.0303 C.3     1  UNL1        0.1082
     25 C           5.4504   -1.1132   31.3414 C.3     1  UNL1        0.0938
     26 C           6.2330   -1.8738   19.2619 C.ar    1  UNL1        0.0666
     27 C           5.3290   -2.5654   18.2851 C.ar    1  UNL1        0.0089
     28 C           4.0514   -1.9097   17.8515 C.ar    1  UNL1        0.0374
     29 C           3.6780   -0.5624   18.3948 C.ar    1  UNL1        0.1480
     30 C           4.5821    0.1293   19.3717 C.ar    1  UNL1        0.0514
     31 C           5.8596   -0.5264   19.8053 C.ar    1  UNL1        0.0489
     32 N           6.7637    0.1652   20.7821 N.pl3   1  UNL1       -0.3568
     33 H           6.5186    1.0496   21.1387 H       1  UNL1        0.1424
     34 H           7.6022   -0.2651   21.0667 H       1  UNL1        0.1424
     35 O           2.4005    0.0934   17.9613 O.3     1  UNL1       -0.4044
     36 C           1.2869    0.2910   18.9466 C.3     1  UNL1        0.5753
     37 F           0.1733    0.4886   19.9319 F       1  UNL1       -0.1328
     38 F           0.9339    1.5910   18.2868 F       1  UNL1       -0.1328
     39 F           1.6399   -1.0090   19.6063 F       1  UNL1       -0.1328
@<TRIPOS>BOND
     1    19    20    1
     2    20    21    1
     3    21    22    1
     4    22    23    1
     5    23     9    1
     6     9    10   ar
     7    10    11   ar
     8    11    12   ar
     9    12    13   ar
    10    13     1    1
    11     1     2    1
    12     2     3    1
    13     3     4    1
    14     4     5   am
    15     5     6    2
    16     5    26    1
    17    26    27   ar
    18    27    28   ar
    19    28    29   ar
    20    29    35    1
    21    35    36    1
    22    36    37    1
    23    36    38    1
    24    36    39    1
    25    29    30   ar
    26    30    31   ar
    27    31    32    1
    28     4     7    1
    29     7     8    1
    30    13    14   ar
    31    14    15   ar
    32    15    16   ar
    33    16    17   ar
    34    17    18   ar
    35    23    24    1
    36    24    25    1
    37    25    20    1
    38    18     9   ar
    39    17    12   ar
    40     8     1    1
    41    31    26   ar
    42    32    33    1
    43    32    34    1
@<TRIPOS>MOLECULE
*****
 39 43 0 0 0
SMALL
GASTEIGER

@<TRIPOS>ATOM
      1 C           2.4914   -0.6606   19.9872 C.3     1  UNL1        0.0453
      2 C           1.1491   -0.5136   20.6404 C.3     1  UNL1        0.0275
      3 C           0.3985    0.7803   20.5291 C.3     1  UNL1        0.0941
      4 N           0.9902    1.9273   19.7648 N.am    1  UNL1       -0.2760
      5 C           0.2396    3.2212   19.6536 C.2     1  UNL1        0.2502
      6 O           0.8313    4.3682   18.8891 O.2     1  UNL1       -0.2699
      7 C           2.3325    1.7804   19.1116 C.3     1  UNL1        0.0941
      8 C           3.0831    0.4865   19.2228 C.3     1  UNL1        0.0275
      9 C           5.4397   -2.9617   23.8939 C.ar    1  UNL1        0.0689
     10 C           4.6891   -1.6678   23.7827 C.ar    1  UNL1        0.1134
     11 N           3.9565   -1.3321   22.5175 N.ar    1  UNL1       -0.2398
     12 C           3.9746   -2.2902   21.3636 C.ar    1  UNL1        0.1125
     13 C           3.2420   -1.9545   20.0984 C.ar    1  UNL1        0.0795
     14 N           3.2600   -2.9127   18.9445 N.ar    1  UNL1       -0.2268
     15 C           4.0106   -4.2066   19.0557 C.ar    1  UNL1        0.1986
     16 N           4.7432   -4.5423   20.3209 N.ar    1  UNL1       -0.2224
     17 C           4.7252   -3.5841   21.4748 C.ar    1  UNL1        0.1031
     18 C           5.4577   -3.9198   22.7399 C.ar    1  UNL1        0.0368
     19 C           8.3701   -4.3048   28.9544 C.3     1  UNL1        0.0897
     20 N           7.6375   -3.9690   27.6893 N.3     1  UNL1       -0.2686
     21 C           6.8901   -2.6733   27.5768 C.3     1  UNL1        0.0938
     22 C           6.1575   -2.3375   26.3116 C.3     1  UNL1        0.1082
     23 N           6.1723   -3.2974   25.1591 N.pl3   1  UNL1       -0.3034
     24 C           6.9196   -4.5931   25.2716 C.3     1  UNL1        0.1082
     25 C           7.6522   -4.9289   26.5367 C.3     1  UNL1        0.0938
     26 C          -1.1027    3.3681   20.3067 C.ar    1  UNL1        0.0666
     27 C          -2.3520    3.2805   19.4813 C.ar    1  UNL1        0.0089
     28 C          -3.6944    3.4274   20.1345 C.ar    1  UNL1        0.0374
     29 C          -3.7873    3.6620   21.6131 C.ar    1  UNL1        0.1480
     30 C          -2.5379    3.7497   22.4386 C.ar    1  UNL1        0.0514
     31 C          -1.1956    3.6027   21.7854 C.ar    1  UNL1        0.0489
     32 N           0.0538    3.6904   22.6108 N.pl3   1  UNL1       -0.3568
     33 H          -0.0072    3.8443   23.5813 H       1  UNL1        0.1424
     34 H           0.9348    3.5939   22.1821 H       1  UNL1        0.1424
     35 O          -5.1296    3.8089   22.2663 O.3     1  UNL1       -0.4044
     36 C          -5.2423    3.7872   23.7618 C.3     1  UNL1        0.5753
     37 F          -5.3551    3.7654   25.2574 F       1  UNL1       -0.1328
     38 F          -5.4183    5.2767   23.7703 F       1  UNL1       -0.1328
     39 F          -5.0664    2.2976   23.7534 F       1  UNL1       -0.1328
@<TRIPOS>BOND
     1    19    20    1
     2    20    21    1
     3    21    22    1
     4    22    23    1
     5    23     9    1
     6     9    10   ar
     7    10    11   ar
     8    11    12   ar
     9    12    13   ar
    10    13     1    1
    11     1     2    1
    12     2     3    1
    13     3     4    1
    14     4     5   am
    15     5     6    2
    16     5    26    1
    17    26    27   ar
    18    27    28   ar
    19    28    29   ar
    20    29    35    1
    21    35    36    1
    22    36    37    1
    23    36    38    1
    24    36    39    1
    25    29    30   ar
    26    30    31   ar
    27    31    32    1
    28     4     7    1
    29     7     8    1
    30    13    14   ar
    31    14    15   ar
    32    15    16   ar
    33    16    17   ar
    34    17    18   ar
    35    23    24    1
    36    24    25    1
    37    25    20    1
    38    18     9   ar
    39    17    12   ar
    40     8     1    1
    41    31    26   ar
    42    32    33    1
    43    32    34    1
@<TRIPOS>MOLECULE
*****
 39 43 0 0 0
SMALL
GASTEIGER

@<TRIPOS>ATOM
      1 C           7.5505   -4.2100   25.7382 C.3     1  UNL1        0.0453
      2 C           6.1658   -3.9742   25.2121 C.3     1  UNL1        0.0275
      3 C           5.9712   -3.2729   23.9004 C.3     1  UNL1        0.0941
      4 N           7.1613   -2.8075   23.1149 N.am    1  UNL1       -0.2760
      5 C           6.9667   -2.1063   21.8033 C.2     1  UNL1        0.2502
      6 O           8.1568   -1.6409   21.0177 O.2     1  UNL1       -0.2699
      7 C           8.5460   -3.0434   23.6411 C.3     1  UNL1        0.0941
      8 C           8.7407   -3.7446   24.9527 C.3     1  UNL1        0.0275
      9 C           6.5112   -2.8996   30.8814 C.ar    1  UNL1        0.0689
     10 C           6.3166   -2.1984   29.5698 C.ar    1  UNL1        0.1134
     11 N           6.7279   -2.8689   28.2926 N.ar    1  UNL1       -0.2398
     12 C           7.3338   -4.2407   28.3271 C.ar    1  UNL1        0.1125
     13 C           7.7451   -4.9112   27.0498 C.ar    1  UNL1        0.0795
     14 N           8.3511   -6.2830   27.0843 N.ar    1  UNL1       -0.2268
     15 C           8.5457   -6.9842   28.3960 C.ar    1  UNL1        0.1986
     16 N           8.1344   -6.3136   29.6731 N.ar    1  UNL1       -0.2224
     17 C           7.5285   -4.9419   29.6387 C.ar    1  UNL1        0.1031
     18 C           7.1172   -4.2714   30.9158 C.ar    1  UNL1        0.0368
     19 C           4.8661   -0.2175   35.9903 C.3     1  UNL1        0.0897
     20 N           5.2774   -0.8880   34.7131 N.3     1  UNL1       -0.2686
     21 C           4.3309   -1.8207   34.0171 C.3     1  UNL1        0.0938
     22 C           4.7422   -2.4912   32.7399 C.3     1  UNL1        0.1082
     23 N           6.0999   -2.2291   32.1586 N.pl3   1  UNL1       -0.3034
     24 C           7.0464   -1.2964   32.8546 C.3     1  UNL1        0.1082
     25 C           6.6351   -0.6259   34.1318 C.3     1  UNL1        0.0938
     26 C           5.5819   -1.8705   21.2771 C.ar    1  UNL1        0.0666
     27 C           4.8262   -0.6390   21.6800 C.ar    1  UNL1        0.0089
     28 C           3.4414   -0.4032   21.1538 C.ar    1  UNL1        0.0374
     29 C           2.8124   -1.3988   20.2248 C.ar    1  UNL1        0.1480
     30 C           3.5682   -2.6303   19.8219 C.ar    1  UNL1        0.0514
     31 C           4.9529   -2.8662   20.3481 C.ar    1  UNL1        0.0489
     32 N           5.7087   -4.0976   19.9452 N.pl3   1  UNL1       -0.3568
     33 H           5.2958   -4.7511   19.3355 H       1  UNL1        0.1424
     34 H           6.6175   -4.2524   20.2906 H       1  UNL1        0.1424
     35 O           1.4277   -1.1629   19.6987 O.3     1  UNL1       -0.4044
     36 C           0.9778    0.2294   19.3687 C.3     1  UNL1        0.5753
     37 F           0.5279    1.6218   19.0388 F       1  UNL1       -0.1328
     38 F          -0.0189    0.1727   20.4882 F       1  UNL1       -0.1328
     39 F           1.9744    0.2862   18.2492 F       1  UNL1       -0.1328
@<TRIPOS>BOND
     1    19    20    1
     2    20    21    1
     3    21    22    1
     4    22    23    1
     5    23     9    1
     6     9    10   ar
     7    10    11   ar
     8    11    12   ar
     9    12    13   ar
    10    13     1    1
    11     1     2    1
    12     2     3    1
    13     3     4    1
    14     4     5   am
    15     5     6    2
    16     5    26    1
    17    26    27   ar
    18    27    28   ar
    19    28    29   ar
    20    29    35    1
    21    35    36    1
    22    36    37    1
    23    36    38    1
    24    36    39    1
    25    29    30   ar
    26    30    31   ar
    27    31    32    1
    28     4     7    1
    29     7     8    1
    30    13    14   ar
    31    14    15   ar
    32    15    16   ar
    33    16    17   ar
    34    17    18   ar
    35    23    24    1
    36    24    25    1
    37    25    20    1
    38    18     9   ar
    39    17    12   ar
    40     8     1    1
    41    31    26   ar
    42    32    33    1
    43    32    34    1
@<TRIPOS>MOLECULE
*****
 39 43 0 0 0
SMALL
GASTEIGER

@<TRIPOS>ATOM
      1 C           7.1624   -3.7586   22.7583 C.3     1  UNL1        0.0453
      2 C           5.8132   -3.1693   22.4715 C.3     1  UNL1        0.0275
      3 C           5.6418   -2.2062   21.3343 C.3     1  UNL1        0.0941
      4 N           6.8196   -1.8325   20.4840 N.am    1  UNL1       -0.2760
      5 C           6.6482   -0.8695   19.3469 C.2     1  UNL1        0.2502
      6 O           7.8260   -0.4957   18.4965 O.2     1  UNL1       -0.2699
      7 C           8.1688   -2.4218   20.7708 C.3     1  UNL1        0.0941
      8 C           8.3402   -3.3849   21.9080 C.3     1  UNL1        0.0275
      9 C           6.5176   -3.3887   28.1153 C.ar    1  UNL1        0.0689
     10 C           6.3461   -2.4257   26.9781 C.ar    1  UNL1        0.1134
     11 N           6.6182   -2.8700   25.5716 N.ar    1  UNL1       -0.2398
     12 C           7.0617   -4.2774   25.3021 C.ar    1  UNL1        0.1125
     13 C           7.3338   -4.7217   23.8955 C.ar    1  UNL1        0.0795
     14 N           7.7773   -6.1291   23.6260 N.ar    1  UNL1       -0.2268
     15 C           7.9487   -7.0921   24.7633 C.ar    1  UNL1        0.1986
     16 N           7.6767   -6.6478   26.1698 N.ar    1  UNL1       -0.2224
     17 C           7.2331   -5.2404   26.4393 C.ar    1  UNL1        0.1031
     18 C           6.9611   -4.7961   27.8458 C.ar    1  UNL1        0.0368
     19 C           5.4292   -1.6114   33.7417 C.3     1  UNL1        0.0897
     20 N           5.7013   -2.0557   32.3352 N.3     1  UNL1       -0.2686
     21 C           6.3530   -3.3826   32.0806 C.3     1  UNL1        0.0938
     22 C           6.6250   -3.8269   30.6739 C.3     1  UNL1        0.1082
     23 N           6.2455   -2.9444   29.5219 N.pl3   1  UNL1       -0.3034
     24 C           5.5938   -1.6175   29.7766 C.3     1  UNL1        0.1082
     25 C           5.3217   -1.1732   31.1831 C.3     1  UNL1        0.0938
     26 C           5.2989   -0.2801   19.0600 C.ar    1  UNL1        0.0666
     27 C           4.9277    1.0565   19.6305 C.ar    1  UNL1        0.0089
     28 C           3.5784    1.6458   19.3437 C.ar    1  UNL1        0.0374
     29 C           2.6005    0.8985   18.4864 C.ar    1  UNL1        0.1480
     30 C           2.9717   -0.4382   17.9158 C.ar    1  UNL1        0.0514
     31 C           4.3209   -1.0275   18.2027 C.ar    1  UNL1        0.0489
     32 N           4.6922   -2.3642   17.6322 N.pl3   1  UNL1       -0.3568
     33 H           4.0503   -2.8547   17.0695 H       1  UNL1        0.1424
     34 H           5.5778   -2.7510   17.8204 H       1  UNL1        0.1424
     35 O           1.2512    1.4878   18.1995 O.3     1  UNL1       -0.4044
     36 C           0.3466    1.8764   19.3311 C.3     1  UNL1        0.5753
     37 F          -0.5581    2.2649   20.4627 F       1  UNL1       -0.1328
     38 F           0.2110    0.4336   19.7182 F       1  UNL1       -0.1328
     39 F           0.4821    3.3192   18.9441 F       1  UNL1       -0.1328
@<TRIPOS>BOND
     1    19    20    1
     2    20    21    1
     3    21    22    1
     4    22    23    1
     5    23     9    1
     6     9    10   ar
     7    10    11   ar
     8    11    12   ar
     9    12    13   ar
    10    13     1    1
    11     1     2    1
    12     2     3    1
    13     3     4    1
    14     4     5   am
    15     5     6    2
    16     5    26    1
    17    26    27   ar
    18    27    28   ar
    19    28    29   ar
    20    29    35    1
    21    35    36    1
    22    36    37    1
    23    36    38    1
    24    36    39    1
    25    29    30   ar
    26    30    31   ar
    27    31    32    1
    28     4     7    1
    29     7     8    1
    30    13    14   ar
    31    14    15   ar
    32    15    16   ar
    33    16    17   ar
    34    17    18   ar
    35    23    24    1
    36    24    25    1
    37    25    20    1
    38    18     9   ar
    39    17    12   ar
    40     8     1    1
    41    31    26   ar
    42    32    33    1
    43    32    34    1
@<TRIPOS>MOLECULE
*****
 39 43 0 0 0
SMALL
GASTEIGER

@<TRIPOS>ATOM
      1 C           0.6138    1.6700   25.6990 C.3     1  UNL1        0.0453
      2 C           1.1329    0.7773   24.6111 C.3     1  UNL1        0.0275
      3 C           1.3449    1.3233   23.2301 C.3     1  UNL1        0.0941
      4 N           1.0380    2.7620   22.9372 N.am    1  UNL1       -0.2760
      5 C           1.2501    3.3079   21.5563 C.2     1  UNL1        0.2502
      6 O           0.9431    4.7467   21.2632 O.2     1  UNL1       -0.2699
      7 C           0.5190    3.6547   24.0251 C.3     1  UNL1        0.0941
      8 C           0.3069    3.1088   25.4060 C.3     1  UNL1        0.0275
      9 C           3.8775   -0.5520   29.3950 C.ar    1  UNL1        0.0689
     10 C           4.0896   -0.0061   28.0141 C.ar    1  UNL1        0.1134
     11 N           2.9310    0.5526   27.2424 N.ar    1  UNL1       -0.2398
     12 C           1.5604    0.5654   27.8517 C.ar    1  UNL1        0.1125
     13 C           0.4018    1.1241   27.0799 C.ar    1  UNL1        0.0795
     14 N          -0.9689    1.1368   27.6891 N.ar    1  UNL1       -0.2268
     15 C          -1.1809    0.5909   29.0701 C.ar    1  UNL1        0.1986
     16 N          -0.0224    0.0322   29.8418 N.ar    1  UNL1       -0.2224
     17 C           1.3483    0.0194   29.2326 C.ar    1  UNL1        0.1031
     18 C           2.5069   -0.5393   30.0042 C.ar    1  UNL1        0.0368
     19 C           8.5118   -2.7869   32.4820 C.3     1  UNL1        0.0897
     20 N           7.3532   -2.2282   31.7103 N.3     1  UNL1       -0.2686
     21 C           7.3570   -2.2776   30.2111 C.3     1  UNL1        0.0938
     22 C           6.1984   -1.7189   29.4393 C.3     1  UNL1        0.1082
     23 N           5.0361   -1.1108   30.1668 N.pl3   1  UNL1       -0.3034
     24 C           5.0323   -1.0613   31.6659 C.3     1  UNL1        0.1082
     25 C           6.1909   -1.6200   32.4377 C.3     1  UNL1        0.0938
     26 C           1.7691    2.4152   20.4683 C.ar    1  UNL1        0.0666
     27 C           3.2111    2.4886   20.0619 C.ar    1  UNL1        0.0089
     28 C           3.7301    1.5959   18.9740 C.ar    1  UNL1        0.0374
     29 C           2.8072    0.6296   18.2925 C.ar    1  UNL1        0.1480
     30 C           1.3651    0.5561   18.6989 C.ar    1  UNL1        0.0514
     31 C           0.8461    1.4489   19.7868 C.ar    1  UNL1        0.0489
     32 N          -0.5959    1.3754   20.1933 N.pl3   1  UNL1       -0.3568
     33 H          -1.2017    0.7412   19.7460 H       1  UNL1        0.1424
     34 H          -0.9366    1.9614   20.9073 H       1  UNL1        0.1424
     35 O           3.3262   -0.2631   17.2045 O.3     1  UNL1       -0.4044
     36 C           4.4651   -1.1990   17.4818 C.3     1  UNL1        0.5753
     37 F           5.6041   -2.1348   17.7591 F       1  UNL1       -0.1328
     38 F           3.5363   -2.1072   18.2316 F       1  UNL1       -0.1328
     39 F           5.3940   -0.2907   16.7320 F       1  UNL1       -0.1328
@<TRIPOS>BOND
     1    19    20    1
     2    20    21    1
     3    21    22    1
     4    22    23    1
     5    23     9    1
     6     9    10   ar
     7    10    11   ar
     8    11    12   ar
     9    12    13   ar
    10    13     1    1
    11     1     2    1
    12     2     3    1
    13     3     4    1
    14     4     5   am
    15     5     6    2
    16     5    26    1
    17    26    27   ar
    18    27    28   ar
    19    28    29   ar
    20    29    35    1
    21    35    36    1
    22    36    37    1
    23    36    38    1
    24    36    39    1
    25    29    30   ar
    26    30    31   ar
    27    31    32    1
    28     4     7    1
    29     7     8    1
    30    13    14   ar
    31    14    15   ar
    32    15    16   ar
    33    16    17   ar
    34    17    18   ar
    35    23    24    1
    36    24    25    1
    37    25    20    1
    38    18     9   ar
    39    17    12   ar
    40     8     1    1
    41    31    26   ar
    42    32    33    1
    43    32    34    1
@<TRIPOS>MOLECULE
*****
 39 43 0 0 0
SMALL
GASTEIGER

@<TRIPOS>ATOM
      1 C           6.0893   -3.1846   20.8434 C.3     1  UNL1        0.0453
      2 C           5.1276   -2.2382   21.4988 C.3     1  UNL1        0.0275
      3 C           4.2247   -1.3848   20.6582 C.3     1  UNL1        0.0941
      4 N           4.2835   -1.4779   19.1623 N.am    1  UNL1       -0.2760
      5 C           3.3806   -0.6246   18.3217 C.2     1  UNL1        0.2502
      6 O           3.4394   -0.7176   16.8257 O.2     1  UNL1       -0.2699
      7 C           5.2452   -2.4243   18.5069 C.3     1  UNL1        0.0941
      8 C           6.1481   -3.2776   19.3474 C.3     1  UNL1        0.0275
      9 C           6.7537   -3.8238   26.1725 C.ar    1  UNL1        0.0689
     10 C           5.8508   -2.9705   25.3320 C.ar    1  UNL1        0.1134
     11 N           5.9303   -3.0419   23.8358 N.ar    1  UNL1       -0.2398
     12 C           6.9127   -3.9666   23.1802 C.ar    1  UNL1        0.1125
     13 C           6.9922   -4.0379   21.6840 C.ar    1  UNL1        0.0795
     14 N           7.9746   -4.9626   21.0284 N.ar    1  UNL1       -0.2268
     15 C           8.8775   -5.8160   21.8690 C.ar    1  UNL1        0.1986
     16 N           8.7980   -5.7446   23.3652 N.ar    1  UNL1       -0.2224
     17 C           7.8156   -4.8199   24.0208 C.ar    1  UNL1        0.1031
     18 C           7.7361   -4.7485   25.5169 C.ar    1  UNL1        0.0368
     19 C           6.4358   -3.5383   32.1574 C.3     1  UNL1        0.0897
     20 N           6.5153   -3.6097   30.6612 N.3     1  UNL1       -0.2686
     21 C           6.8370   -4.9113   29.9885 C.3     1  UNL1        0.0938
     22 C           6.9164   -4.9826   28.4922 C.3     1  UNL1        0.1082
     23 N           6.6743   -3.7525   27.6688 N.pl3   1  UNL1       -0.3034
     24 C           6.3526   -2.4509   28.3415 C.3     1  UNL1        0.1082
     25 C           6.2731   -2.3795   29.8377 C.3     1  UNL1        0.0938
     26 C           2.4189    0.3218   18.9771 C.ar    1  UNL1        0.0666
     27 C           1.2078   -0.2099   19.6844 C.ar    1  UNL1        0.0089
     28 C           0.2461    0.7365   20.3398 C.ar    1  UNL1        0.0374
     29 C           0.4956    2.2146   20.2878 C.ar    1  UNL1        0.1480
     30 C           1.7068    2.7465   19.5805 C.ar    1  UNL1        0.0514
     31 C           2.6685    1.8001   18.9251 C.ar    1  UNL1        0.0489
     32 N           3.8796    2.3318   18.2178 N.pl3   1  UNL1       -0.3568
     33 H           4.0434    3.3020   18.1837 H       1  UNL1        0.1424
     34 H           4.5108    1.7107   17.7877 H       1  UNL1        0.1424
     35 O          -0.4661    3.1610   20.9432 O.3     1  UNL1       -0.4044
     36 C          -1.9019    3.1905   20.5104 C.3     1  UNL1        0.5753
     37 F          -3.3378    3.2199   20.0776 F       1  UNL1       -0.1328
     38 F          -1.4682    3.3145   19.0799 F       1  UNL1       -0.1328
     39 F          -2.3357    3.0664   21.9409 F       1  UNL1       -0.1328
@<TRIPOS>BOND
     1    19    20    1
     2    20    21    1
     3    21    22    1
     4    22    23    1
     5    23     9    1
     6     9    10   ar
     7    10    11   ar
     8    11    12   ar
     9    12    13   ar
    10    13     1    1
    11     1     2    1
    12     2     3    1
    13     3     4    1
    14     4     5   am
    15     5     6    2
    16     5    26    1
    17    26    27   ar
    18    27    28   ar
    19    28    29   ar
    20    29    35    1
    21    35    36    1
    22    36    37    1
    23    36    38    1
    24    36    39    1
    25    29    30   ar
    26    30    31   ar
    27    31    32    1
    28     4     7    1
    29     7     8    1
    30    13    14   ar
    31    14    15   ar
    32    15    16   ar
    33    16    17   ar
    34    17    18   ar
    35    23    24    1
    36    24    25    1
    37    25    20    1
    38    18     9   ar
    39    17    12   ar
    40     8     1    1
    41    31    26   ar
    42    32    33    1
    43    32    34    1
@<TRIPOS>MOLECULE
*****
 39 43 0 0 0
SMALL
GASTEIGER

@<TRIPOS>ATOM
      1 C           0.9209    1.1743   20.4283 C.3     1  UNL1        0.0453
      2 C           1.8519    0.2448   21.1488 C.3     1  UNL1        0.0275
      3 C           2.8485   -0.5668   20.3754 C.3     1  UNL1        0.0941
      4 N           2.9141   -0.4488   18.8815 N.am    1  UNL1       -0.2760
      5 C           3.9107   -1.2604   18.1081 C.2     1  UNL1        0.2502
      6 O           3.9763   -1.1424   16.6142 O.2     1  UNL1       -0.2699
      7 C           1.9831    0.4808   18.1610 C.3     1  UNL1        0.0941
      8 C           0.9865    1.2923   18.9343 C.3     1  UNL1        0.0275
      9 C           0.2179    2.2323   25.6853 C.ar    1  UNL1        0.0689
     10 C           1.2145    1.4208   24.9119 C.ar    1  UNL1        0.1134
     11 N           1.1166    1.3386   23.4174 N.ar    1  UNL1       -0.2398
     12 C           0.0221    2.0680   22.6963 C.ar    1  UNL1        0.1125
     13 C          -0.0757    1.9859   21.2017 C.ar    1  UNL1        0.0795
     14 N          -1.1702    2.7153   20.4805 N.ar    1  UNL1       -0.2268
     15 C          -2.1668    3.5269   21.2540 C.ar    1  UNL1        0.1986
     16 N          -2.0689    3.6090   22.7485 N.ar    1  UNL1       -0.2224
     17 C          -0.9744    2.8796   23.4696 C.ar    1  UNL1        0.1031
     18 C          -0.8766    2.9617   24.9642 C.ar    1  UNL1        0.0368
     19 C           0.6094    2.5611   31.6635 C.3     1  UNL1        0.0897
     20 N           0.5115    2.4789   30.1690 N.3     1  UNL1       -0.2686
     21 C           0.2130    1.1658   29.5080 C.3     1  UNL1        0.0938
     22 C           0.1152    1.0837   28.0134 C.3     1  UNL1        0.1082
     23 N           0.3158    2.3145   27.1799 N.pl3   1  UNL1       -0.3034
     24 C           0.6143    3.6275   27.8409 C.3     1  UNL1        0.1082
     25 C           0.7121    3.7097   29.3354 C.3     1  UNL1        0.0938
     26 C           4.8417   -2.1899   18.8286 C.ar    1  UNL1        0.0666
     27 C           6.1874   -1.7037   19.2785 C.ar    1  UNL1        0.0089
     28 C           7.1184   -2.6332   19.9990 C.ar    1  UNL1        0.0374
     29 C           6.7037   -4.0491   20.2697 C.ar    1  UNL1        0.1480
     30 C           5.3578   -4.5354   19.8198 C.ar    1  UNL1        0.0514
     31 C           4.4268   -3.6058   19.0993 C.ar    1  UNL1        0.0489
     32 N           3.0811   -4.0921   18.6495 N.pl3   1  UNL1       -0.3568
     33 H           2.8088   -5.0214   18.8271 H       1  UNL1        0.1424
     34 H           2.4700   -3.4820   18.1766 H       1  UNL1        0.1424
     35 O           7.6347   -4.9787   20.9902 O.3     1  UNL1       -0.4044
     36 C           8.2720   -4.5515   22.2791 C.3     1  UNL1        0.5753
     37 F           8.9094   -4.1244   23.5680 F       1  UNL1       -0.1328
     38 F           9.5358   -4.2175   21.5434 F       1  UNL1       -0.1328
     39 F           7.0082   -4.8856   23.0147 F       1  UNL1       -0.1328
@<TRIPOS>BOND
     1    19    20    1
     2    20    21    1
     3    21    22    1
     4    22    23    1
     5    23     9    1
     6     9    10   ar
     7    10    11   ar
     8    11    12   ar
     9    12    13   ar
    10    13     1    1
    11     1     2    1
    12     2     3    1
    13     3     4    1
    14     4     5   am
    15     5     6    2
    16     5    26    1
    17    26    27   ar
    18    27    28   ar
    19    28    29   ar
    20    29    35    1
    21    35    36    1
    22    36    37    1
    23    36    38    1
    24    36    39    1
    25    29    30   ar
    26    30    31   ar
    27    31    32    1
    28     4     7    1
    29     7     8    1
    30    13    14   ar
    31    14    15   ar
    32    15    16   ar
    33    16    17   ar
    34    17    18   ar
    35    23    24    1
    36    24    25    1
    37    25    20    1
    38    18     9   ar
    39    17    12   ar
    40     8     1    1
    41    31    26   ar
    42    32    33    1
    43    32    34    1
