@<TRIPOS>MOLECULE
*****
 21 23 0 0 0
SMALL
GASTEIGER

@<TRIPOS>ATOM
      1 C          -9.6800  -18.4193   21.2372 C.3     1  UNL1        0.0323
      2 C          -8.2056  -18.5886   21.0193 C.3     1  UNL1        0.0053
      3 C          -7.7073  -19.4290   19.8812 C.3     1  UNL1        0.0004
      4 C          -8.6834  -20.0999   18.9608 C.3     1  UNL1        0.0000
      5 C         -10.1578  -19.9305   19.1787 C.3     1  UNL1        0.0004
      6 C         -10.6561  -19.0902   20.3169 C.3     1  UNL1        0.0053
      7 C          -9.1523  -17.5893   22.3699 C.ar    1  UNL1       -0.0215
      8 C          -8.3618  -16.3469   22.0845 C.ar    1  UNL1       -0.0042
      9 C          -7.8341  -15.5170   23.2172 C.ar    1  UNL1       -0.0003
     10 C          -8.0970  -15.9296   24.6352 C.ar    1  UNL1       -0.0000
     11 C          -7.5694  -15.0997   25.7678 C.ar    1  UNL1       -0.0000
     12 C          -7.8323  -15.5123   27.1858 C.ar    1  UNL1       -0.0000
     13 C          -8.6228  -16.7547   27.4711 C.ar    1  UNL1       -0.0000
     14 C          -9.1505  -17.5846   26.3385 C.ar    1  UNL1       -0.0000
     15 C          -8.8876  -17.1720   24.9205 C.ar    1  UNL1       -0.0003
     16 C          -9.4152  -18.0019   23.7878 C.ar    1  UNL1       -0.0042
     17 C         -11.7084  -18.8556   22.8009 C.3     1  UNL1        0.0177
     18 C         -10.9712  -17.9617   21.8484 C.3     1  UNL1        0.0613
     19 N         -11.5251  -16.6101   21.5071 N.3     1  UNL1       -0.2713
     20 C         -11.3309  -16.0456   20.1310 C.3     1  UNL1        0.0896
     21 C         -12.2732  -15.8230   22.5419 C.3     1  UNL1        0.0896
@<TRIPOS>BOND
     1    17    18    1
     2    18    19    1
     3    19    20    1
     4    19    21    1
     5    18     1    1
     6     1     7    1
     7     7     8   ar
     8     8     9   ar
     9     9    10   ar
    10    10    11   ar
    11    11    12   ar
    12    12    13   ar
    13    13    14   ar
    14    14    15   ar
    15    15    16   ar
    16     1     2    1
    17     2     3    1
    18     3     4    1
    19     4     5    1
    20     5     6    1
    21     6     1    1
    22    16     7   ar
    23    15    10   ar
@<TRIPOS>MOLECULE
*****
 21 23 0 0 0
SMALL
GASTEIGER

@<TRIPOS>ATOM
      1 C          -9.7493  -18.4708   21.5046 C.3     1  UNL1        0.0323
      2 C          -8.3078  -18.8803   21.5696 C.3     1  UNL1        0.0053
      3 C          -7.6699  -19.5676   20.3989 C.3     1  UNL1        0.0004
      4 C          -8.4735  -19.8454   19.1631 C.3     1  UNL1        0.0000
      5 C          -9.9150  -19.4359   19.0982 C.3     1  UNL1        0.0004
      6 C         -10.5530  -18.7486   20.2689 C.3     1  UNL1        0.0053
      7 C          -9.4049  -17.9931   22.8842 C.ar    1  UNL1       -0.0215
      8 C         -10.1106  -18.5698   24.0755 C.ar    1  UNL1       -0.0042
      9 C          -9.7661  -18.0922   25.4552 C.ar    1  UNL1       -0.0003
     10 C          -8.7159  -17.0378   25.6433 C.ar    1  UNL1       -0.0000
     11 C          -8.3714  -16.5601   27.0228 C.ar    1  UNL1       -0.0000
     12 C          -7.3212  -15.5058   27.2110 C.ar    1  UNL1       -0.0000
     13 C          -6.6155  -14.9291   26.0196 C.ar    1  UNL1       -0.0000
     14 C          -6.9600  -15.4068   24.6400 C.ar    1  UNL1       -0.0000
     15 C          -8.0102  -16.4611   24.4519 C.ar    1  UNL1       -0.0003
     16 C          -8.3547  -16.9388   23.0724 C.ar    1  UNL1       -0.0042
     17 C         -12.1292  -18.7874   22.4976 C.3     1  UNL1        0.0177
     18 C         -11.0713  -17.8954   21.9187 C.3     1  UNL1        0.0613
     19 N         -11.3353  -16.4281   21.7538 N.3     1  UNL1       -0.2713
     20 C         -10.7327  -15.6826   20.6000 C.3     1  UNL1        0.0896
     21 C         -12.2018  -15.7062   22.7427 C.3     1  UNL1        0.0896
@<TRIPOS>BOND
     1    17    18    1
     2    18    19    1
     3    19    20    1
     4    19    21    1
     5    18     1    1
     6     1     7    1
     7     7     8   ar
     8     8     9   ar
     9     9    10   ar
    10    10    11   ar
    11    11    12   ar
    12    12    13   ar
    13    13    14   ar
    14    14    15   ar
    15    15    16   ar
    16     1     2    1
    17     2     3    1
    18     3     4    1
    19     4     5    1
    20     5     6    1
    21     6     1    1
    22    16     7   ar
    23    15    10   ar
@<TRIPOS>MOLECULE
*****
 21 23 0 0 0
SMALL
GASTEIGER

@<TRIPOS>ATOM
      1 C         -10.3945  -17.8398   22.6182 C.3     1  UNL1        0.0323
      2 C         -10.9161  -16.4338   22.6500 C.3     1  UNL1        0.0053
      3 C         -12.2542  -16.1166   22.0508 C.3     1  UNL1        0.0004
      4 C         -13.0705  -17.2054   21.4198 C.3     1  UNL1        0.0000
      5 C         -12.5488  -18.6114   21.3881 C.3     1  UNL1        0.0004
      6 C         -11.2108  -18.9286   21.9873 C.3     1  UNL1        0.0053
      7 C          -9.2601  -17.1570   23.3232 C.ar    1  UNL1       -0.0215
      8 C          -8.1035  -16.6173   22.5352 C.ar    1  UNL1       -0.0042
      9 C          -6.9691  -15.9344   23.2402 C.ar    1  UNL1       -0.0003
     10 C          -6.9914  -15.7913   24.7332 C.ar    1  UNL1       -0.0000
     11 C          -5.8571  -15.1085   25.4382 C.ar    1  UNL1       -0.0000
     12 C          -5.8794  -14.9654   26.9312 C.ar    1  UNL1       -0.0000
     13 C          -7.0360  -15.5051   27.7192 C.ar    1  UNL1       -0.0000
     14 C          -8.1704  -16.1879   27.0142 C.ar    1  UNL1       -0.0000
     15 C          -8.1481  -16.3311   25.5212 C.ar    1  UNL1       -0.0003
     16 C          -9.2824  -17.0138   24.8162 C.ar    1  UNL1       -0.0042
     17 C          -9.5582  -19.8017   24.1020 C.3     1  UNL1        0.0177
     18 C          -9.4788  -19.0087   22.8313 C.3     1  UNL1        0.0613
     19 N          -8.4839  -19.3845   21.7736 N.3     1  UNL1       -0.2713
     20 C          -7.1368  -19.9154   22.1658 C.3     1  UNL1        0.0896
     21 C          -8.8358  -19.2295   20.3238 C.3     1  UNL1        0.0896
@<TRIPOS>BOND
     1    17    18    1
     2    18    19    1
     3    19    20    1
     4    19    21    1
     5    18     1    1
     6     1     7    1
     7     7     8   ar
     8     8     9   ar
     9     9    10   ar
    10    10    11   ar
    11    11    12   ar
    12    12    13   ar
    13    13    14   ar
    14    14    15   ar
    15    15    16   ar
    16     1     2    1
    17     2     3    1
    18     3     4    1
    19     4     5    1
    20     5     6    1
    21     6     1    1
    22    16     7   ar
    23    15    10   ar
@<TRIPOS>MOLECULE
*****
 21 23 0 0 0
SMALL
GASTEIGER

@<TRIPOS>ATOM
      1 C          -9.3771  -18.4804   22.6860 C.3     1  UNL1        0.0323
      2 C          -9.0292  -19.8093   23.2884 C.3     1  UNL1        0.0053
      3 C          -9.9277  -20.4232   24.3207 C.3     1  UNL1        0.0004
      4 C         -11.1743  -19.7081   24.7506 C.3     1  UNL1        0.0000
      5 C         -11.5222  -18.3792   24.1481 C.3     1  UNL1        0.0004
      6 C         -10.6237  -17.7653   23.1158 C.3     1  UNL1        0.0053
      7 C          -8.0970  -18.7687   21.9591 C.ar    1  UNL1       -0.0215
      8 C          -8.1311  -19.2067   20.5249 C.ar    1  UNL1       -0.0042
      9 C          -6.8509  -19.4950   19.7981 C.ar    1  UNL1       -0.0003
     10 C          -5.5367  -19.3453   20.5056 C.ar    1  UNL1       -0.0000
     11 C          -4.2566  -19.6335   19.7788 C.ar    1  UNL1       -0.0000
     12 C          -2.9424  -19.4838   20.4863 C.ar    1  UNL1       -0.0000
     13 C          -2.9084  -19.0458   21.9205 C.ar    1  UNL1       -0.0000
     14 C          -4.1885  -18.7575   22.6473 C.ar    1  UNL1       -0.0000
     15 C          -5.5027  -18.9072   21.9398 C.ar    1  UNL1       -0.0003
     16 C          -6.7828  -18.6190   22.6666 C.ar    1  UNL1       -0.0042
     17 C          -8.1766  -16.2626   22.0615 C.3     1  UNL1        0.0177
     18 C          -9.2805  -17.2516   21.8311 C.3     1  UNL1        0.0613
     19 N         -10.2878  -17.0119   20.7458 N.3     1  UNL1       -0.2713
     20 C         -10.9031  -18.1738   20.0237 C.3     1  UNL1        0.0896
     21 C         -10.6798  -15.6104   20.3826 C.3     1  UNL1        0.0896
@<TRIPOS>BOND
     1    17    18    1
     2    18    19    1
     3    19    20    1
     4    19    21    1
     5    18     1    1
     6     1     7    1
     7     7     8   ar
     8     8     9   ar
     9     9    10   ar
    10    10    11   ar
    11    11    12   ar
    12    12    13   ar
    13    13    14   ar
    14    14    15   ar
    15    15    16   ar
    16     1     2    1
    17     2     3    1
    18     3     4    1
    19     4     5    1
    20     5     6    1
    21     6     1    1
    22    16     7   ar
    23    15    10   ar
@<TRIPOS>MOLECULE
*****
 21 23 0 0 0
SMALL
GASTEIGER

@<TRIPOS>ATOM
      1 C          -9.6905  -18.1953   21.9682 C.3     1  UNL1        0.0323
      2 C         -10.3991  -16.8735   21.9918 C.3     1  UNL1        0.0053
      3 C         -11.2770  -16.4726   20.8435 C.3     1  UNL1        0.0004
      4 C         -11.4464  -17.3936   19.6717 C.3     1  UNL1        0.0000
      5 C         -10.7377  -18.7154   19.6482 C.3     1  UNL1        0.0004
      6 C          -9.8598  -19.1163   20.7965 C.3     1  UNL1        0.0053
      7 C          -9.2180  -17.6701   23.2915 C.ar    1  UNL1       -0.0215
      8 C          -9.9883  -17.9815   24.5403 C.ar    1  UNL1       -0.0042
      9 C          -9.5159  -17.4563   25.8636 C.ar    1  UNL1       -0.0003
     10 C          -8.2731  -16.6196   25.9380 C.ar    1  UNL1       -0.0000
     11 C          -7.8007  -16.0943   27.2612 C.ar    1  UNL1       -0.0000
     12 C          -6.5579  -15.2576   27.3355 C.ar    1  UNL1       -0.0000
     13 C          -5.7877  -14.9462   26.0867 C.ar    1  UNL1       -0.0000
     14 C          -6.2601  -15.4714   24.7634 C.ar    1  UNL1       -0.0000
     15 C          -7.5028  -16.3081   24.6891 C.ar    1  UNL1       -0.0003
     16 C          -7.9753  -16.8334   23.3659 C.ar    1  UNL1       -0.0042
     17 C          -9.2898  -20.2741   23.4742 C.3     1  UNL1        0.0177
     18 C          -8.8178  -19.3348   22.4043 C.3     1  UNL1        0.0613
     19 N          -7.4732  -19.5349   21.7703 N.3     1  UNL1       -0.2713
     20 C          -7.0629  -18.6914   20.5997 C.3     1  UNL1        0.0896
     21 C          -6.5389  -20.5785   22.3069 C.3     1  UNL1        0.0896
@<TRIPOS>BOND
     1    17    18    1
     2    18    19    1
     3    19    20    1
     4    19    21    1
     5    18     1    1
     6     1     7    1
     7     7     8   ar
     8     8     9   ar
     9     9    10   ar
    10    10    11   ar
    11    11    12   ar
    12    12    13   ar
    13    13    14   ar
    14    14    15   ar
    15    15    16   ar
    16     1     2    1
    17     2     3    1
    18     3     4    1
    19     4     5    1
    20     5     6    1
    21     6     1    1
    22    16     7   ar
    23    15    10   ar
@<TRIPOS>MOLECULE
*****
 21 23 0 0 0
SMALL
GASTEIGER

@<TRIPOS>ATOM
      1 C         -10.2740  -17.4298   22.6187 C.3     1  UNL1        0.0323
      2 C          -9.9318  -16.4117   21.5717 C.3     1  UNL1        0.0053
      3 C         -11.0077  -15.8544   20.6875 C.3     1  UNL1        0.0004
      4 C         -12.4259  -16.3152   20.8504 C.3     1  UNL1        0.0000
      5 C         -12.7680  -17.3333   21.8974 C.3     1  UNL1        0.0004
      6 C         -11.6921  -17.8907   22.7816 C.3     1  UNL1        0.0053
      7 C          -8.7965  -17.3078   22.8471 C.ar    1  UNL1       -0.0215
      8 C          -8.2485  -16.1322   23.6004 C.ar    1  UNL1       -0.0042
      9 C          -6.7710  -16.0103   23.8288 C.ar    1  UNL1       -0.0003
     10 C          -5.8415  -17.0640   23.3038 C.ar    1  UNL1       -0.0000
     11 C          -4.3640  -16.9421   23.5321 C.ar    1  UNL1       -0.0000
     12 C          -3.4345  -17.9959   23.0070 C.ar    1  UNL1       -0.0000
     13 C          -3.9825  -19.1715   22.2537 C.ar    1  UNL1       -0.0000
     14 C          -5.4600  -19.2934   22.0253 C.ar    1  UNL1       -0.0000
     15 C          -6.3895  -18.2397   22.5504 C.ar    1  UNL1       -0.0003
     16 C          -7.8670  -18.3616   22.3220 C.ar    1  UNL1       -0.0042
     17 C          -9.8644  -17.9071   25.1395 C.3     1  UNL1        0.0177
     18 C         -10.1031  -18.4056   23.7451 C.3     1  UNL1        0.0613
     19 N         -10.1709  -19.8798   23.4770 N.3     1  UNL1       -0.2713
     20 C         -10.7980  -20.3839   22.2110 C.3     1  UNL1        0.0896
     21 C          -9.6116  -20.8501   24.4749 C.3     1  UNL1        0.0896
@<TRIPOS>BOND
     1    17    18    1
     2    18    19    1
     3    19    20    1
     4    19    21    1
     5    18     1    1
     6     1     7    1
     7     7     8   ar
     8     8     9   ar
     9     9    10   ar
    10    10    11   ar
    11    11    12   ar
    12    12    13   ar
    13    13    14   ar
    14    14    15   ar
    15    15    16   ar
    16     1     2    1
    17     2     3    1
    18     3     4    1
    19     4     5    1
    20     5     6    1
    21     6     1    1
    22    16     7   ar
    23    15    10   ar
@<TRIPOS>MOLECULE
*****
 21 23 0 0 0
SMALL
GASTEIGER

@<TRIPOS>ATOM
      1 C         -10.2581  -17.9283   21.8999 C.3     1  UNL1        0.0323
      2 C         -10.2385  -17.4955   20.4639 C.3     1  UNL1        0.0053
      3 C         -11.3842  -16.7067   19.9026 C.3     1  UNL1        0.0004
      4 C         -12.5495  -16.3506   20.7774 C.3     1  UNL1        0.0000
      5 C         -12.5690  -16.7835   22.2135 C.3     1  UNL1        0.0004
      6 C         -11.4233  -17.5723   22.7748 C.3     1  UNL1        0.0053
      7 C          -8.9406  -18.5042   21.4723 C.ar    1  UNL1       -0.0215
      8 C          -8.8683  -19.4013   20.2724 C.ar    1  UNL1       -0.0042
      9 C          -7.5508  -19.9772   19.8448 C.ar    1  UNL1       -0.0003
     10 C          -6.3058  -19.6558   20.6171 C.ar    1  UNL1       -0.0000
     11 C          -4.9884  -20.2316   20.1896 C.ar    1  UNL1       -0.0000
     12 C          -3.7433  -19.9102   20.9619 C.ar    1  UNL1       -0.0000
     13 C          -3.8156  -19.0131   22.1618 C.ar    1  UNL1       -0.0000
     14 C          -5.1331  -18.4372   22.5894 C.ar    1  UNL1       -0.0000
     15 C          -6.3781  -18.7586   21.8171 C.ar    1  UNL1       -0.0003
     16 C          -7.6955  -18.1828   22.2446 C.ar    1  UNL1       -0.0042
     17 C          -9.6643  -20.0503   23.2763 C.3     1  UNL1        0.0177
     18 C          -9.8201  -18.5611   23.1875 C.3     1  UNL1        0.0613
     19 N          -9.5381  -17.7047   24.3862 N.3     1  UNL1       -0.2713
     20 C          -9.2111  -16.2515   24.2095 C.3     1  UNL1        0.0896
     21 C          -9.5830  -18.3015   25.7616 C.3     1  UNL1        0.0896
@<TRIPOS>BOND
     1    17    18    1
     2    18    19    1
     3    19    20    1
     4    19    21    1
     5    18     1    1
     6     1     7    1
     7     7     8   ar
     8     8     9   ar
     9     9    10   ar
    10    10    11   ar
    11    11    12   ar
    12    12    13   ar
    13    13    14   ar
    14    14    15   ar
    15    15    16   ar
    16     1     2    1
    17     2     3    1
    18     3     4    1
    19     4     5    1
    20     5     6    1
    21     6     1    1
    22    16     7   ar
    23    15    10   ar
@<TRIPOS>MOLECULE
*****
 21 23 0 0 0
SMALL
GASTEIGER

@<TRIPOS>ATOM
      1 C         -10.6501  -17.3483   22.4372 C.3     1  UNL1        0.0323
      2 C         -10.3496  -16.0686   21.7147 C.3     1  UNL1        0.0053
      3 C         -11.2767  -15.5770   20.6429 C.3     1  UNL1        0.0004
      4 C         -12.5044  -16.3650   20.2937 C.3     1  UNL1        0.0000
      5 C         -12.8048  -17.6447   21.0163 C.3     1  UNL1        0.0004
      6 C         -11.8777  -18.1364   22.0881 C.3     1  UNL1        0.0053
      7 C          -9.3727  -16.9575   23.1197 C.ar    1  UNL1       -0.0215
      8 C          -8.0684  -17.0616   22.3864 C.ar    1  UNL1       -0.0042
      9 C          -6.7910  -16.6708   23.0689 C.ar    1  UNL1       -0.0003
     10 C          -6.8181  -16.1761   24.4847 C.ar    1  UNL1       -0.0000
     11 C          -5.5408  -15.7854   25.1672 C.ar    1  UNL1       -0.0000
     12 C          -5.5679  -15.2906   26.5830 C.ar    1  UNL1       -0.0000
     13 C          -6.8722  -15.1866   27.3163 C.ar    1  UNL1       -0.0000
     14 C          -8.1496  -15.5773   26.6338 C.ar    1  UNL1       -0.0000
     15 C          -8.1225  -16.0721   25.2180 C.ar    1  UNL1       -0.0003
     16 C          -9.3998  -16.4628   24.5355 C.ar    1  UNL1       -0.0042
     17 C         -11.1629  -18.4275   24.7442 C.3     1  UNL1        0.0177
     18 C         -10.5070  -18.4923   23.3968 C.3     1  UNL1        0.0613
     19 N          -9.7079  -19.7010   23.0091 N.3     1  UNL1       -0.2713
     20 C          -9.1438  -20.5992   24.0698 C.3     1  UNL1        0.0896
     21 C          -9.4729  -20.0116   21.5605 C.3     1  UNL1        0.0896
@<TRIPOS>BOND
     1    17    18    1
     2    18    19    1
     3    19    20    1
     4    19    21    1
     5    18     1    1
     6     1     7    1
     7     7     8   ar
     8     8     9   ar
     9     9    10   ar
    10    10    11   ar
    11    11    12   ar
    12    12    13   ar
    13    13    14   ar
    14    14    15   ar
    15    15    16   ar
    16     1     2    1
    17     2     3    1
    18     3     4    1
    19     4     5    1
    20     5     6    1
    21     6     1    1
    22    16     7   ar
    23    15    10   ar
@<TRIPOS>MOLECULE
*****
 21 23 0 0 0
SMALL
GASTEIGER

@<TRIPOS>ATOM
      1 C          -6.6664  -17.1820   23.1849 C.3     1  UNL1        0.0323
      2 C          -6.8855  -18.4659   22.4410 C.3     1  UNL1        0.0053
      3 C          -5.7171  -19.3393   22.0919 C.3     1  UNL1        0.0004
      4 C          -4.3294  -18.9286   22.4867 C.3     1  UNL1        0.0000
      5 C          -4.1104  -17.6446   23.2305 C.3     1  UNL1        0.0004
      6 C          -5.2788  -16.7712   23.5796 C.3     1  UNL1        0.0053
      7 C          -8.1579  -17.1419   23.0298 C.ar    1  UNL1       -0.0215
      8 C          -8.7782  -16.2911   21.9614 C.ar    1  UNL1       -0.0042
      9 C         -10.2697  -16.2510   21.8063 C.ar    1  UNL1       -0.0003
     10 C         -11.1408  -17.0617   22.7196 C.ar    1  UNL1       -0.0000
     11 C         -12.6322  -17.0216   22.5645 C.ar    1  UNL1       -0.0000
     12 C         -13.5032  -17.8322   23.4778 C.ar    1  UNL1       -0.0000
     13 C         -12.8829  -18.6830   24.5462 C.ar    1  UNL1       -0.0000
     14 C         -11.3914  -18.7231   24.7013 C.ar    1  UNL1       -0.0000
     15 C         -10.5204  -17.9124   23.7880 C.ar    1  UNL1       -0.0003
     16 C          -9.0290  -17.9525   23.9430 C.ar    1  UNL1       -0.0042
     17 C          -7.2820  -14.6606   23.0668 C.3     1  UNL1        0.0177
     18 C          -6.9653  -15.8840   23.8749 C.3     1  UNL1        0.0613
     19 N          -6.9474  -15.8095   25.3729 N.3     1  UNL1       -0.2713
     20 C          -8.2325  -15.8842   26.1429 C.3     1  UNL1        0.0896
     21 C          -5.6444  -15.6602   26.1008 C.3     1  UNL1        0.0896
@<TRIPOS>BOND
     1    17    18    1
     2    18    19    1
     3    19    20    1
     4    19    21    1
     5    18     1    1
     6     1     7    1
     7     7     8   ar
     8     8     9   ar
     9     9    10   ar
    10    10    11   ar
    11    11    12   ar
    12    12    13   ar
    13    13    14   ar
    14    14    15   ar
    15    15    16   ar
    16     1     2    1
    17     2     3    1
    18     3     4    1
    19     4     5    1
    20     5     6    1
    21     6     1    1
    22    16     7   ar
    23    15    10   ar
