@<TRIPOS>MOLECULE
*****
 33 36 0 0 0
SMALL
GASTEIGER

@<TRIPOS>ATOM
      1 C          -8.9651  -18.3587   20.9709 C.ar    1  UNL1        0.0951
      2 C          -9.7639  -18.9004   19.8227 C.ar    1  UNL1        0.1454
      3 F         -11.1507  -18.3894   19.5667 F       1  UNL1       -0.2040
      4 C          -9.1759  -19.9530   18.9304 C.ar    1  UNL1        0.0312
      5 C          -7.7890  -20.4641   19.1864 C.ar    1  UNL1        0.0204
      6 C          -6.9902  -19.9223   20.3347 C.ar    1  UNL1        0.0924
      7 C          -7.5782  -18.8697   21.2269 C.ar    1  UNL1        0.1598
      8 F          -6.7794  -18.3280   22.3752 F       1  UNL1       -0.2026
      9 C          -9.5531  -17.3061   21.8632 C.2     1  UNL1        0.2036
     10 O          -9.9316  -15.9693   21.2976 O.2     1  UNL1       -0.2863
     11 C          -5.9353  -14.8444   25.8183 C.3     1  UNL1        0.0307
     12 C          -7.1235  -15.7595   25.7902 C.2     1  UNL1        0.0074
     13 C          -7.6843  -16.3001   27.0720 C.2     1  UNL1        0.2278
     14 N          -8.8725  -17.2152   27.0439 N.2     1  UNL1       -0.0314
     15 C          -9.4999  -17.5897   25.7339 C.2     1  UNL1        0.3720
     16 N         -10.6701  -18.4648   25.3952 N.2     1  UNL1       -0.0307
     17 C         -10.8325  -18.4651   23.9040 C.2     1  UNL1        0.2390
     18 C          -9.7626  -17.5901   23.3210 C.2     1  UNL1        0.0896
     19 C          -8.9390  -17.0491   24.4520 C.2     1  UNL1        0.0771
     20 C          -7.7508  -16.1340   24.4802 C.3     1  UNL1        0.0602
     21 N          -5.6034  -20.4334   20.5906 N.pl3   1  UNL1       -0.2127
     22 H          -5.4472  -21.3991   20.7012 H       1  UNL1        0.1738
     23 S          -4.4544  -19.4730   20.6782 S.O2    1  UNL1        0.0759
     24 O          -4.9023  -18.8208   19.4039 O.2     1  UNL1       -0.1499
     25 O          -4.0065  -20.1251   21.9526 O.2     1  UNL1       -0.1499
     26 C          -3.3055  -18.5126   20.7658 C.ar    1  UNL1        0.1547
     27 C          -2.2139  -18.5534   19.7378 C.ar    1  UNL1        0.0521
     28 C          -1.0649  -17.5931   19.8254 C.ar    1  UNL1        0.1416
     29 F           0.0266  -17.6339   18.7974 F       1  UNL1       -0.2041
     30 C          -1.0075  -16.5920   20.9410 C.ar    1  UNL1        0.0320
     31 C          -2.0991  -16.5512   21.9690 C.ar    1  UNL1        0.0333
     32 C          -3.2481  -17.5115   21.8814 C.ar    1  UNL1        0.1590
     33 F          -4.3397  -17.4707   22.9093 F       1  UNL1       -0.2027
@<TRIPOS>BOND
     1    11    12    1
     2    12    13    2
     3    13    14    1
     4    14    15    2
     5    15    16    1
     6    16    17    2
     7    17    18    1
     8    18     9    1
     9     9    10    2
    10     9     1    1
    11     1     2   ar
    12     2     3    1
    13     2     4   ar
    14     4     5   ar
    15     5     6   ar
    16     6    21    1
    17    21    23    1
    18    23    24    2
    19    23    25    2
    20    23    26    1
    21    26    27   ar
    22    27    28   ar
    23    28    29    1
    24    28    30   ar
    25    30    31   ar
    26    31    32   ar
    27    32    33    1
    28     6     7   ar
    29     7     8    1
    30    18    19    2
    31    19    20    1
    32    20    12    1
    33    19    15    1
    34     7     1   ar
    35    32    26   ar
    36    21    22    1
@<TRIPOS>MOLECULE
*****
 33 36 0 0 0
SMALL
GASTEIGER

@<TRIPOS>ATOM
      1 C         -10.6132  -18.8734   22.2103 C.ar    1  UNL1        0.0951
      2 C         -11.5717  -18.3201   21.1978 C.ar    1  UNL1        0.1454
      3 F         -12.8671  -17.7110   21.6460 F       1  UNL1       -0.2040
      4 C         -11.2347  -18.3759   19.7372 C.ar    1  UNL1        0.0312
      5 C          -9.9393  -18.9850   19.2891 C.ar    1  UNL1        0.0204
      6 C          -8.9808  -19.5383   20.3017 C.ar    1  UNL1        0.0924
      7 C          -9.3177  -19.4826   21.7623 C.ar    1  UNL1        0.1598
      8 F          -8.3592  -20.0359   22.7747 F       1  UNL1       -0.2026
      9 C         -10.9502  -18.8176   23.6709 C.2     1  UNL1        0.2036
     10 O         -12.2088  -19.4590   24.1753 O.2     1  UNL1       -0.2863
     11 C          -7.4318  -14.5314   21.6606 C.3     1  UNL1        0.0307
     12 C          -7.7395  -15.2269   22.9535 C.2     1  UNL1        0.0074
     13 C          -7.0205  -14.8294   24.2085 C.2     1  UNL1        0.2278
     14 N          -7.3282  -15.5250   25.5014 N.2     1  UNL1       -0.0314
     15 C          -8.3547  -16.6180   25.5393 C.2     1  UNL1        0.3720
     16 N          -8.8651  -17.4773   26.6578 N.2     1  UNL1       -0.0307
     17 C          -9.8995  -18.4059   26.0941 C.2     1  UNL1        0.2390
     18 C         -10.0284  -18.1205   24.6271 C.2     1  UNL1        0.0896
     19 C          -9.0736  -17.0155   24.2843 C.2     1  UNL1        0.0771
     20 C          -8.7660  -16.3200   22.9914 C.3     1  UNL1        0.0602
     21 N          -7.6854  -20.1475   19.8535 N.pl3   1  UNL1       -0.2127
     22 H          -7.6805  -20.8209   19.1354 H       1  UNL1        0.1738
     23 S          -6.3974  -19.7305   20.4995 S.O2    1  UNL1        0.0759
     24 O          -6.6888  -18.2996   20.1570 O.2     1  UNL1       -0.1499
     25 O          -6.1059  -21.1615   20.8419 O.2     1  UNL1       -0.1499
     26 C          -5.1094  -19.3136   21.1455 C.ar    1  UNL1        0.1547
     27 C          -5.1278  -18.6155   22.4730 C.ar    1  UNL1        0.0521
     28 C          -3.8398  -18.1986   23.1190 C.ar    1  UNL1        0.1416
     29 F          -3.8582  -17.5005   24.4465 F       1  UNL1       -0.2041
     30 C          -2.5335  -18.4798   22.4375 C.ar    1  UNL1        0.0320
     31 C          -2.5151  -19.1779   21.1100 C.ar    1  UNL1        0.0333
     32 C          -3.8030  -19.5948   20.4640 C.ar    1  UNL1        0.1590
     33 F          -3.7847  -20.2929   19.1365 F       1  UNL1       -0.2027
@<TRIPOS>BOND
     1    11    12    1
     2    12    13    2
     3    13    14    1
     4    14    15    2
     5    15    16    1
     6    16    17    2
     7    17    18    1
     8    18     9    1
     9     9    10    2
    10     9     1    1
    11     1     2   ar
    12     2     3    1
    13     2     4   ar
    14     4     5   ar
    15     5     6   ar
    16     6    21    1
    17    21    23    1
    18    23    24    2
    19    23    25    2
    20    23    26    1
    21    26    27   ar
    22    27    28   ar
    23    28    29    1
    24    28    30   ar
    25    30    31   ar
    26    31    32   ar
    27    32    33    1
    28     6     7   ar
    29     7     8    1
    30    18    19    2
    31    19    20    1
    32    20    12    1
    33    19    15    1
    34     7     1   ar
    35    32    26   ar
    36    21    22    1
@<TRIPOS>MOLECULE
*****
 33 36 0 0 0
SMALL
GASTEIGER

@<TRIPOS>ATOM
      1 C          -9.8995  -17.5964   21.3772 C.ar    1  UNL1        0.0951
      2 C         -11.0277  -17.7286   20.3976 C.ar    1  UNL1        0.1454
      3 F         -12.1997  -16.7954   20.4731 F       1  UNL1       -0.2040
      4 C         -10.9841  -18.7939   19.3425 C.ar    1  UNL1        0.0312
      5 C          -9.8122  -19.7271   19.2670 C.ar    1  UNL1        0.0204
      6 C          -8.6839  -19.5950   20.2466 C.ar    1  UNL1        0.0924
      7 C          -8.7275  -18.5297   21.3017 C.ar    1  UNL1        0.1598
      8 F          -7.5993  -18.3976   22.2813 F       1  UNL1       -0.2026
      9 C          -9.9432  -16.5311   22.4323 C.2     1  UNL1        0.2036
     10 O         -11.2531  -16.1403   23.0497 O.2     1  UNL1       -0.2863
     11 C          -8.4837  -16.5905   28.1470 C.3     1  UNL1        0.0307
     12 C          -7.9454  -16.0655   26.8491 C.2     1  UNL1        0.0074
     13 C          -6.6542  -15.3025   26.8265 C.2     1  UNL1        0.2278
     14 N          -6.1159  -14.7775   25.5286 N.2     1  UNL1       -0.0314
     15 C          -6.8687  -15.0154   24.2533 C.2     1  UNL1        0.3720
     16 N          -6.5876  -14.6221   22.8334 N.2     1  UNL1       -0.0307
     17 C          -7.7050  -15.1420   21.9783 C.2     1  UNL1        0.2390
     18 C          -8.6768  -15.8567   22.8698 C.2     1  UNL1        0.0896
     19 C          -8.1599  -15.7784   24.2759 C.2     1  UNL1        0.0771
     20 C          -8.6983  -16.3035   25.5738 C.3     1  UNL1        0.0602
     21 N          -7.5120  -20.5282   20.1711 N.pl3   1  UNL1       -0.2127
     22 H          -7.6270  -21.4340   19.8030 H       1  UNL1        0.1738
     23 S          -6.1648  -20.0813   20.6563 S.O2    1  UNL1        0.0759
     24 O          -6.1204  -19.0418   19.5759 O.2     1  UNL1       -0.1499
     25 O          -6.2092  -21.1208   21.7368 O.2     1  UNL1       -0.1499
     26 C          -4.8176  -19.6344   21.1416 C.ar    1  UNL1        0.1547
     27 C          -4.7044  -18.8235   22.3985 C.ar    1  UNL1        0.0521
     28 C          -3.3573  -18.3766   22.8838 C.ar    1  UNL1        0.1416
     29 F          -3.2440  -17.5657   24.1406 F       1  UNL1       -0.2041
     30 C          -2.1234  -18.7406   22.1123 C.ar    1  UNL1        0.0320
     31 C          -2.2367  -19.5515   20.8555 C.ar    1  UNL1        0.0333
     32 C          -3.5838  -19.9984   20.3702 C.ar    1  UNL1        0.1590
     33 F          -3.6972  -20.8093   19.1134 F       1  UNL1       -0.2027
@<TRIPOS>BOND
     1    11    12    1
     2    12    13    2
     3    13    14    1
     4    14    15    2
     5    15    16    1
     6    16    17    2
     7    17    18    1
     8    18     9    1
     9     9    10    2
    10     9     1    1
    11     1     2   ar
    12     2     3    1
    13     2     4   ar
    14     4     5   ar
    15     5     6   ar
    16     6    21    1
    17    21    23    1
    18    23    24    2
    19    23    25    2
    20    23    26    1
    21    26    27   ar
    22    27    28   ar
    23    28    29    1
    24    28    30   ar
    25    30    31   ar
    26    31    32   ar
    27    32    33    1
    28     6     7   ar
    29     7     8    1
    30    18    19    2
    31    19    20    1
    32    20    12    1
    33    19    15    1
    34     7     1   ar
    35    32    26   ar
    36    21    22    1
@<TRIPOS>MOLECULE
*****
 33 36 0 0 0
SMALL
GASTEIGER

@<TRIPOS>ATOM
      1 C          -9.8555  -19.4977   21.9459 C.ar    1  UNL1        0.0951
      2 C         -10.7443  -19.0232   20.8347 C.ar    1  UNL1        0.1454
      3 F         -12.1170  -18.5029   21.1427 F       1  UNL1       -0.2040
      4 C         -10.2604  -19.0689   19.4156 C.ar    1  UNL1        0.0312
      5 C          -8.8877  -19.5892   19.1077 C.ar    1  UNL1        0.0204
      6 C          -7.9988  -20.0638   20.2189 C.ar    1  UNL1        0.0924
      7 C          -8.4827  -20.0181   21.6380 C.ar    1  UNL1        0.1598
      8 F          -7.5938  -20.4926   22.7491 F       1  UNL1       -0.2026
      9 C         -10.3393  -19.4520   23.3649 C.2     1  UNL1        0.2036
     10 O         -11.4098  -20.3976   23.8232 O.2     1  UNL1       -0.2863
     11 C          -7.8038  -14.5617   21.2559 C.3     1  UNL1        0.0307
     12 C          -8.0840  -15.2077   22.5803 C.2     1  UNL1        0.0074
     13 C          -7.6532  -14.5340   23.8494 C.2     1  UNL1        0.2278
     14 N          -7.9334  -15.1800   25.1739 N.2     1  UNL1       -0.0314
     15 C          -8.6444  -16.4995   25.2293 C.2     1  UNL1        0.3720
     16 N          -9.0556  -17.3707   26.3791 N.2     1  UNL1       -0.0307
     17 C          -9.7405  -18.5827   25.8207 C.2     1  UNL1        0.2390
     18 C          -9.7527  -18.4607   24.3257 C.2     1  UNL1        0.0896
     19 C          -9.0752  -17.1732   23.9602 C.2     1  UNL1        0.0771
     20 C          -8.7950  -16.5272   22.6358 C.3     1  UNL1        0.0602
     21 N          -6.6261  -20.5841   19.9109 N.pl3   1  UNL1       -0.2127
     22 H          -6.5170  -21.4712   19.4982 H       1  UNL1        0.1738
     23 S          -5.4195  -19.7528   20.2318 S.O2    1  UNL1        0.0759
     24 O          -4.5728  -20.9907   20.2555 O.2     1  UNL1       -0.1499
     25 O          -6.2661  -18.5148   20.2081 O.2     1  UNL1       -0.1499
     26 C          -4.2128  -18.9214   20.5527 C.ar    1  UNL1        0.1547
     27 C          -3.2447  -18.5545   19.4673 C.ar    1  UNL1        0.0521
     28 C          -2.0381  -17.7231   19.7881 C.ar    1  UNL1        0.1416
     29 F          -1.0700  -17.3562   18.7027 F       1  UNL1       -0.2041
     30 C          -1.7996  -17.2586   21.1943 C.ar    1  UNL1        0.0320
     31 C          -2.7678  -17.6255   22.2797 C.ar    1  UNL1        0.0333
     32 C          -3.9743  -18.4569   21.9589 C.ar    1  UNL1        0.1590
     33 F          -4.9425  -18.8238   23.0442 F       1  UNL1       -0.2027
@<TRIPOS>BOND
     1    11    12    1
     2    12    13    2
     3    13    14    1
     4    14    15    2
     5    15    16    1
     6    16    17    2
     7    17    18    1
     8    18     9    1
     9     9    10    2
    10     9     1    1
    11     1     2   ar
    12     2     3    1
    13     2     4   ar
    14     4     5   ar
    15     5     6   ar
    16     6    21    1
    17    21    23    1
    18    23    24    2
    19    23    25    2
    20    23    26    1
    21    26    27   ar
    22    27    28   ar
    23    28    29    1
    24    28    30   ar
    25    30    31   ar
    26    31    32   ar
    27    32    33    1
    28     6     7   ar
    29     7     8    1
    30    18    19    2
    31    19    20    1
    32    20    12    1
    33    19    15    1
    34     7     1   ar
    35    32    26   ar
    36    21    22    1
@<TRIPOS>MOLECULE
*****
 33 36 0 0 0
SMALL
GASTEIGER

@<TRIPOS>ATOM
      1 C         -11.1541   -6.2865   17.5057 C.ar    1  UNL1        0.0951
      2 C         -10.2380   -6.7119   18.6145 C.ar    1  UNL1        0.1454
      3 F         -10.1797   -8.1525   19.0282 F       1  UNL1       -0.2040
      4 C          -9.3801   -5.6967   19.3098 C.ar    1  UNL1        0.0312
      5 C          -9.4384   -4.2560   18.8962 C.ar    1  UNL1        0.0204
      6 C         -10.3546   -3.8306   17.7873 C.ar    1  UNL1        0.0924
      7 C         -11.2125   -4.8458   17.0920 C.ar    1  UNL1        0.1598
      8 F         -12.1286   -4.4203   15.9831 F       1  UNL1       -0.2026
      9 C         -12.0120   -7.3017   16.8104 C.2     1  UNL1        0.2036
     10 O         -11.3768   -8.3824   15.9866 O.2     1  UNL1       -0.2863
     11 C         -14.3853   -3.9956   21.0799 C.3     1  UNL1        0.0307
     12 C         -14.8342   -4.8878   19.9608 C.2     1  UNL1        0.0074
     13 C         -16.2978   -5.1117   19.7211 C.2     1  UNL1        0.2278
     14 N         -16.7467   -6.0039   18.6019 N.2     1  UNL1       -0.0314
     15 C         -15.7319   -6.6722   17.7225 C.2     1  UNL1        0.3720
     16 N         -15.8734   -7.5983   16.5511 N.2     1  UNL1       -0.0307
     17 C         -14.4971   -7.9468   16.0668 C.2     1  UNL1        0.2390
     18 C         -13.5050   -7.2361   16.9389 C.2     1  UNL1        0.0896
     19 C         -14.2682   -6.4484   17.9623 C.2     1  UNL1        0.0771
     20 C         -13.8194   -5.5562   19.0814 C.3     1  UNL1        0.0602
     21 N         -10.4129   -2.3899   17.3737 N.pl3   1  UNL1       -0.2127
     22 H          -9.6609   -1.9884   16.8811 H       1  UNL1        0.1738
     23 S         -11.6168   -1.5610   17.7105 S.O2    1  UNL1        0.0759
     24 O         -11.2799   -1.6641   19.1685 O.2     1  UNL1       -0.1499
     25 O         -11.9537   -1.4578   16.2525 O.2     1  UNL1       -0.1499
     26 C         -12.8208   -0.7321   18.0473 C.ar    1  UNL1        0.1547
     27 C         -14.0455   -1.3850   18.6162 C.ar    1  UNL1        0.0521
     28 C         -15.2495   -0.5561   18.9530 C.ar    1  UNL1        0.1416
     29 F         -16.4742   -1.2091   19.5220 F       1  UNL1       -0.2041
     30 C         -15.2287    0.9257   18.7209 C.ar    1  UNL1        0.0320
     31 C         -14.0040    1.5786   18.1519 C.ar    1  UNL1        0.0333
     32 C         -12.8000    0.7497   17.8151 C.ar    1  UNL1        0.1590
     33 F         -11.5753    1.4026   17.2462 F       1  UNL1       -0.2027
@<TRIPOS>BOND
     1    11    12    1
     2    12    13    2
     3    13    14    1
     4    14    15    2
     5    15    16    1
     6    16    17    2
     7    17    18    1
     8    18     9    1
     9     9    10    2
    10     9     1    1
    11     1     2   ar
    12     2     3    1
    13     2     4   ar
    14     4     5   ar
    15     5     6   ar
    16     6    21    1
    17    21    23    1
    18    23    24    2
    19    23    25    2
    20    23    26    1
    21    26    27   ar
    22    27    28   ar
    23    28    29    1
    24    28    30   ar
    25    30    31   ar
    26    31    32   ar
    27    32    33    1
    28     6     7   ar
    29     7     8    1
    30    18    19    2
    31    19    20    1
    32    20    12    1
    33    19    15    1
    34     7     1   ar
    35    32    26   ar
    36    21    22    1
@<TRIPOS>MOLECULE
*****
 33 36 0 0 0
SMALL
GASTEIGER

@<TRIPOS>ATOM
      1 C           4.9311   -2.7051   19.7784 C.ar    1  UNL1        0.0951
      2 C           6.3104   -2.5309   19.2152 C.ar    1  UNL1        0.1454
      3 F           7.4429   -3.3674   19.7325 F       1  UNL1       -0.2040
      4 C           6.5571   -1.5202   18.1346 C.ar    1  UNL1        0.0312
      5 C           5.4246   -0.6837   17.6172 C.ar    1  UNL1        0.0204
      6 C           4.0453   -0.8579   18.1805 C.ar    1  UNL1        0.0924
      7 C           3.7985   -1.8686   19.2611 C.ar    1  UNL1        0.1598
      8 F           2.4192   -2.0428   19.8243 F       1  UNL1       -0.2026
      9 C           4.6844   -3.7158   20.8590 C.2     1  UNL1        0.2036
     10 O           3.9844   -5.0027   20.5366 O.2     1  UNL1       -0.2863
     11 C           1.9371    0.4555   23.9965 C.3     1  UNL1        0.0307
     12 C           3.0610   -0.5244   24.1598 C.2     1  UNL1        0.0074
     13 C           3.8173   -0.5894   25.4535 C.2     1  UNL1        0.2278
     14 N           4.9411   -1.5693   25.6169 N.2     1  UNL1       -0.0314
     15 C           5.3087   -2.4842   24.4865 C.2     1  UNL1        0.3720
     16 N           6.3613   -3.5448   24.3552 N.2     1  UNL1       -0.0307
     17 C           6.2556   -4.1352   22.9804 C.2     1  UNL1        0.2390
     18 C           5.1376   -3.4396   22.2619 C.2     1  UNL1        0.0896
     19 C           4.5524   -2.4192   23.1928 C.2     1  UNL1        0.0771
     20 C           3.4285   -1.4393   23.0295 C.3     1  UNL1        0.0602
     21 N           2.9128   -0.0214   17.6632 N.pl3   1  UNL1       -0.2127
     22 H           2.6409   -0.0904   16.7195 H       1  UNL1        0.1738
     23 S           2.1944    0.9202   18.5836 S.O2    1  UNL1        0.0759
     24 O           3.5086    1.3677   19.1516 O.2     1  UNL1       -0.1499
     25 O           0.8802    0.4727   18.0158 O.2     1  UNL1       -0.1499
     26 C           1.4760    1.8619   19.5041 C.ar    1  UNL1        0.1547
     27 C           1.5882    3.3434   19.2983 C.ar    1  UNL1        0.0521
     28 C           0.8699    4.2851   20.2187 C.ar    1  UNL1        0.1416
     29 F           0.9821    5.7666   20.0128 F       1  UNL1       -0.2041
     30 C           0.0392    3.7452   21.3450 C.ar    1  UNL1        0.0320
     31 C          -0.0731    2.2636   21.5508 C.ar    1  UNL1        0.0333
     32 C           0.6453    1.3220   20.6304 C.ar    1  UNL1        0.1590
     33 F           0.5331   -0.1596   20.8362 F       1  UNL1       -0.2027
@<TRIPOS>BOND
     1    11    12    1
     2    12    13    2
     3    13    14    1
     4    14    15    2
     5    15    16    1
     6    16    17    2
     7    17    18    1
     8    18     9    1
     9     9    10    2
    10     9     1    1
    11     1     2   ar
    12     2     3    1
    13     2     4   ar
    14     4     5   ar
    15     5     6   ar
    16     6    21    1
    17    21    23    1
    18    23    24    2
    19    23    25    2
    20    23    26    1
    21    26    27   ar
    22    27    28   ar
    23    28    29    1
    24    28    30   ar
    25    30    31   ar
    26    31    32   ar
    27    32    33    1
    28     6     7   ar
    29     7     8    1
    30    18    19    2
    31    19    20    1
    32    20    12    1
    33    19    15    1
    34     7     1   ar
    35    32    26   ar
    36    21    22    1
@<TRIPOS>MOLECULE
*****
 33 36 0 0 0
SMALL
GASTEIGER

@<TRIPOS>ATOM
      1 C           3.8771   -1.6286   19.1195 C.ar    1  UNL1        0.0951
      2 C           5.0039   -0.9853   18.3669 C.ar    1  UNL1        0.1454
      3 F           6.2539   -1.7630   18.0791 F       1  UNL1       -0.2040
      4 C           4.8808    0.4355   17.9021 C.ar    1  UNL1        0.0312
      5 C           3.6308    1.2131   18.1899 C.ar    1  UNL1        0.0204
      6 C           2.5040    0.5698   18.9426 C.ar    1  UNL1        0.0924
      7 C           2.6271   -0.8510   19.4074 C.ar    1  UNL1        0.1598
      8 F           1.5002   -1.4942   20.1600 F       1  UNL1       -0.2026
      9 C           4.0002   -3.0495   19.5843 C.2     1  UNL1        0.2036
     10 O           3.0152   -4.0796   19.1167 O.2     1  UNL1       -0.2863
     11 C           3.7843   -1.2756   25.2055 C.3     1  UNL1        0.0307
     12 C           4.6806   -2.0751   24.3070 C.2     1  UNL1        0.0074
     13 C           5.9448   -2.6737   24.8487 C.2     1  UNL1        0.2278
     14 N           6.8411   -3.4732   23.9501 N.2     1  UNL1       -0.0314
     15 C           6.4732   -3.6743   22.5100 C.2     1  UNL1        0.3720
     16 N           7.1540   -4.4086   21.3932 N.2     1  UNL1       -0.0307
     17 C           6.3105   -4.2640   20.1612 C.2     1  UNL1        0.2390
     18 C           5.1084   -3.4402   20.5167 C.2     1  UNL1        0.0896
     19 C           5.2090   -3.0757   21.9683 C.2     1  UNL1        0.0771
     20 C           4.3127   -2.2762   22.8668 C.3     1  UNL1        0.0602
     21 N           1.2540    1.3474   19.2304 N.pl3   1  UNL1       -0.2127
     22 H           0.7038    1.6873   18.4881 H       1  UNL1        0.1738
     23 S           0.8423    1.6072   20.6492 S.O2    1  UNL1        0.0759
     24 O           2.0916    2.4087   20.8651 O.2     1  UNL1       -0.1499
     25 O          -0.4071    0.8058   20.4334 O.2     1  UNL1       -0.1499
     26 C           0.4305    1.8670   22.0681 C.ar    1  UNL1        0.1547
     27 C          -0.5363    2.9711   22.3782 C.ar    1  UNL1        0.0521
     28 C          -0.9481    3.2310   23.7970 C.ar    1  UNL1        0.1416
     29 F          -1.9148    4.3351   24.1071 F       1  UNL1       -0.2041
     30 C          -0.3931    2.3866   24.9056 C.ar    1  UNL1        0.0320
     31 C           0.5737    1.2825   24.5955 C.ar    1  UNL1        0.0333
     32 C           0.9855    1.0227   23.1767 C.ar    1  UNL1        0.1590
     33 F           1.9522   -0.0814   22.8665 F       1  UNL1       -0.2027
@<TRIPOS>BOND
     1    11    12    1
     2    12    13    2
     3    13    14    1
     4    14    15    2
     5    15    16    1
     6    16    17    2
     7    17    18    1
     8    18     9    1
     9     9    10    2
    10     9     1    1
    11     1     2   ar
    12     2     3    1
    13     2     4   ar
    14     4     5   ar
    15     5     6   ar
    16     6    21    1
    17    21    23    1
    18    23    24    2
    19    23    25    2
    20    23    26    1
    21    26    27   ar
    22    27    28   ar
    23    28    29    1
    24    28    30   ar
    25    30    31   ar
    26    31    32   ar
    27    32    33    1
    28     6     7   ar
    29     7     8    1
    30    18    19    2
    31    19    20    1
    32    20    12    1
    33    19    15    1
    34     7     1   ar
    35    32    26   ar
    36    21    22    1
@<TRIPOS>MOLECULE
*****
 33 36 0 0 0
SMALL
GASTEIGER

@<TRIPOS>ATOM
      1 C         -12.0386   -5.8772   18.0817 C.ar    1  UNL1        0.0951
      2 C         -10.8122   -6.3320   18.8159 C.ar    1  UNL1        0.1454
      3 F         -10.7334   -7.7318   19.3493 F       1  UNL1       -0.2040
      4 C          -9.6646   -5.3872   19.0166 C.ar    1  UNL1        0.0312
      5 C          -9.7434   -3.9874   18.4832 C.ar    1  UNL1        0.0204
      6 C         -10.9699   -3.5326   17.7491 C.ar    1  UNL1        0.0924
      7 C         -12.1175   -4.4774   17.5483 C.ar    1  UNL1        0.1598
      8 F         -13.3439   -4.0225   16.8141 F       1  UNL1       -0.2026
      9 C         -13.1862   -6.8220   17.8810 C.2     1  UNL1        0.2036
     10 O         -13.0348   -8.0027   16.9682 O.2     1  UNL1       -0.2863
     11 C         -16.9028  -11.3376   18.6476 C.3     1  UNL1        0.0307
     12 C         -16.8229   -9.8739   18.9657 C.2     1  UNL1        0.0074
     13 C         -17.9478   -9.2027   19.6965 C.2     1  UNL1        0.2278
     14 N         -17.8679   -7.7390   20.0145 N.2     1  UNL1       -0.0314
     15 C         -16.6632   -6.9465   19.6017 C.2     1  UNL1        0.3720
     16 N         -16.3053   -5.5002   19.7755 N.2     1  UNL1       -0.0307
     17 C         -14.9593   -5.2775   19.1521 C.2     1  UNL1        0.2390
     18 C         -14.4852   -6.5862   18.5930 C.2     1  UNL1        0.0896
     19 C         -15.5383   -7.6177   18.8709 C.2     1  UNL1        0.0771
     20 C         -15.6182   -9.0814   18.5529 C.3     1  UNL1        0.0602
     21 N         -11.0487   -2.1328   17.2157 N.pl3   1  UNL1       -0.2127
     22 H         -10.3652   -1.8065   16.5868 H       1  UNL1        0.1738
     23 S         -12.1690   -1.2303   17.6404 S.O2    1  UNL1        0.0759
     24 O         -11.6699   -1.2760   19.0541 O.2     1  UNL1       -0.1499
     25 O         -12.6682   -1.1846   16.2267 O.2     1  UNL1       -0.1499
     26 C         -13.2893   -0.3277   18.0652 C.ar    1  UNL1        0.1547
     27 C         -14.4500   -0.8844   18.8352 C.ar    1  UNL1        0.0521
     28 C         -15.5703    0.0180   19.2599 C.ar    1  UNL1        0.1416
     29 F         -16.7310   -0.5387   20.0299 F       1  UNL1       -0.2041
     30 C         -15.5300    1.4772   18.9147 C.ar    1  UNL1        0.0320
     31 C         -14.3693    2.0339   18.1447 C.ar    1  UNL1        0.0333
     32 C         -13.2490    1.1314   17.7199 C.ar    1  UNL1        0.1590
     33 F         -12.0883    1.6880   16.9499 F       1  UNL1       -0.2027
@<TRIPOS>BOND
     1    11    12    1
     2    12    13    2
     3    13    14    1
     4    14    15    2
     5    15    16    1
     6    16    17    2
     7    17    18    1
     8    18     9    1
     9     9    10    2
    10     9     1    1
    11     1     2   ar
    12     2     3    1
    13     2     4   ar
    14     4     5   ar
    15     5     6   ar
    16     6    21    1
    17    21    23    1
    18    23    24    2
    19    23    25    2
    20    23    26    1
    21    26    27   ar
    22    27    28   ar
    23    28    29    1
    24    28    30   ar
    25    30    31   ar
    26    31    32   ar
    27    32    33    1
    28     6     7   ar
    29     7     8    1
    30    18    19    2
    31    19    20    1
    32    20    12    1
    33    19    15    1
    34     7     1   ar
    35    32    26   ar
    36    21    22    1
@<TRIPOS>MOLECULE
*****
 33 36 0 0 0
SMALL
GASTEIGER

@<TRIPOS>ATOM
      1 C           5.0638   -3.2109   22.8376 C.ar    1  UNL1        0.0951
      2 C           4.2391   -2.1550   23.5121 C.ar    1  UNL1        0.1454
      3 F           3.0576   -1.5605   22.8045 F       1  UNL1       -0.2040
      4 C           4.5959   -1.6936   24.8940 C.ar    1  UNL1        0.0312
      5 C           5.7774   -2.2881   25.6016 C.ar    1  UNL1        0.0204
      6 C           6.6021   -3.3441   24.9270 C.ar    1  UNL1        0.0924
      7 C           6.2453   -3.8055   23.5451 C.ar    1  UNL1        0.1598
      8 F           7.0701   -4.8614   22.8707 F       1  UNL1       -0.2026
      9 C           4.7070   -3.6723   21.4557 C.2     1  UNL1        0.2036
     10 O           3.9397   -4.9471   21.2653 O.2     1  UNL1       -0.2863
     11 C           0.9565    0.3241   19.2753 C.3     1  UNL1        0.0307
     12 C           2.3339   -0.2014   18.9986 C.2     1  UNL1        0.0074
     13 C           3.1326    0.3527   17.8562 C.2     1  UNL1        0.2278
     14 N           4.5100   -0.1727   17.5795 N.2     1  UNL1       -0.0314
     15 C           5.0888   -1.2523   18.4452 C.2     1  UNL1        0.3720
     16 N           6.4097   -1.9624   18.4156 N.2     1  UNL1       -0.0307
     17 C           6.4275   -2.9554   19.5397 C.2     1  UNL1        0.2390
     18 C           5.1176   -2.8590   20.2641 C.2     1  UNL1        0.0896
     19 C           4.2902   -1.8064   19.5876 C.2     1  UNL1        0.0771
     20 C           2.9128   -1.2809   19.8643 C.3     1  UNL1        0.0602
     21 N           7.7836   -3.9386   25.6346 N.pl3   1  UNL1       -0.2127
     22 H           8.6245   -4.0911   25.1458 H       1  UNL1        0.1738
     23 S           7.6839   -4.3008   27.0868 S.O2    1  UNL1        0.0759
     24 O           6.6997   -5.3813   26.7498 O.2     1  UNL1       -0.1499
     25 O           8.6682   -3.2202   27.4239 O.2     1  UNL1       -0.1499
     26 C           7.5843   -4.6630   28.5391 C.ar    1  UNL1        0.1547
     27 C           6.7440   -3.8323   29.4631 C.ar    1  UNL1        0.0521
     28 C           6.6443   -4.1944   30.9153 C.ar    1  UNL1        0.1416
     29 F           5.8041   -3.3637   31.8394 F       1  UNL1       -0.2041
     30 C           7.3849   -5.3872   31.4435 C.ar    1  UNL1        0.0320
     31 C           8.2251   -6.2178   30.5194 C.ar    1  UNL1        0.0333
     32 C           8.3248   -5.8557   29.0672 C.ar    1  UNL1        0.1590
     33 F           9.1650   -6.6863   28.1430 F       1  UNL1       -0.2027
@<TRIPOS>BOND
     1    11    12    1
     2    12    13    2
     3    13    14    1
     4    14    15    2
     5    15    16    1
     6    16    17    2
     7    17    18    1
     8    18     9    1
     9     9    10    2
    10     9     1    1
    11     1     2   ar
    12     2     3    1
    13     2     4   ar
    14     4     5   ar
    15     5     6   ar
    16     6    21    1
    17    21    23    1
    18    23    24    2
    19    23    25    2
    20    23    26    1
    21    26    27   ar
    22    27    28   ar
    23    28    29    1
    24    28    30   ar
    25    30    31   ar
    26    31    32   ar
    27    32    33    1
    28     6     7   ar
    29     7     8    1
    30    18    19    2
    31    19    20    1
    32    20    12    1
    33    19    15    1
    34     7     1   ar
    35    32    26   ar
    36    21    22    1
