@<TRIPOS>MOLECULE
*****
 24 26 0 0 0
SMALL
GASTEIGER

@<TRIPOS>ATOM
      1 O         -10.2827  -17.9682   20.7182 O.2     1  UNL1       -0.2262
      2 C          -9.1530  -17.8962   21.7023 C.2     1  UNL1        0.4052
      3 N          -7.8352  -18.5358   21.3794 N.am    1  UNL1       -0.2460
      4 C          -6.7054  -18.4638   22.3636 C.3     1  UNL1        0.0968
      5 C          -5.3876  -19.1034   22.0407 C.3     1  UNL1        0.0234
      6 C          -5.1995  -19.8151   20.7337 C.3     1  UNL1        0.0230
      7 C          -6.3293  -19.8871   19.7496 C.3     1  UNL1        0.0234
      8 C          -7.6471  -19.2474   20.0725 C.3     1  UNL1        0.0968
      9 O          -9.3411  -17.1846   23.0093 O.3     1  UNL1       -0.4295
     10 C          -8.6007  -15.9089   23.2820 C.3     1  UNL1        0.2367
     11 C          -7.9125  -15.7081   24.5996 C.ar    1  UNL1        0.0213
     12 C          -8.6980  -15.7835   25.8753 C.ar    1  UNL1       -0.0007
     13 C          -8.0097  -15.5827   27.1928 C.ar    1  UNL1       -0.0002
     14 C          -6.5360  -15.3065   27.2347 C.ar    1  UNL1       -0.0000
     15 C          -5.7505  -15.2311   25.9591 C.ar    1  UNL1       -0.0002
     16 C          -6.4387  -15.4319   24.6416 C.ar    1  UNL1       -0.0007
     17 C          -3.8817  -20.4547   20.4109 C.3     1  UNL1        0.0887
     18 N          -2.6607  -20.0996   21.2066 N.pl3   1  UNL1       -0.3130
     19 H          -2.4059  -20.6439   21.9864 H       1  UNL1        0.1487
     20 C          -1.8280  -18.9153   20.8142 C.ar    1  UNL1        0.1599
     21 N          -0.5834  -18.9509   19.9776 N.ar    1  UNL1       -0.2227
     22 C          -0.0798  -17.5451   19.8358 C.ar    1  UNL1        0.1079
     23 C          -1.0132  -16.6406   20.5848 C.ar    1  UNL1        0.0588
     24 S          -2.0936  -17.4875   21.1894 S.2     1  UNL1       -0.0512
@<TRIPOS>BOND
     1     1     2    2
     2     2     9    1
     3     9    10    1
     4    10    11    1
     5    11    12   ar
     6    12    13   ar
     7    13    14   ar
     8    14    15   ar
     9    15    16   ar
    10     2     3   am
    11     3     4    1
    12     4     5    1
    13     5     6    1
    14     6    17    1
    15    17    18    1
    16    18    20    1
    17    20    21   ar
    18    21    22   ar
    19    22    23   ar
    20    23    24   ar
    21     6     7    1
    22     7     8    1
    23    16    11   ar
    24     8     3    1
    25    24    20   ar
    26    18    19    1
@<TRIPOS>MOLECULE
*****
 24 26 0 0 0
SMALL
GASTEIGER

@<TRIPOS>ATOM
      1 O          -6.4011  -14.7351   24.9734 O.2     1  UNL1       -0.2262
      2 C          -6.1167  -15.7729   23.9285 C.2     1  UNL1        0.4052
      3 N          -7.1505  -16.8087   23.5993 N.am    1  UNL1       -0.2460
      4 C          -6.8661  -17.8466   22.5543 C.3     1  UNL1        0.0968
      5 C          -7.8999  -18.8824   22.2251 C.3     1  UNL1        0.0234
      6 C          -9.2182  -18.8803   22.9409 C.3     1  UNL1        0.0230
      7 C          -9.5025  -17.8424   23.9859 C.3     1  UNL1        0.0234
      8 C          -8.4687  -16.8066   24.3150 C.3     1  UNL1        0.0968
      9 O          -4.7984  -15.7750   23.2127 O.3     1  UNL1       -0.4295
     10 C          -3.7963  -16.8562   23.4897 C.3     1  UNL1        0.2367
     11 C          -2.9646  -17.4122   22.3720 C.ar    1  UNL1        0.0213
     12 C          -3.0309  -18.8742   22.0433 C.ar    1  UNL1       -0.0007
     13 C          -2.1992  -19.4301   20.9257 C.ar    1  UNL1       -0.0002
     14 C          -1.3012  -18.5240   20.1367 C.ar    1  UNL1       -0.0000
     15 C          -1.2348  -17.0620   20.4654 C.ar    1  UNL1       -0.0002
     16 C          -2.0665  -16.5061   21.5830 C.ar    1  UNL1       -0.0007
     17 C         -10.2520  -19.9161   22.6117 C.3     1  UNL1        0.0887
     18 N         -11.1344  -19.7400   21.4116 N.pl3   1  UNL1       -0.3130
     19 H         -11.4971  -20.5288   20.9474 H       1  UNL1        0.1487
     20 C         -11.4643  -18.3622   20.9189 C.ar    1  UNL1        0.1599
     21 N         -10.7823  -17.6413   19.7940 N.ar    1  UNL1       -0.2227
     22 C         -11.4305  -16.2969   19.6443 C.ar    1  UNL1        0.1079
     23 C         -12.5132  -16.1869   20.6767 C.ar    1  UNL1        0.0588
     24 S         -12.5340  -17.4633   21.4645 S.2     1  UNL1       -0.0512
@<TRIPOS>BOND
     1     1     2    2
     2     2     9    1
     3     9    10    1
     4    10    11    1
     5    11    12   ar
     6    12    13   ar
     7    13    14   ar
     8    14    15   ar
     9    15    16   ar
    10     2     3   am
    11     3     4    1
    12     4     5    1
    13     5     6    1
    14     6    17    1
    15    17    18    1
    16    18    20    1
    17    20    21   ar
    18    21    22   ar
    19    22    23   ar
    20    23    24   ar
    21     6     7    1
    22     7     8    1
    23    16    11   ar
    24     8     3    1
    25    24    20   ar
    26    18    19    1
@<TRIPOS>MOLECULE
*****
 24 26 0 0 0
SMALL
GASTEIGER

@<TRIPOS>ATOM
      1 O          -5.3956  -14.7025   25.3089 O.2     1  UNL1       -0.2262
      2 C          -6.3484  -15.4209   24.4000 C.2     1  UNL1        0.4052
      3 N          -5.8842  -16.6145   23.6191 N.am    1  UNL1       -0.2460
      4 C          -6.8370  -17.3329   22.7102 C.3     1  UNL1        0.0968
      5 C          -6.3728  -18.5265   21.9293 C.3     1  UNL1        0.0234
      6 C          -4.9558  -19.0017   22.0573 C.3     1  UNL1        0.0230
      7 C          -4.0030  -18.2833   22.9662 C.3     1  UNL1        0.0234
      8 C          -4.4673  -17.0896   23.7471 C.3     1  UNL1        0.0968
      9 O          -7.7654  -14.9457   24.2720 O.3     1  UNL1       -0.4295
     10 C          -8.8435  -15.5676   25.1092 C.3     1  UNL1        0.2367
     11 C          -9.6366  -16.7227   24.5736 C.ar    1  UNL1        0.0213
     12 C         -10.4514  -16.5583   23.3250 C.ar    1  UNL1       -0.0007
     13 C         -11.2444  -17.7134   22.7895 C.ar    1  UNL1       -0.0002
     14 C         -11.2227  -19.0329   23.5026 C.ar    1  UNL1       -0.0000
     15 C         -10.4079  -19.1973   24.7512 C.ar    1  UNL1       -0.0002
     16 C          -9.6149  -18.0422   25.2867 C.ar    1  UNL1       -0.0007
     17 C          -4.4916  -20.1953   21.2764 C.3     1  UNL1        0.0887
     18 N          -3.0302  -20.3880   20.9990 N.pl3   1  UNL1       -0.3130
     19 H          -2.5911  -21.2357   21.2395 H       1  UNL1        0.1487
     20 C          -2.2377  -19.2892   20.3552 C.ar    1  UNL1        0.1599
     21 N          -0.9079  -18.7727   20.8191 N.ar    1  UNL1       -0.2227
     22 C          -0.4842  -17.6782   19.8851 C.ar    1  UNL1        0.1079
     23 C          -1.5521  -17.5181   18.8438 C.ar    1  UNL1        0.0588
     24 S          -2.6358  -18.5138   19.1344 S.2     1  UNL1       -0.0512
@<TRIPOS>BOND
     1     1     2    2
     2     2     9    1
     3     9    10    1
     4    10    11    1
     5    11    12   ar
     6    12    13   ar
     7    13    14   ar
     8    14    15   ar
     9    15    16   ar
    10     2     3   am
    11     3     4    1
    12     4     5    1
    13     5     6    1
    14     6    17    1
    15    17    18    1
    16    18    20    1
    17    20    21   ar
    18    21    22   ar
    19    22    23   ar
    20    23    24   ar
    21     6     7    1
    22     7     8    1
    23    16    11   ar
    24     8     3    1
    25    24    20   ar
    26    18    19    1
@<TRIPOS>MOLECULE
*****
 24 26 0 0 0
SMALL
GASTEIGER

@<TRIPOS>ATOM
      1 O          -9.0332  -16.5175   22.8177 O.2     1  UNL1       -0.2262
      2 C          -8.8619  -17.3776   21.6007 C.2     1  UNL1        0.4052
      3 N          -7.5916  -18.1497   21.4008 N.am    1  UNL1       -0.2460
      4 C          -7.4203  -19.0097   20.1838 C.3     1  UNL1        0.0968
      5 C          -6.1499  -19.7818   19.9839 C.3     1  UNL1        0.0234
      6 C          -5.0508  -19.6939   21.0009 C.3     1  UNL1        0.0230
      7 C          -5.2221  -18.8339   22.2179 C.3     1  UNL1        0.0234
      8 C          -6.4925  -18.0617   22.4178 C.3     1  UNL1        0.0968
      9 O          -9.9610  -17.4655   20.5837 O.3     1  UNL1       -0.4295
     10 C         -11.1230  -18.3860   20.8128 C.3     1  UNL1        0.2367
     11 C         -11.7647  -18.4611   22.1666 C.ar    1  UNL1        0.0213
     12 C         -11.0934  -19.2184   23.2738 C.ar    1  UNL1       -0.0007
     13 C         -11.7351  -19.2936   24.6275 C.ar    1  UNL1       -0.0002
     14 C         -13.0481  -18.6115   24.8740 C.ar    1  UNL1       -0.0000
     15 C         -13.7194  -17.8542   23.7668 C.ar    1  UNL1       -0.0002
     16 C         -13.0777  -17.7790   22.4131 C.ar    1  UNL1       -0.0007
     17 C          -3.7804  -20.4660   20.8009 C.3     1  UNL1        0.0887
     18 N          -2.5219  -20.0314   21.4918 N.pl3   1  UNL1       -0.3130
     19 H          -2.2156  -20.5035   22.2995 H       1  UNL1        0.1487
     20 C          -1.7302  -18.8774   20.9520 C.ar    1  UNL1        0.1599
     21 N          -0.5416  -18.9725   20.0418 N.ar    1  UNL1       -0.2227
     22 C          -0.0648  -17.5796   19.7548 C.ar    1  UNL1        0.1079
     23 C          -0.9588  -16.6235   20.4876 C.ar    1  UNL1        0.0588
     24 S          -1.9880  -17.4256   21.2274 S.2     1  UNL1       -0.0512
@<TRIPOS>BOND
     1     1     2    2
     2     2     9    1
     3     9    10    1
     4    10    11    1
     5    11    12   ar
     6    12    13   ar
     7    13    14   ar
     8    14    15   ar
     9    15    16   ar
    10     2     3   am
    11     3     4    1
    12     4     5    1
    13     5     6    1
    14     6    17    1
    15    17    18    1
    16    18    20    1
    17    20    21   ar
    18    21    22   ar
    19    22    23   ar
    20    23    24   ar
    21     6     7    1
    22     7     8    1
    23    16    11   ar
    24     8     3    1
    25    24    20   ar
    26    18    19    1
@<TRIPOS>MOLECULE
*****
 24 26 0 0 0
SMALL
GASTEIGER

@<TRIPOS>ATOM
      1 O          -9.5347  -16.0382   24.5805 O.2     1  UNL1       -0.2262
      2 C          -9.5921  -17.4850   24.1886 C.2     1  UNL1        0.4052
      3 N          -8.4521  -18.1037   23.4352 N.am    1  UNL1       -0.2460
      4 C          -8.5094  -19.5504   23.0433 C.3     1  UNL1        0.0968
      5 C          -7.3694  -20.1691   22.2899 C.3     1  UNL1        0.0234
      6 C          -6.1720  -19.3410   21.9284 C.3     1  UNL1        0.0230
      7 C          -6.1147  -17.8942   22.3203 C.3     1  UNL1        0.0234
      8 C          -7.2548  -17.2756   23.0737 C.3     1  UNL1        0.0968
      9 O         -10.7894  -18.3131   24.5501 O.3     1  UNL1       -0.4295
     10 C         -11.9613  -18.3848   23.6165 C.3     1  UNL1        0.2367
     11 C         -11.8193  -17.9198   22.1975 C.ar    1  UNL1        0.0213
     12 C         -11.2642  -18.8463   21.1566 C.ar    1  UNL1       -0.0007
     13 C         -11.1222  -18.3812   19.7376 C.ar    1  UNL1       -0.0002
     14 C         -11.5353  -16.9897   19.3595 C.ar    1  UNL1       -0.0000
     15 C         -12.0904  -16.0632   20.4004 C.ar    1  UNL1       -0.0002
     16 C         -12.2324  -16.5282   21.8194 C.ar    1  UNL1       -0.0007
     17 C          -5.0320  -19.9597   21.1750 C.3     1  UNL1        0.0887
     18 N          -3.6206  -19.7262   21.6258 N.pl3   1  UNL1       -0.3130
     19 H          -3.3304  -20.0341   22.5147 H       1  UNL1        0.1487
     20 C          -2.6512  -19.0235   20.7222 C.ar    1  UNL1        0.1599
     21 N          -1.1849  -18.8364   20.9771 N.ar    1  UNL1       -0.2227
     22 C          -0.6053  -18.0817   19.8175 C.ar    1  UNL1        0.1079
     23 C          -1.7135  -17.8024   18.8458 C.ar    1  UNL1        0.0588
     24 S          -2.9780  -18.3844   19.4050 S.2     1  UNL1       -0.0512
@<TRIPOS>BOND
     1     1     2    2
     2     2     9    1
     3     9    10    1
     4    10    11    1
     5    11    12   ar
     6    12    13   ar
     7    13    14   ar
     8    14    15   ar
     9    15    16   ar
    10     2     3   am
    11     3     4    1
    12     4     5    1
    13     5     6    1
    14     6    17    1
    15    17    18    1
    16    18    20    1
    17    20    21   ar
    18    21    22   ar
    19    22    23   ar
    20    23    24   ar
    21     6     7    1
    22     7     8    1
    23    16    11   ar
    24     8     3    1
    25    24    20   ar
    26    18    19    1
@<TRIPOS>MOLECULE
*****
 24 26 0 0 0
SMALL
GASTEIGER

@<TRIPOS>ATOM
      1 O          -9.7182  -19.8247   23.8187 O.2     1  UNL1       -0.2262
      2 C          -9.3458  -19.1164   22.5500 C.2     1  UNL1        0.4052
      3 N          -8.0574  -19.4471   21.8568 N.am    1  UNL1       -0.2460
      4 C          -7.6850  -18.7388   20.5881 C.3     1  UNL1        0.0968
      5 C          -6.3966  -19.0695   19.8949 C.3     1  UNL1        0.0234
      6 C          -5.4805  -20.1086   20.4705 C.3     1  UNL1        0.0230
      7 C          -5.8529  -20.8169   21.7392 C.3     1  UNL1        0.0234
      8 C          -7.1414  -20.4862   22.4323 C.3     1  UNL1        0.0968
      9 O         -10.2619  -18.0773   21.9745 O.3     1  UNL1       -0.4295
     10 C         -10.1750  -16.6563   22.4469 C.3     1  UNL1        0.2367
     11 C          -9.0739  -16.2412   23.3772 C.ar    1  UNL1        0.0213
     12 C          -7.7725  -15.7417   22.8234 C.ar    1  UNL1       -0.0007
     13 C          -6.6715  -15.3266   23.7537 C.ar    1  UNL1       -0.0002
     14 C          -6.8719  -15.4111   25.2378 C.ar    1  UNL1       -0.0000
     15 C          -8.1733  -15.9107   25.7917 C.ar    1  UNL1       -0.0002
     16 C          -9.2743  -16.3257   24.8614 C.ar    1  UNL1       -0.0007
     17 C          -4.1921  -20.4393   19.7773 C.3     1  UNL1        0.0887
     18 N          -3.2056  -19.3522   19.4692 N.pl3   1  UNL1       -0.3130
     19 H          -2.8266  -19.2734   18.5640 H       1  UNL1        0.1487
     20 C          -2.7965  -18.3851   20.5403 C.ar    1  UNL1        0.1599
     21 N          -2.5159  -16.9240   20.3487 N.ar    1  UNL1       -0.2227
     22 C          -2.1422  -16.3451   21.6810 C.ar    1  UNL1        0.1079
     23 C          -2.1918  -17.4483   22.6962 C.ar    1  UNL1        0.0588
     24 S          -2.5962  -18.7091   21.9911 S.2     1  UNL1       -0.0512
@<TRIPOS>BOND
     1     1     2    2
     2     2     9    1
     3     9    10    1
     4    10    11    1
     5    11    12   ar
     6    12    13   ar
     7    13    14   ar
     8    14    15   ar
     9    15    16   ar
    10     2     3   am
    11     3     4    1
    12     4     5    1
    13     5     6    1
    14     6    17    1
    15    17    18    1
    16    18    20    1
    17    20    21   ar
    18    21    22   ar
    19    22    23   ar
    20    23    24   ar
    21     6     7    1
    22     7     8    1
    23    16    11   ar
    24     8     3    1
    25    24    20   ar
    26    18    19    1
@<TRIPOS>MOLECULE
*****
 24 26 0 0 0
SMALL
GASTEIGER

@<TRIPOS>ATOM
      1 O          -9.2155  -17.4140   23.1717 O.2     1  UNL1       -0.2262
      2 C          -8.2784  -18.4392   22.6054 C.2     1  UNL1        0.4052
      3 N          -6.7957  -18.2528   22.7351 N.am    1  UNL1       -0.2460
      4 C          -5.8585  -19.2780   22.1688 C.3     1  UNL1        0.0968
      5 C          -4.3758  -19.0916   22.2985 C.3     1  UNL1        0.0234
      6 C          -3.8302  -17.8799   22.9944 C.3     1  UNL1        0.0230
      7 C          -4.7674  -16.8547   23.5607 C.3     1  UNL1        0.0234
      8 C          -6.2502  -17.0412   23.4310 C.3     1  UNL1        0.0968
      9 O          -8.8240  -19.6509   21.9095 O.3     1  UNL1       -0.4295
     10 C          -9.7190  -19.4911   20.7165 C.3     1  UNL1        0.2367
     11 C         -10.7719  -18.4228   20.7065 C.ar    1  UNL1        0.0213
     12 C         -10.6422  -17.2505   19.7798 C.ar    1  UNL1       -0.0007
     13 C         -11.6951  -16.1823   19.7698 C.ar    1  UNL1       -0.0002
     14 C         -12.8778  -16.2863   20.6865 C.ar    1  UNL1       -0.0000
     15 C         -13.0076  -17.4586   21.6132 C.ar    1  UNL1       -0.0002
     16 C         -11.9546  -18.5269   21.6232 C.ar    1  UNL1       -0.0007
     17 C          -2.3476  -17.6935   23.1240 C.3     1  UNL1        0.0887
     18 N          -1.6065  -16.8567   22.1237 N.pl3   1  UNL1       -0.3130
     19 H          -1.0689  -16.0893   22.4257 H       1  UNL1        0.1487
     20 C          -1.6846  -17.1892   20.6631 C.ar    1  UNL1        0.1599
     21 N          -2.8550  -16.9303   19.7612 N.ar    1  UNL1       -0.2227
     22 C          -2.4998  -17.4200   18.3887 C.ar    1  UNL1        0.1079
     23 C          -1.1100  -17.9817   18.4422 C.ar    1  UNL1        0.0588
     24 S          -0.6062  -17.8391   19.8479 S.2     1  UNL1       -0.0512
@<TRIPOS>BOND
     1     1     2    2
     2     2     9    1
     3     9    10    1
     4    10    11    1
     5    11    12   ar
     6    12    13   ar
     7    13    14   ar
     8    14    15   ar
     9    15    16   ar
    10     2     3   am
    11     3     4    1
    12     4     5    1
    13     5     6    1
    14     6    17    1
    15    17    18    1
    16    18    20    1
    17    20    21   ar
    18    21    22   ar
    19    22    23   ar
    20    23    24   ar
    21     6     7    1
    22     7     8    1
    23    16    11   ar
    24     8     3    1
    25    24    20   ar
    26    18    19    1
@<TRIPOS>MOLECULE
*****
 24 26 0 0 0
SMALL
GASTEIGER

@<TRIPOS>ATOM
      1 O          -9.6820   -4.1608   16.1600 O.2     1  UNL1       -0.2262
      2 C         -10.4565   -4.4149   17.4192 C.2     1  UNL1        0.4052
      3 N         -11.3997   -5.5785   17.4977 N.am    1  UNL1       -0.2460
      4 C         -12.1742   -5.8326   18.7568 C.3     1  UNL1        0.0968
      5 C         -13.1174   -6.9963   18.8353 C.3     1  UNL1        0.0234
      6 C         -13.2861   -7.9060   17.6546 C.3     1  UNL1        0.0230
      7 C         -12.5116   -7.6519   16.3954 C.3     1  UNL1        0.0234
      8 C         -11.5683   -6.4881   16.3169 C.3     1  UNL1        0.0968
      9 O         -10.2878   -3.5052   18.5999 O.3     1  UNL1       -0.4295
     10 C         -10.9479   -2.1583   18.6093 C.3     1  UNL1        0.2367
     11 C         -12.3900   -2.0324   19.0025 C.ar    1  UNL1        0.0213
     12 C         -13.2828   -1.0674   18.2803 C.ar    1  UNL1       -0.0007
     13 C         -14.7248   -0.9416   18.6735 C.ar    1  UNL1       -0.0002
     14 C         -15.2741   -1.7808   19.7889 C.ar    1  UNL1       -0.0000
     15 C         -14.3813   -2.7458   20.5111 C.ar    1  UNL1       -0.0002
     16 C         -12.9392   -2.8716   20.1179 C.ar    1  UNL1       -0.0007
     17 C         -14.2292   -9.0697   17.7331 C.3     1  UNL1        0.0887
     18 N         -14.8229   -9.4663   19.0522 N.pl3   1  UNL1       -0.3130
     19 H         -14.2907   -9.9899   19.6940 H       1  UNL1        0.1487
     20 C         -16.2274   -9.0653   19.3936 C.ar    1  UNL1        0.1599
     21 N         -16.6869   -7.6836   19.7541 N.ar    1  UNL1       -0.2227
     22 C         -18.1625   -7.7399   20.0177 C.ar    1  UNL1        0.1079
     23 C         -18.6150   -9.1563   19.8200 C.ar    1  UNL1        0.0588
     24 S         -17.4190   -9.9755   19.4343 S.2     1  UNL1       -0.0512
@<TRIPOS>BOND
     1     1     2    2
     2     2     9    1
     3     9    10    1
     4    10    11    1
     5    11    12   ar
     6    12    13   ar
     7    13    14   ar
     8    14    15   ar
     9    15    16   ar
    10     2     3   am
    11     3     4    1
    12     4     5    1
    13     5     6    1
    14     6    17    1
    15    17    18    1
    16    18    20    1
    17    20    21   ar
    18    21    22   ar
    19    22    23   ar
    20    23    24   ar
    21     6     7    1
    22     7     8    1
    23    16    11   ar
    24     8     3    1
    25    24    20   ar
    26    18    19    1
@<TRIPOS>MOLECULE
*****
 24 26 0 0 0
SMALL
GASTEIGER

@<TRIPOS>ATOM
      1 O         -12.5360   -0.8429   18.5132 O.2     1  UNL1       -0.2262
      2 C         -12.2969   -2.2764   18.8845 C.2     1  UNL1        0.4052
      3 N         -13.4594   -3.2002   19.0965 N.am    1  UNL1       -0.2460
      4 C         -13.2203   -4.6337   19.4678 C.3     1  UNL1        0.0968
      5 C         -14.3829   -5.5575   19.6798 C.3     1  UNL1        0.0234
      6 C         -15.7847   -5.0478   19.5204 C.3     1  UNL1        0.0230
      7 C         -16.0238   -3.6143   19.1491 C.3     1  UNL1        0.0234
      8 C         -14.8611   -2.6905   18.9371 C.3     1  UNL1        0.0968
      9 O         -10.8951   -2.7861   19.0439 O.3     1  UNL1       -0.4295
     10 C         -10.2382   -3.5371   17.9239 C.3     1  UNL1        0.2367
     11 C         -10.2768   -5.0365   17.9021 C.ar    1  UNL1        0.0213
     12 C          -9.5520   -5.8207   18.9554 C.ar    1  UNL1       -0.0007
     13 C          -9.5906   -7.3200   18.9336 C.ar    1  UNL1       -0.0002
     14 C         -10.3541   -8.0351   17.8585 C.ar    1  UNL1       -0.0000
     15 C         -11.0789   -7.2509   16.8052 C.ar    1  UNL1       -0.0002
     16 C         -11.0403   -5.7515   16.8270 C.ar    1  UNL1       -0.0007
     17 C         -16.9473   -5.9716   19.7324 C.3     1  UNL1        0.0887
     18 N         -17.4880   -6.7722   18.5849 N.pl3   1  UNL1       -0.3130
     19 H         -18.0730   -6.3444   17.9186 H       1  UNL1        0.1487
     20 C         -17.1373   -8.2246   18.4526 C.ar    1  UNL1        0.1599
     21 N         -18.1100   -9.3655   18.4027 N.ar    1  UNL1       -0.2227
     22 C         -17.3263  -10.6372   18.2662 C.ar    1  UNL1        0.1079
     23 C         -15.8692  -10.2823   18.2318 C.ar    1  UNL1        0.0588
     24 S         -15.7525   -8.7912   18.3470 S.2     1  UNL1       -0.0512
@<TRIPOS>BOND
     1     1     2    2
     2     2     9    1
     3     9    10    1
     4    10    11    1
     5    11    12   ar
     6    12    13   ar
     7    13    14   ar
     8    14    15   ar
     9    15    16   ar
    10     2     3   am
    11     3     4    1
    12     4     5    1
    13     5     6    1
    14     6    17    1
    15    17    18    1
    16    18    20    1
    17    20    21   ar
    18    21    22   ar
    19    22    23   ar
    20    23    24   ar
    21     6     7    1
    22     7     8    1
    23    16    11   ar
    24     8     3    1
    25    24    20   ar
    26    18    19    1
