@<TRIPOS>MOLECULE
*****
 30 33 0 0 0
SMALL
GASTEIGER

@<TRIPOS>ATOM
      1 N           4.8150   -1.3770   21.0371 N.pl3   1  UNL1       -0.2834
      2 C           5.0118   -1.2039   22.5141 C.3     1  UNL1        0.1221
      3 C           5.6594   -2.4486   23.0445 C.ar    1  UNL1        0.0337
      4 C           6.1812   -3.1109   24.2851 C.ar    1  UNL1        0.0990
      5 N           6.7072   -4.4626   23.9027 N.ar    1  UNL1       -0.2287
      6 N           6.5104   -4.6357   22.4257 N.ar    1  UNL1       -0.1681
      7 C           5.8629   -3.3910   21.8953 C.ar    1  UNL1        0.0960
      8 C           5.3411   -2.7288   20.6547 C.3     1  UNL1        0.1161
      9 C           2.0932    0.7285   19.0602 C.ar    1  UNL1        0.2576
     10 N           2.9707    1.6307   18.2439 N.ar    1  UNL1       -0.1873
     11 C           4.4629    1.5303   18.3587 C.ar    1  UNL1        0.2028
     12 N           5.0777    0.5277   19.2899 N.ar    1  UNL1       -0.2065
     13 C           4.2003   -0.3745   20.1061 C.ar    1  UNL1        0.1663
     14 C           2.7080   -0.2740   19.9912 C.ar    1  UNL1        0.2243
     15 F           1.8306   -1.1762   20.8074 F       1  UNL1       -0.1963
     16 C          -0.1984    1.4303   20.0629 C.3     1  UNL1        0.2543
     17 O           0.6010    0.8289   18.9453 O.3     1  UNL1       -0.4545
     18 C           7.3220   -5.4652   24.8337 C.ar    1  UNL1        0.0841
     19 C           8.0846   -6.6327   24.2812 C.ar    1  UNL1        0.0192
     20 C           8.6994   -7.6352   25.2124 C.ar    1  UNL1        0.0029
     21 C           8.5515   -7.4703   26.6959 C.ar    1  UNL1        0.0184
     22 C           7.7889   -6.3028   27.2484 C.ar    1  UNL1        0.1072
     23 C           7.1741   -5.3003   26.3173 C.ar    1  UNL1        0.0375
     24 S           7.6410   -6.1378   28.7319 S.O2    1  UNL1        0.0105
     25 C           7.4931   -5.9729   30.2155 C.3     1  UNL1        0.1816
     26 O           6.3206   -5.4569   28.5246 O.2     1  UNL1       -0.1686
     27 O           8.9614   -6.8188   28.9392 O.2     1  UNL1       -0.1686
     28 C           5.3446   -3.3152   19.2741 C.3     1  UNL1        0.0240
     29 C           4.4874   -4.5062   18.9630 C.3     1  UNL1        0.0021
     30 C           6.2053   -2.7107   18.2047 C.3     1  UNL1        0.0021
@<TRIPOS>BOND
     1    16    17    1
     2    17     9    1
     3     9    10   ar
     4    10    11   ar
     5    11    12   ar
     6    12    13   ar
     7    13     1    1
     8     1     2    1
     9     2     3    1
    10     3     4   ar
    11     4     5   ar
    12     5    18    1
    13    18    19   ar
    14    19    20   ar
    15    20    21   ar
    16    21    22   ar
    17    22    24    1
    18    24    25    1
    19    24    26    2
    20    24    27    2
    21    22    23   ar
    22     5     6   ar
    23     6     7   ar
    24     7     8    1
    25     8    28    1
    26    28    29    1
    27    28    30    1
    28    13    14   ar
    29    14    15    1
    30    14     9   ar
    31     8     1    1
    32     7     3   ar
    33    23    18   ar
@<TRIPOS>MOLECULE
*****
 30 33 0 0 0
SMALL
GASTEIGER

@<TRIPOS>ATOM
      1 N           4.1123   -1.6309   21.2274 N.pl3   1  UNL1       -0.2834
      2 C           4.2921   -1.5028   22.7111 C.3     1  UNL1        0.1221
      3 C           5.1460   -2.6455   23.1750 C.ar    1  UNL1        0.0337
      4 C           5.7848   -3.2725   24.3786 C.ar    1  UNL1        0.0990
      5 N           6.5276   -4.4944   23.9254 N.ar    1  UNL1       -0.2287
      6 N           6.3479   -4.6225   22.4418 N.ar    1  UNL1       -0.1681
      7 C           5.4940   -3.4798   21.9779 C.ar    1  UNL1        0.0960
      8 C           4.8552   -2.8528   20.7743 C.3     1  UNL1        0.1161
      9 C           3.2469    1.3083   18.7052 C.ar    1  UNL1        0.2576
     10 N           1.7580    1.1603   18.5975 N.ar    1  UNL1       -0.1873
     11 C           1.0540    0.0819   19.3665 C.ar    1  UNL1        0.2028
     12 N           1.8388   -0.8485   20.2431 N.ar    1  UNL1       -0.2065
     13 C           3.3276   -0.7005   20.3508 C.ar    1  UNL1        0.1663
     14 C           4.0316    0.3780   19.5818 C.ar    1  UNL1        0.2243
     15 F           5.5204    0.5260   19.6895 F       1  UNL1       -0.1963
     16 C           3.7448    3.8264   18.3036 C.3     1  UNL1        0.2543
     17 O           3.9509    2.3868   17.9362 O.3     1  UNL1       -0.4545
     18 C           7.3124   -5.4248   24.8021 C.ar    1  UNL1        0.0841
     19 C           8.2171   -6.4508   24.1866 C.ar    1  UNL1        0.0192
     20 C           9.0018   -7.3812   25.0633 C.ar    1  UNL1        0.0029
     21 C           8.8819   -7.2856   26.5554 C.ar    1  UNL1        0.0184
     22 C           7.9772   -6.2596   27.1709 C.ar    1  UNL1        0.1072
     23 C           7.1925   -5.3292   26.2942 C.ar    1  UNL1        0.0375
     24 S           7.8572   -6.1640   28.6630 S.O2    1  UNL1        0.0105
     25 C           7.7372   -6.0683   30.1551 C.3     1  UNL1        0.1816
     26 O           9.1950   -6.8257   28.8131 O.2     1  UNL1       -0.1686
     27 O           6.5194   -5.5022   28.5129 O.2     1  UNL1       -0.1686
     28 C           4.9436   -3.3588   19.3650 C.3     1  UNL1        0.0240
     29 C           4.1365   -4.5512   18.9442 C.3     1  UNL1        0.0021
     30 C           5.8390   -2.6725   18.3765 C.3     1  UNL1        0.0021
@<TRIPOS>BOND
     1    16    17    1
     2    17     9    1
     3     9    10   ar
     4    10    11   ar
     5    11    12   ar
     6    12    13   ar
     7    13     1    1
     8     1     2    1
     9     2     3    1
    10     3     4   ar
    11     4     5   ar
    12     5    18    1
    13    18    19   ar
    14    19    20   ar
    15    20    21   ar
    16    21    22   ar
    17    22    24    1
    18    24    25    1
    19    24    26    2
    20    24    27    2
    21    22    23   ar
    22     5     6   ar
    23     6     7   ar
    24     7     8    1
    25     8    28    1
    26    28    29    1
    27    28    30    1
    28    13    14   ar
    29    14    15    1
    30    14     9   ar
    31     8     1    1
    32     7     3   ar
    33    23    18   ar
@<TRIPOS>MOLECULE
*****
 30 33 0 0 0
SMALL
GASTEIGER

@<TRIPOS>ATOM
      1 N           3.9610   -1.4099   21.7384 N.pl3   1  UNL1       -0.2834
      2 C           4.4626   -1.7419   23.1126 C.3     1  UNL1        0.1221
      3 C           3.6741   -0.9354   24.1014 C.ar    1  UNL1        0.0337
      4 C           3.4968   -0.6421   25.5617 C.ar    1  UNL1        0.0990
      5 N           2.3982    0.3696   25.7012 N.ar    1  UNL1       -0.2287
      6 N           1.8966    0.7017   24.3272 N.ar    1  UNL1       -0.1681
      7 C           2.6851   -0.1049   23.3384 C.ar    1  UNL1        0.0960
      8 C           2.8624   -0.3981   21.8780 C.3     1  UNL1        0.1161
      9 C           5.8115   -1.7271   18.2421 C.ar    1  UNL1        0.2576
     10 N           5.4843   -3.1444   17.8757 N.ar    1  UNL1       -0.1873
     11 C           4.6493   -3.9836   18.7970 C.ar    1  UNL1        0.2028
     12 N           4.1416   -3.4053   20.0846 N.ar    1  UNL1       -0.2065
     13 C           4.4688   -1.9880   20.4509 C.ar    1  UNL1        0.1663
     14 C           5.3038   -1.1489   19.5296 C.ar    1  UNL1        0.2243
     15 F           5.6310    0.2684   19.8960 F       1  UNL1       -0.1963
     16 C           6.1004    0.3987   16.7767 C.3     1  UNL1        0.2543
     17 O           6.6465   -0.8880   17.3208 O.3     1  UNL1       -0.4545
     18 C           1.8904    0.9478   26.9888 C.ar    1  UNL1        0.0841
     19 C           0.7779    1.9538   26.9720 C.ar    1  UNL1        0.0192
     20 C           0.2702    2.5320   28.2597 C.ar    1  UNL1        0.0029
     21 C           0.8749    2.1042   29.5640 C.ar    1  UNL1        0.0184
     22 C           1.9874    1.0982   29.5808 C.ar    1  UNL1        0.1072
     23 C           2.4951    0.5200   28.2931 C.ar    1  UNL1        0.0375
     24 S           2.5921    0.6703   30.8851 S.O2    1  UNL1        0.0105
     25 C           3.1969    0.2426   32.1894 C.3     1  UNL1        0.1816
     26 O           2.1225   -0.7334   30.6425 O.2     1  UNL1       -0.1686
     27 O           3.0618    2.0742   31.1277 O.2     1  UNL1       -0.1686
     28 C           2.0787    0.2131   20.7545 C.3     1  UNL1        0.0240
     29 C           0.9387   -0.5419   20.1376 C.3     1  UNL1        0.0021
     30 C           2.4349    1.5793   20.2479 C.3     1  UNL1        0.0021
@<TRIPOS>BOND
     1    16    17    1
     2    17     9    1
     3     9    10   ar
     4    10    11   ar
     5    11    12   ar
     6    12    13   ar
     7    13     1    1
     8     1     2    1
     9     2     3    1
    10     3     4   ar
    11     4     5   ar
    12     5    18    1
    13    18    19   ar
    14    19    20   ar
    15    20    21   ar
    16    21    22   ar
    17    22    24    1
    18    24    25    1
    19    24    26    2
    20    24    27    2
    21    22    23   ar
    22     5     6   ar
    23     6     7   ar
    24     7     8    1
    25     8    28    1
    26    28    29    1
    27    28    30    1
    28    13    14   ar
    29    14    15    1
    30    14     9   ar
    31     8     1    1
    32     7     3   ar
    33    23    18   ar
@<TRIPOS>MOLECULE
*****
 30 33 0 0 0
SMALL
GASTEIGER

@<TRIPOS>ATOM
      1 N           3.8085   -0.3973   20.6787 N.pl3   1  UNL1       -0.2834
      2 C           3.8555   -0.7567   22.1343 C.3     1  UNL1        0.1221
      3 C           2.7678    0.0025   22.8346 C.ar    1  UNL1        0.0337
      4 C           2.1246    0.2496   24.1670 C.ar    1  UNL1        0.0990
      5 N           1.0079    1.2311   23.9677 N.ar    1  UNL1       -0.2287
      6 N           0.9609    1.5906   22.5122 N.ar    1  UNL1       -0.1681
      7 C           2.0486    0.8313   21.8119 C.ar    1  UNL1        0.0960
      8 C           2.6918    0.5842   20.4795 C.3     1  UNL1        0.1161
      9 C           6.6014   -0.5373   17.8628 C.ar    1  UNL1        0.2576
     10 N           6.5385   -1.9845   17.4728 N.ar    1  UNL1       -0.1873
     11 C           5.5655   -2.9025   18.1515 C.ar    1  UNL1        0.2028
     12 N           4.6555   -2.3733   19.2202 N.ar    1  UNL1       -0.2065
     13 C           4.7185   -0.9263   19.6101 C.ar    1  UNL1        0.1663
     14 C           5.6915   -0.0083   18.9313 C.ar    1  UNL1        0.2243
     15 F           5.7544    1.4387   19.3213 F       1  UNL1       -0.1963
     16 C           7.0959    1.3325   16.1281 C.3     1  UNL1        0.2543
     17 O           7.5744    0.3807   17.1840 O.3     1  UNL1       -0.4545
     18 C           0.0979    1.7601   25.0364 C.ar    1  UNL1        0.0841
     19 C           0.2629    1.3037   26.4556 C.ar    1  UNL1        0.0192
     20 C          -0.6471    1.8328   27.5242 C.ar    1  UNL1        0.0029
     21 C          -1.7222    2.8184   27.1736 C.ar    1  UNL1        0.0184
     22 C          -1.8872    3.2748   25.7543 C.ar    1  UNL1        0.1072
     23 C          -0.9771    2.7457   24.6857 C.ar    1  UNL1        0.0375
     24 S          -2.9622    4.2604   25.4036 S.O2    1  UNL1        0.0105
     25 C          -4.0373    5.2459   25.0529 C.3     1  UNL1        0.1816
     26 O          -2.1293    4.7627   24.2617 O.2     1  UNL1       -0.1686
     27 O          -3.7952    3.7580   26.5455 O.2     1  UNL1       -0.1686
     28 C           2.2890    1.2090   19.1766 C.3     1  UNL1        0.0240
     29 C           1.3821    0.4688   18.2386 C.3     1  UNL1        0.0021
     30 C           2.7931    2.5737   18.8117 C.3     1  UNL1        0.0021
@<TRIPOS>BOND
     1    16    17    1
     2    17     9    1
     3     9    10   ar
     4    10    11   ar
     5    11    12   ar
     6    12    13   ar
     7    13     1    1
     8     1     2    1
     9     2     3    1
    10     3     4   ar
    11     4     5   ar
    12     5    18    1
    13    18    19   ar
    14    19    20   ar
    15    20    21   ar
    16    21    22   ar
    17    22    24    1
    18    24    25    1
    19    24    26    2
    20    24    27    2
    21    22    23   ar
    22     5     6   ar
    23     6     7   ar
    24     7     8    1
    25     8    28    1
    26    28    29    1
    27    28    30    1
    28    13    14   ar
    29    14    15    1
    30    14     9   ar
    31     8     1    1
    32     7     3   ar
    33    23    18   ar
@<TRIPOS>MOLECULE
*****
 30 33 0 0 0
SMALL
GASTEIGER

@<TRIPOS>ATOM
      1 N           6.1465   -2.6311   31.7941 N.pl3   1  UNL1       -0.2834
      2 C           4.7962   -2.4197   32.4123 C.3     1  UNL1        0.1221
      3 C           4.9625   -1.5007   33.5861 C.ar    1  UNL1        0.0337
      4 C           4.2308   -0.8021   34.6936 C.ar    1  UNL1        0.0990
      5 N           5.2316   -0.0137   35.4853 N.ar    1  UNL1       -0.2287
      6 N           6.5819   -0.2251   34.8672 N.ar    1  UNL1       -0.1681
      7 C           6.4156   -1.1441   33.6934 C.ar    1  UNL1        0.0960
      8 C           7.1473   -1.8427   32.5859 C.3     1  UNL1        0.1161
      9 C           6.6391   -3.7474   28.0178 C.ar    1  UNL1        0.2576
     10 N           7.0382   -5.1824   28.1962 N.ar    1  UNL1       -0.1873
     11 C           7.1401   -5.7669   29.5738 C.ar    1  UNL1        0.2028
     12 N           6.8428   -4.9164   30.7732 N.ar    1  UNL1       -0.2065
     13 C           6.4437   -3.4815   30.5948 C.ar    1  UNL1        0.1663
     14 C           6.3418   -2.8971   29.2171 C.ar    1  UNL1        0.2243
     15 F           5.9427   -1.4622   29.0388 F       1  UNL1       -0.1963
     16 C           6.7125   -4.0423   25.4376 C.3     1  UNL1        0.2543
     17 O           6.5372   -3.1630   26.6400 O.3     1  UNL1       -0.4545
     18 C           4.9344    0.8367   36.6846 C.ar    1  UNL1        0.0841
     19 C           6.0490    1.5421   37.3987 C.ar    1  UNL1        0.0192
     20 C           5.7517    2.3926   38.5981 C.ar    1  UNL1        0.0029
     21 C           4.3398    2.5376   39.0834 C.ar    1  UNL1        0.0184
     22 C           3.2252    1.8322   38.3693 C.ar    1  UNL1        0.1072
     23 C           3.5225    0.9817   37.1699 C.ar    1  UNL1        0.0375
     24 S           1.8133    1.9771   38.8545 S.O2    1  UNL1        0.0105
     25 C           0.4013    2.1222   39.3397 C.3     1  UNL1        0.1816
     26 O           2.0586    0.9157   39.8856 O.2     1  UNL1       -0.1686
     27 O           1.5680    3.0386   37.8233 O.2     1  UNL1       -0.1686
     28 C           8.6211   -1.7664   32.3173 C.3     1  UNL1        0.0240
     29 C           9.5348   -2.8358   32.8385 C.3     1  UNL1        0.0021
     30 C           9.1812   -0.6207   31.5276 C.3     1  UNL1        0.0021
@<TRIPOS>BOND
     1    16    17    1
     2    17     9    1
     3     9    10   ar
     4    10    11   ar
     5    11    12   ar
     6    12    13   ar
     7    13     1    1
     8     1     2    1
     9     2     3    1
    10     3     4   ar
    11     4     5   ar
    12     5    18    1
    13    18    19   ar
    14    19    20   ar
    15    20    21   ar
    16    21    22   ar
    17    22    24    1
    18    24    25    1
    19    24    26    2
    20    24    27    2
    21    22    23   ar
    22     5     6   ar
    23     6     7   ar
    24     7     8    1
    25     8    28    1
    26    28    29    1
    27    28    30    1
    28    13    14   ar
    29    14    15    1
    30    14     9   ar
    31     8     1    1
    32     7     3   ar
    33    23    18   ar
@<TRIPOS>MOLECULE
*****
 30 33 0 0 0
SMALL
GASTEIGER

@<TRIPOS>ATOM
      1 N           6.3208   -2.2895   20.6781 N.pl3   1  UNL1       -0.2834
      2 C           7.1802   -3.5175   20.6182 C.3     1  UNL1        0.1221
      3 C           7.2425   -4.1074   21.9959 C.ar    1  UNL1        0.0337
      4 C           7.8121   -5.2309   22.8103 C.ar    1  UNL1        0.0990
      5 N           7.3433   -5.0619   24.2251 N.ar    1  UNL1       -0.2287
      6 N           6.4840   -3.8339   24.2851 N.ar    1  UNL1       -0.1681
      7 C           6.4217   -3.2440   22.9074 C.ar    1  UNL1        0.0960
      8 C           5.8520   -2.1205   22.0930 C.3     1  UNL1        0.1161
      9 C           4.2337   -0.3432   17.9203 C.ar    1  UNL1        0.2576
     10 N           5.3242    0.4128   17.2207 N.ar    1  UNL1       -0.1873
     11 C           6.7469    0.2681   17.6736 C.ar    1  UNL1        0.2028
     12 N           7.0790   -0.6328   18.8261 N.ar    1  UNL1       -0.2065
     13 C           5.9886   -1.3888   19.5257 C.ar    1  UNL1        0.1663
     14 C           4.5659   -1.2440   19.0727 C.ar    1  UNL1        0.2243
     15 F           3.4756   -2.0000   19.7723 F       1  UNL1       -0.1963
     16 C           1.8258    0.5481   18.3171 C.3     1  UNL1        0.2543
     17 O           2.8110   -0.1984   17.4674 O.3     1  UNL1       -0.4545
     18 C           7.6755   -5.9627   25.3776 C.ar    1  UNL1        0.0841
     19 C           8.3026   -7.3019   25.1262 C.ar    1  UNL1        0.0192
     20 C           8.6348   -8.2027   26.2788 C.ar    1  UNL1        0.0029
     21 C           8.3399   -7.7642   27.6827 C.ar    1  UNL1        0.0184
     22 C           7.7129   -6.4249   27.9340 C.ar    1  UNL1        0.1072
     23 C           7.3807   -5.5242   26.7814 C.ar    1  UNL1        0.0375
     24 S           7.4180   -5.9864   29.3378 S.O2    1  UNL1        0.0105
     25 C           7.1231   -5.5477   30.7416 C.3     1  UNL1        0.1816
     26 O           8.5616   -6.8182   29.8380 O.2     1  UNL1       -0.1686
     27 O           6.2744   -5.1544   28.8376 O.2     1  UNL1       -0.1686
     28 C           4.9687   -1.0210   22.6037 C.3     1  UNL1        0.0240
     29 C           3.5651   -1.3263   23.0360 C.3     1  UNL1        0.0021
     30 C           5.4889    0.3837   22.6821 C.3     1  UNL1        0.0021
@<TRIPOS>BOND
     1    16    17    1
     2    17     9    1
     3     9    10   ar
     4    10    11   ar
     5    11    12   ar
     6    12    13   ar
     7    13     1    1
     8     1     2    1
     9     2     3    1
    10     3     4   ar
    11     4     5   ar
    12     5    18    1
    13    18    19   ar
    14    19    20   ar
    15    20    21   ar
    16    21    22   ar
    17    22    24    1
    18    24    25    1
    19    24    26    2
    20    24    27    2
    21    22    23   ar
    22     5     6   ar
    23     6     7   ar
    24     7     8    1
    25     8    28    1
    26    28    29    1
    27    28    30    1
    28    13    14   ar
    29    14    15    1
    30    14     9   ar
    31     8     1    1
    32     7     3   ar
    33    23    18   ar
@<TRIPOS>MOLECULE
*****
 30 33 0 0 0
SMALL
GASTEIGER

@<TRIPOS>ATOM
      1 N           5.9023   -2.4351   20.6429 N.pl3   1  UNL1       -0.2834
      2 C           6.7946   -3.6284   20.8161 C.3     1  UNL1        0.1221
      3 C           6.8160   -3.9836   22.2733 C.ar    1  UNL1        0.0337
      4 C           7.3808   -4.9406   23.2808 C.ar    1  UNL1        0.0990
      5 N           6.8507   -4.5583   24.6310 N.ar    1  UNL1       -0.2287
      6 N           5.9584   -3.3651   24.4579 N.ar    1  UNL1       -0.1681
      7 C           5.9370   -3.0098   23.0007 C.ar    1  UNL1        0.0960
      8 C           5.3723   -2.0528   21.9931 C.3     1  UNL1        0.1161
      9 C           6.3433   -0.2430   17.3643 C.ar    1  UNL1        0.2576
     10 N           4.9778   -0.3655   16.7555 N.ar    1  UNL1       -0.1873
     11 C           3.9205   -1.1779   17.4426 C.ar    1  UNL1        0.2028
     12 N           4.2287   -1.8677   18.7385 N.ar    1  UNL1       -0.2065
     13 C           5.5942   -1.7452   19.3472 C.ar    1  UNL1        0.1663
     14 C           6.6515   -0.9328   18.6600 C.ar    1  UNL1        0.2243
     15 F           8.0169   -0.8103   19.2687 F       1  UNL1       -0.1963
     16 C           7.0317    1.8465   15.9822 C.3     1  UNL1        0.2543
     17 O           7.4007    0.5695   16.6771 O.3     1  UNL1       -0.4545
     18 C           7.1589   -5.2482   25.9268 C.ar    1  UNL1        0.0841
     19 C           7.7703   -6.6179   25.9204 C.ar    1  UNL1        0.0192
     20 C           8.0784   -7.3077   27.2163 C.ar    1  UNL1        0.0029
     21 C           7.7751   -6.6279   28.5185 C.ar    1  UNL1        0.0184
     22 C           7.1637   -5.2581   28.5249 C.ar    1  UNL1        0.1072
     23 C           6.8556   -4.5683   27.2290 C.ar    1  UNL1        0.0375
     24 S           6.8605   -4.5782   29.8271 S.O2    1  UNL1        0.0105
     25 C           6.5572   -3.8983   31.1293 C.3     1  UNL1        0.1816
     26 O           6.4308   -3.3477   29.0846 O.2     1  UNL1       -0.1686
     27 O           7.2902   -5.8088   30.5696 O.2     1  UNL1       -0.1686
     28 C           4.4410   -0.9136   22.2846 C.3     1  UNL1        0.0240
     29 C           4.9765    0.3650   22.8579 C.3     1  UNL1        0.0021
     30 C           2.9744   -1.0528   22.0027 C.3     1  UNL1        0.0021
@<TRIPOS>BOND
     1    16    17    1
     2    17     9    1
     3     9    10   ar
     4    10    11   ar
     5    11    12   ar
     6    12    13   ar
     7    13     1    1
     8     1     2    1
     9     2     3    1
    10     3     4   ar
    11     4     5   ar
    12     5    18    1
    13    18    19   ar
    14    19    20   ar
    15    20    21   ar
    16    21    22   ar
    17    22    24    1
    18    24    25    1
    19    24    26    2
    20    24    27    2
    21    22    23   ar
    22     5     6   ar
    23     6     7   ar
    24     7     8    1
    25     8    28    1
    26    28    29    1
    27    28    30    1
    28    13    14   ar
    29    14    15    1
    30    14     9   ar
    31     8     1    1
    32     7     3   ar
    33    23    18   ar
@<TRIPOS>MOLECULE
*****
 30 33 0 0 0
SMALL
GASTEIGER

@<TRIPOS>ATOM
      1 N           2.8595   -1.2633   19.7912 N.pl3   1  UNL1       -0.2834
      2 C           1.6875   -1.0847   20.7103 C.3     1  UNL1        0.1221
      3 C           1.0065    0.2018   20.3485 C.ar    1  UNL1        0.0337
      4 C          -0.1388    1.1073   20.6929 C.ar    1  UNL1        0.0990
      5 N          -0.0955    2.2835   19.7631 N.ar    1  UNL1       -0.2287
      6 N           1.0764    2.1050   18.8440 N.ar    1  UNL1       -0.1681
      7 C           1.7575    0.8185   19.2058 C.ar    1  UNL1        0.0960
      8 C           2.9027   -0.0870   18.8614 C.3     1  UNL1        0.1161
      9 C           6.1492   -3.3986   20.3975 C.ar    1  UNL1        0.2576
     10 N           5.7398   -4.7205   19.8186 N.ar    1  UNL1       -0.1873
     11 C           4.3703   -4.8900   19.2307 C.ar    1  UNL1        0.2028
     12 N           3.4102   -3.7375   19.2216 N.ar    1  UNL1       -0.2065
     13 C           3.8196   -2.4157   19.8004 C.ar    1  UNL1        0.1663
     14 C           5.1892   -2.2462   20.3884 C.ar    1  UNL1        0.2243
     15 F           5.5985   -0.9244   20.9672 F       1  UNL1       -0.1963
     16 C           8.2154   -4.3997   21.6135 C.3     1  UNL1        0.2543
     17 O           7.5188   -3.2292   20.9855 O.3     1  UNL1       -0.4545
     18 C          -1.0556    3.4359   19.7540 C.ar    1  UNL1        0.0841
     19 C          -0.6719    4.7266   19.0929 C.ar    1  UNL1        0.0192
     20 C          -1.6321    5.8790   19.0838 C.ar    1  UNL1        0.0029
     21 C          -2.9759    5.7408   19.7357 C.ar    1  UNL1        0.0184
     22 C          -3.3597    4.4501   20.3967 C.ar    1  UNL1        0.1072
     23 C          -2.3995    3.2977   20.4058 C.ar    1  UNL1        0.0375
     24 S          -4.7035    4.3118   21.0486 S.O2    1  UNL1        0.0105
     25 C          -6.0473    4.1736   21.7005 C.3     1  UNL1        0.1816
     26 O          -4.4579    2.8450   21.2438 O.2     1  UNL1       -0.1686
     27 O          -4.9490    5.7788   20.8534 O.2     1  UNL1       -0.1686
     28 C           3.9137    0.1434   17.7775 C.3     1  UNL1        0.0240
     29 C           3.9856   -0.7929   16.6077 C.3     1  UNL1        0.0021
     30 C           4.8527    1.3099   17.8632 C.3     1  UNL1        0.0021
@<TRIPOS>BOND
     1    16    17    1
     2    17     9    1
     3     9    10   ar
     4    10    11   ar
     5    11    12   ar
     6    12    13   ar
     7    13     1    1
     8     1     2    1
     9     2     3    1
    10     3     4   ar
    11     4     5   ar
    12     5    18    1
    13    18    19   ar
    14    19    20   ar
    15    20    21   ar
    16    21    22   ar
    17    22    24    1
    18    24    25    1
    19    24    26    2
    20    24    27    2
    21    22    23   ar
    22     5     6   ar
    23     6     7   ar
    24     7     8    1
    25     8    28    1
    26    28    29    1
    27    28    30    1
    28    13    14   ar
    29    14    15    1
    30    14     9   ar
    31     8     1    1
    32     7     3   ar
    33    23    18   ar
@<TRIPOS>MOLECULE
*****
 30 33 0 0 0
SMALL
GASTEIGER

@<TRIPOS>ATOM
      1 N           2.0814    1.1324   27.7939 N.pl3   1  UNL1       -0.2834
      2 C           3.2351    0.9631   26.8502 C.3     1  UNL1        0.1221
      3 C           2.6879    0.9044   25.4548 C.ar    1  UNL1        0.0337
      4 C           3.0627    0.7636   24.0093 C.ar    1  UNL1        0.0990
      5 N           1.8025    0.8095   23.1971 N.ar    1  UNL1       -0.2287
      6 N           0.6488    0.9788   24.1406 N.ar    1  UNL1       -0.1681
      7 C           1.1960    1.0375   25.5360 C.ar    1  UNL1        0.0960
      8 C           0.8211    1.1784   26.9816 C.3     1  UNL1        0.1161
      9 C           2.8310    0.2067   31.5794 C.ar    1  UNL1        0.2576
     10 N           2.3532    1.4471   32.2746 N.ar    1  UNL1       -0.1873
     11 C           1.7848    2.5826   31.4761 C.ar    1  UNL1        0.2028
     12 N           1.6942    2.4777   29.9825 N.ar    1  UNL1       -0.2065
     13 C           2.1720    1.2373   29.2874 C.ar    1  UNL1        0.1663
     14 C           2.7404    0.1018   30.0859 C.ar    1  UNL1        0.2243
     15 F           3.2182   -1.1386   29.3908 F       1  UNL1       -0.1963
     16 C           4.2229   -0.6480   33.5998 C.3     1  UNL1        0.2543
     17 O           3.3994   -0.9288   32.3780 O.3     1  UNL1       -0.4545
     18 C           1.7118    0.7046   21.7035 C.ar    1  UNL1        0.0841
     19 C           0.6130    1.4121   20.9673 C.ar    1  UNL1        0.0192
     20 C           0.5224    1.3071   19.4736 C.ar    1  UNL1        0.0029
     21 C           1.5306    0.4948   18.7163 C.ar    1  UNL1        0.0184
     22 C           2.6295   -0.2126   19.4525 C.ar    1  UNL1        0.1072
     23 C           2.7200   -0.1077   20.9461 C.ar    1  UNL1        0.0375
     24 S           3.6377   -1.0250   18.6952 S.O2    1  UNL1        0.0105
     25 C           4.6460   -1.8374   17.9380 C.3     1  UNL1        0.1816
     26 O           3.3305   -0.2462   17.4506 O.2     1  UNL1       -0.1686
     27 O           3.9449   -1.8038   19.9399 O.2     1  UNL1       -0.1686
     28 C          -0.5697    1.3373   27.5203 C.3     1  UNL1        0.0240
     29 C          -1.3895    2.5343   27.1390 C.3     1  UNL1        0.0021
     30 C          -1.1409    0.2994   28.4403 C.3     1  UNL1        0.0021
@<TRIPOS>BOND
     1    16    17    1
     2    17     9    1
     3     9    10   ar
     4    10    11   ar
     5    11    12   ar
     6    12    13   ar
     7    13     1    1
     8     1     2    1
     9     2     3    1
    10     3     4   ar
    11     4     5   ar
    12     5    18    1
    13    18    19   ar
    14    19    20   ar
    15    20    21   ar
    16    21    22   ar
    17    22    24    1
    18    24    25    1
    19    24    26    2
    20    24    27    2
    21    22    23   ar
    22     5     6   ar
    23     6     7   ar
    24     7     8    1
    25     8    28    1
    26    28    29    1
    27    28    30    1
    28    13    14   ar
    29    14    15    1
    30    14     9   ar
    31     8     1    1
    32     7     3   ar
    33    23    18   ar
