@<TRIPOS>MOLECULE
*****
 31 33 0 0 0
SMALL
GASTEIGER

@<TRIPOS>ATOM
      1 C          -4.9199  -17.3604   22.6728 C.ar    1  UNL1        0.1357
      2 N          -3.6257  -16.6054   22.6040 N.ar    1  UNL1       -0.1992
      3 C          -2.5146  -17.1001   21.7261 C.ar    1  UNL1        0.2148
      4 N          -1.2202  -16.3450   21.6573 N.pl3   1  UNL1       -0.3274
      5 N          -2.6977  -18.3498   20.9170 N.ar    1  UNL1       -0.2138
      6 C          -3.9920  -19.1049   20.9858 C.ar    1  UNL1        0.0898
      7 C          -4.1751  -20.3546   20.1768 C.ar    1  UNL1        0.0195
      8 C          -5.4694  -21.1097   20.2456 C.ar    1  UNL1        0.0047
      9 C          -6.5805  -20.6150   21.1235 C.ar    1  UNL1        0.0371
     10 C          -6.3974  -19.3653   21.9325 C.ar    1  UNL1        0.1432
     11 C          -5.1031  -18.6102   21.8637 C.ar    1  UNL1        0.0831
     12 H          -1.1000  -15.5248   22.1884 H       1  UNL1        0.1452
     13 H          -0.4910  -16.6697   21.0811 H       1  UNL1        0.1452
     14 N          -6.0311  -16.8658   23.5507 N.pl3   1  UNL1       -0.3179
     15 H          -6.8276  -17.4251   23.6988 H       1  UNL1        0.1482
     16 C          -5.9286  -15.5189   24.2029 C.3     1  UNL1        0.0882
     17 C          -5.4149  -15.4028   25.6074 C.3     1  UNL1        0.0212
     18 C          -7.8452  -15.5687   26.5107 C.3     1  UNL1        0.0001
     19 C          -6.3712  -15.4491   26.7621 C.3     1  UNL1        0.0017
     20 O          -7.5085  -18.8706   22.8104 O.3     1  UNL1       -0.4687
     21 C          -8.7721  -19.6680   22.9420 C.3     1  UNL1        0.2540
     22 C         -10.1028  -19.0002   22.7599 C.ar    1  UNL1        0.1395
     23 N         -11.0674  -18.9252   23.9062 N.ar    1  UNL1       -0.2412
     24 C         -12.3982  -18.2574   23.7242 C.ar    1  UNL1        0.1019
     25 C         -12.7643  -17.6645   22.3958 C.ar    1  UNL1        0.0607
     26 C         -11.7997  -17.7395   21.2496 C.ar    1  UNL1        0.1752
     27 C         -10.4690  -18.4073   21.4316 C.ar    1  UNL1        0.1894
     28 O         -12.1659  -17.1466   19.9213 O.3     1  UNL1       -0.4683
     29 C         -11.6198  -15.8081   19.5213 C.3     1  UNL1        0.2526
     30 O          -9.5044  -18.4823   20.2854 O.3     1  UNL1       -0.4670
     31 C          -9.6045  -19.6026   19.2929 C.3     1  UNL1        0.2527
@<TRIPOS>BOND
     1    18    19    1
     2    19    17    1
     3    17    16    1
     4    16    14    1
     5    14     1    1
     6     1     2   ar
     7     2     3   ar
     8     3     4    1
     9     3     5   ar
    10     5     6   ar
    11     6     7   ar
    12     7     8   ar
    13     8     9   ar
    14     9    10   ar
    15    10    20    1
    16    20    21    1
    17    21    22    1
    18    22    23   ar
    19    23    24   ar
    20    24    25   ar
    21    25    26   ar
    22    26    28    1
    23    28    29    1
    24    26    27   ar
    25    27    30    1
    26    30    31    1
    27    10    11   ar
    28    11     1   ar
    29    11     6   ar
    30    27    22   ar
    31    14    15    1
    32     4    12    1
    33     4    13    1
@<TRIPOS>MOLECULE
*****
 31 33 0 0 0
SMALL
GASTEIGER

@<TRIPOS>ATOM
      1 C          -9.6484  -18.1918   20.5428 C.ar    1  UNL1        0.1357
      2 N         -10.4850  -17.2594   19.7177 N.ar    1  UNL1       -0.1992
      3 C         -11.7799  -16.7331   20.2620 C.ar    1  UNL1        0.2148
      4 N         -12.6165  -15.8007   19.4368 N.pl3   1  UNL1       -0.3274
      5 N         -12.2382  -17.1391   21.6313 N.ar    1  UNL1       -0.2138
      6 C         -11.4016  -18.0715   22.4565 C.ar    1  UNL1        0.0898
      7 C         -11.8599  -18.4775   23.8258 C.ar    1  UNL1        0.0195
      8 C         -11.0234  -19.4098   24.6509 C.ar    1  UNL1        0.0047
      9 C          -9.7285  -19.9361   24.1066 C.ar    1  UNL1        0.0371
     10 C          -9.2701  -19.5302   22.7373 C.ar    1  UNL1        0.1432
     11 C         -10.1067  -18.5978   21.9122 C.ar    1  UNL1        0.0831
     12 H         -12.3157  -15.5342   18.5381 H       1  UNL1        0.1452
     13 H         -13.4664  -15.4552   19.7940 H       1  UNL1        0.1452
     14 N          -8.3535  -18.7181   19.9986 N.pl3   1  UNL1       -0.3179
     15 H          -7.5129  -18.5553   20.4845 H       1  UNL1        0.1482
     16 C          -8.3394  -19.4926   18.7141 C.3     1  UNL1        0.0882
     17 C          -9.2391  -20.6808   18.5448 C.3     1  UNL1        0.0212
     18 C          -9.4287  -21.4665   16.0756 C.3     1  UNL1        0.0001
     19 C          -8.9492  -21.6952   17.4784 C.3     1  UNL1        0.0017
     20 O          -7.9752  -20.0565   22.1931 O.3     1  UNL1       -0.4687
     21 C          -6.6723  -19.5615   22.7473 C.3     1  UNL1        0.2540
     22 C          -5.4636  -19.4799   21.8628 C.ar    1  UNL1        0.1395
     23 N          -5.4399  -20.2153   20.5556 N.ar    1  UNL1       -0.2412
     24 C          -4.2312  -20.1337   19.6710 C.ar    1  UNL1        0.1019
     25 C          -3.0462  -19.3168   20.0937 C.ar    1  UNL1        0.0607
     26 C          -3.0700  -18.5815   21.4009 C.ar    1  UNL1        0.1752
     27 C          -4.2787  -18.6631   22.2854 C.ar    1  UNL1        0.1894
     28 O          -1.8851  -17.7646   21.8235 O.3     1  UNL1       -0.4683
     29 C          -1.8332  -16.2992   21.5076 C.3     1  UNL1        0.2526
     30 O          -4.3025  -17.9278   23.5926 O.3     1  UNL1       -0.4670
     31 C          -4.8171  -16.5200   23.6520 C.3     1  UNL1        0.2527
@<TRIPOS>BOND
     1    18    19    1
     2    19    17    1
     3    17    16    1
     4    16    14    1
     5    14     1    1
     6     1     2   ar
     7     2     3   ar
     8     3     4    1
     9     3     5   ar
    10     5     6   ar
    11     6     7   ar
    12     7     8   ar
    13     8     9   ar
    14     9    10   ar
    15    10    20    1
    16    20    21    1
    17    21    22    1
    18    22    23   ar
    19    23    24   ar
    20    24    25   ar
    21    25    26   ar
    22    26    28    1
    23    28    29    1
    24    26    27   ar
    25    27    30    1
    26    30    31    1
    27    10    11   ar
    28    11     1   ar
    29    11     6   ar
    30    27    22   ar
    31    14    15    1
    32     4    12    1
    33     4    13    1
@<TRIPOS>MOLECULE
*****
 31 33 0 0 0
SMALL
GASTEIGER

@<TRIPOS>ATOM
      1 C          -9.4763  -17.6223   23.3443 C.ar    1  UNL1        0.1357
      2 N         -10.9098  -17.4766   23.7610 N.ar    1  UNL1       -0.1992
      3 C         -12.0033  -18.0157   22.8872 C.ar    1  UNL1        0.2148
      4 N         -13.4369  -17.8701   23.3040 N.pl3   1  UNL1       -0.3274
      5 N         -11.6633  -18.7004   21.5967 N.ar    1  UNL1       -0.2138
      6 C         -10.2297  -18.8461   21.1799 C.ar    1  UNL1        0.0898
      7 C          -9.8897  -19.5308   19.8894 C.ar    1  UNL1        0.0195
      8 C          -8.4562  -19.6764   19.4727 C.ar    1  UNL1        0.0047
      9 C          -7.3626  -19.1374   20.3465 C.ar    1  UNL1        0.0371
     10 C          -7.7026  -18.4526   21.6370 C.ar    1  UNL1        0.1432
     11 C          -9.1362  -18.3070   22.0537 C.ar    1  UNL1        0.0831
     12 H         -13.6601  -17.4207   24.1510 H       1  UNL1        0.1452
     13 H         -14.1547  -18.2239   22.7305 H       1  UNL1        0.1452
     14 N          -8.3827  -17.0832   24.2182 N.pl3   1  UNL1       -0.3179
     15 H          -7.5242  -17.5607   24.2834 H       1  UNL1        0.1482
     16 C          -8.5971  -15.8166   24.9926 C.3     1  UNL1        0.0882
     17 C          -8.3688  -15.7961   26.4749 C.3     1  UNL1        0.0212
     18 C          -5.8380  -15.3500   26.0924 C.3     1  UNL1        0.0001
     19 C          -6.9767  -15.6621   27.0175 C.3     1  UNL1        0.0017
     20 O          -6.6091  -17.9136   22.5109 O.3     1  UNL1       -0.4687
     21 C          -5.3006  -18.6402   22.6090 C.3     1  UNL1        0.2540
     22 C          -4.0316  -17.9601   22.1881 C.ar    1  UNL1        0.1395
     23 N          -3.7809  -16.5331   22.5767 N.ar    1  UNL1       -0.2412
     24 C          -2.5119  -15.8531   22.1557 C.ar    1  UNL1        0.1019
     25 C          -1.4936  -16.6000   21.3463 C.ar    1  UNL1        0.0607
     26 C          -1.7443  -18.0269   20.9578 C.ar    1  UNL1        0.1752
     27 C          -3.0133  -18.7070   21.3787 C.ar    1  UNL1        0.1894
     28 O          -0.7260  -18.7738   20.1483 O.3     1  UNL1       -0.4683
     29 C           0.5614  -18.1073   19.7632 C.3     1  UNL1        0.2526
     30 O          -3.2640  -20.1339   20.9902 O.3     1  UNL1       -0.4670
     31 C          -3.9196  -20.4501   19.6786 C.3     1  UNL1        0.2527
@<TRIPOS>BOND
     1    18    19    1
     2    19    17    1
     3    17    16    1
     4    16    14    1
     5    14     1    1
     6     1     2   ar
     7     2     3   ar
     8     3     4    1
     9     3     5   ar
    10     5     6   ar
    11     6     7   ar
    12     7     8   ar
    13     8     9   ar
    14     9    10   ar
    15    10    20    1
    16    20    21    1
    17    21    22    1
    18    22    23   ar
    19    23    24   ar
    20    24    25   ar
    21    25    26   ar
    22    26    28    1
    23    28    29    1
    24    26    27   ar
    25    27    30    1
    26    30    31    1
    27    10    11   ar
    28    11     1   ar
    29    11     6   ar
    30    27    22   ar
    31    14    15    1
    32     4    12    1
    33     4    13    1
@<TRIPOS>MOLECULE
*****
 31 33 0 0 0
SMALL
GASTEIGER

@<TRIPOS>ATOM
      1 C          -4.7364  -17.4841   22.5051 C.ar    1  UNL1        0.1357
      2 N          -3.4578  -16.7040   22.4249 N.ar    1  UNL1       -0.1992
      3 C          -2.3527  -17.1661   21.5220 C.ar    1  UNL1        0.2148
      4 N          -1.0740  -16.3859   21.4418 N.pl3   1  UNL1       -0.3274
      5 N          -2.5263  -18.4082   20.6992 N.ar    1  UNL1       -0.2138
      6 C          -3.8050  -19.1884   20.7794 C.ar    1  UNL1        0.0898
      7 C          -3.9786  -20.4305   19.9566 C.ar    1  UNL1        0.0195
      8 C          -5.2572  -21.2105   20.0368 C.ar    1  UNL1        0.0047
      9 C          -6.3623  -20.7485   20.9398 C.ar    1  UNL1        0.0371
     10 C          -6.1887  -19.5064   21.7626 C.ar    1  UNL1        0.1432
     11 C          -4.9101  -18.7263   21.6824 C.ar    1  UNL1        0.0831
     12 H          -0.9601  -15.5707   21.9818 H       1  UNL1        0.1452
     13 H          -0.3487  -16.6892   20.8492 H       1  UNL1        0.1452
     14 N          -5.8415  -17.0221   23.4081 N.pl3   1  UNL1       -0.3179
     15 H          -6.5626  -17.6429   23.6610 H       1  UNL1        0.1482
     16 C          -5.8480  -15.6143   23.9257 C.3     1  UNL1        0.0882
     17 C          -5.2840  -15.3113   25.2822 C.3     1  UNL1        0.0212
     18 C          -7.5960  -15.5327   26.4464 C.3     1  UNL1        0.0001
     19 C          -6.0984  -15.5861   26.5115 C.3     1  UNL1        0.0017
     20 O          -7.2938  -19.0444   22.6655 O.3     1  UNL1       -0.4687
     21 C          -8.6679  -19.6304   22.5296 C.3     1  UNL1        0.2540
     22 C          -9.8055  -18.7735   22.0590 C.ar    1  UNL1        0.1395
     23 N          -9.8576  -18.3135   20.6322 N.ar    1  UNL1       -0.2412
     24 C         -10.9953  -17.4566   20.1615 C.ar    1  UNL1        0.1019
     25 C         -12.0808  -17.0597   21.1177 C.ar    1  UNL1        0.0607
     26 C         -12.0286  -17.5197   22.5444 C.ar    1  UNL1        0.1752
     27 C         -10.8910  -18.3766   23.0151 C.ar    1  UNL1        0.1894
     28 O         -13.1141  -17.1228   23.5005 O.3     1  UNL1       -0.4683
     29 C         -14.0405  -18.1629   24.0572 C.3     1  UNL1        0.2526
     30 O         -10.8388  -18.8366   24.4418 O.3     1  UNL1       -0.4670
     31 C          -9.8768  -18.1997   25.4005 C.3     1  UNL1        0.2527
@<TRIPOS>BOND
     1    18    19    1
     2    19    17    1
     3    17    16    1
     4    16    14    1
     5    14     1    1
     6     1     2   ar
     7     2     3   ar
     8     3     4    1
     9     3     5   ar
    10     5     6   ar
    11     6     7   ar
    12     7     8   ar
    13     8     9   ar
    14     9    10   ar
    15    10    20    1
    16    20    21    1
    17    21    22    1
    18    22    23   ar
    19    23    24   ar
    20    24    25   ar
    21    25    26   ar
    22    26    28    1
    23    28    29    1
    24    26    27   ar
    25    27    30    1
    26    30    31    1
    27    10    11   ar
    28    11     1   ar
    29    11     6   ar
    30    27    22   ar
    31    14    15    1
    32     4    12    1
    33     4    13    1
@<TRIPOS>MOLECULE
*****
 31 33 0 0 0
SMALL
GASTEIGER

@<TRIPOS>ATOM
      1 C          -9.7348  -17.8480   23.2369 C.ar    1  UNL1        0.1357
      2 N         -11.0964  -17.6270   23.8261 N.ar    1  UNL1       -0.1992
      3 C         -12.3197  -18.0463   23.0659 C.ar    1  UNL1        0.2148
      4 N         -13.6813  -17.8252   23.6552 N.pl3   1  UNL1       -0.3274
      5 N         -12.1813  -18.6866   21.7166 N.ar    1  UNL1       -0.2138
      6 C         -10.8197  -18.9076   21.1273 C.ar    1  UNL1        0.0898
      7 C         -10.6813  -19.5479   19.7779 C.ar    1  UNL1        0.0195
      8 C          -9.3197  -19.7689   19.1888 C.ar    1  UNL1        0.0047
      9 C          -8.0965  -19.3497   19.9490 C.ar    1  UNL1        0.0371
     10 C          -8.2348  -18.7094   21.2983 C.ar    1  UNL1        0.1432
     11 C          -9.5964  -18.4883   21.8875 C.ar    1  UNL1        0.0831
     12 H         -13.7721  -17.4050   24.5408 H       1  UNL1        0.1452
     13 H         -14.4842  -18.1004   23.1562 H       1  UNL1        0.1452
     14 N          -8.5116  -17.4287   23.9971 N.pl3   1  UNL1       -0.3179
     15 H          -7.8641  -18.1057   24.3000 H       1  UNL1        0.1482
     16 C          -8.2748  -15.9780   24.2959 C.3     1  UNL1        0.0882
     17 C          -8.7463  -15.3930   25.5941 C.3     1  UNL1        0.0212
     18 C          -6.6665  -15.6951   27.1217 C.3     1  UNL1        0.0001
     19 C          -8.1399  -15.8512   26.8874 C.3     1  UNL1        0.0017
     20 O          -7.0116  -18.2901   22.0585 O.3     1  UNL1       -0.4687
     21 C          -5.8665  -19.2449   22.2224 C.3     1  UNL1        0.2540
     22 C          -4.6856  -19.1650   21.3009 C.ar    1  UNL1        0.1395
     23 N          -4.5587  -20.1294   20.1590 N.ar    1  UNL1       -0.2412
     24 C          -3.3777  -20.0494   19.2375 C.ar    1  UNL1        0.1019
     25 C          -2.3237  -19.0051   19.4580 C.ar    1  UNL1        0.0607
     26 C          -2.4507  -18.0408   20.5999 C.ar    1  UNL1        0.1752
     27 C          -3.6316  -18.1208   21.5214 C.ar    1  UNL1        0.1894
     28 O          -1.3967  -16.9966   20.8204 O.3     1  UNL1       -0.4683
     29 C          -0.0605  -17.1266   20.1512 C.3     1  UNL1        0.2526
     30 O          -3.7585  -17.1564   22.6633 O.3     1  UNL1       -0.4670
     31 C          -3.5797  -17.6360   24.0733 C.3     1  UNL1        0.2527
@<TRIPOS>BOND
     1    18    19    1
     2    19    17    1
     3    17    16    1
     4    16    14    1
     5    14     1    1
     6     1     2   ar
     7     2     3   ar
     8     3     4    1
     9     3     5   ar
    10     5     6   ar
    11     6     7   ar
    12     7     8   ar
    13     8     9   ar
    14     9    10   ar
    15    10    20    1
    16    20    21    1
    17    21    22    1
    18    22    23   ar
    19    23    24   ar
    20    24    25   ar
    21    25    26   ar
    22    26    28    1
    23    28    29    1
    24    26    27   ar
    25    27    30    1
    26    30    31    1
    27    10    11   ar
    28    11     1   ar
    29    11     6   ar
    30    27    22   ar
    31    14    15    1
    32     4    12    1
    33     4    13    1
@<TRIPOS>MOLECULE
*****
 31 33 0 0 0
SMALL
GASTEIGER

@<TRIPOS>ATOM
      1 C          -5.6327  -18.5148   21.1297 C.ar    1  UNL1        0.1357
      2 N          -4.4937  -19.4331   20.7990 N.ar    1  UNL1       -0.1992
      3 C          -3.2776  -19.4658   21.6765 C.ar    1  UNL1        0.2148
      4 N          -2.1385  -20.3841   21.3458 N.pl3   1  UNL1       -0.3274
      5 N          -3.2005  -18.5803   22.8847 N.ar    1  UNL1       -0.2138
      6 C          -4.3395  -17.6620   23.2155 C.ar    1  UNL1        0.0898
      7 C          -4.2624  -16.7764   24.4237 C.ar    1  UNL1        0.0195
      8 C          -5.4014  -15.8582   24.7544 C.ar    1  UNL1        0.0047
      9 C          -6.6175  -15.8255   23.8769 C.ar    1  UNL1        0.0371
     10 C          -6.6946  -16.7110   22.6687 C.ar    1  UNL1        0.1432
     11 C          -5.5556  -17.6292   22.3380 C.ar    1  UNL1        0.0831
     12 H          -2.1891  -20.9654   20.5527 H       1  UNL1        0.1452
     13 H          -1.3403  -20.4056   21.9217 H       1  UNL1        0.1452
     14 N          -6.8488  -18.4821   20.2522 N.pl3   1  UNL1       -0.3179
     15 H          -7.1233  -17.6399   19.8226 H       1  UNL1        0.1482
     16 C          -7.6467  -19.7325   20.0294 C.3     1  UNL1        0.0882
     17 C          -8.7407  -19.7513   19.0032 C.3     1  UNL1        0.0212
     18 C         -10.6555  -19.8094   20.7583 C.3     1  UNL1        0.0001
     19 C         -10.1483  -19.4196   19.4015 C.3     1  UNL1        0.0017
     20 O          -7.9107  -16.6783   21.7912 O.3     1  UNL1       -0.4687
     21 C          -9.2315  -16.2457   22.3556 C.3     1  UNL1        0.2540
     22 C         -10.0639  -17.2139   23.1428 C.ar    1  UNL1        0.1395
     23 N          -9.3996  -18.2429   24.0089 N.ar    1  UNL1       -0.2412
     24 C         -10.2321  -19.2110   24.7961 C.ar    1  UNL1        0.1019
     25 C         -11.7288  -19.1502   24.7172 C.ar    1  UNL1        0.0607
     26 C         -12.3930  -18.1213   23.8512 C.ar    1  UNL1        0.1752
     27 C         -11.5606  -17.1531   23.0640 C.ar    1  UNL1        0.1894
     28 O         -13.8897  -18.0605   23.7724 O.3     1  UNL1       -0.4683
     29 C         -14.7196  -18.4451   24.9612 C.3     1  UNL1        0.2526
     30 O         -12.2248  -16.1242   22.1980 O.3     1  UNL1       -0.4670
     31 C         -12.4886  -16.4190   20.7510 C.3     1  UNL1        0.2527
@<TRIPOS>BOND
     1    18    19    1
     2    19    17    1
     3    17    16    1
     4    16    14    1
     5    14     1    1
     6     1     2   ar
     7     2     3   ar
     8     3     4    1
     9     3     5   ar
    10     5     6   ar
    11     6     7   ar
    12     7     8   ar
    13     8     9   ar
    14     9    10   ar
    15    10    20    1
    16    20    21    1
    17    21    22    1
    18    22    23   ar
    19    23    24   ar
    20    24    25   ar
    21    25    26   ar
    22    26    28    1
    23    28    29    1
    24    26    27   ar
    25    27    30    1
    26    30    31    1
    27    10    11   ar
    28    11     1   ar
    29    11     6   ar
    30    27    22   ar
    31    14    15    1
    32     4    12    1
    33     4    13    1
@<TRIPOS>MOLECULE
*****
 31 33 0 0 0
SMALL
GASTEIGER

@<TRIPOS>ATOM
      1 C         -15.0241   -8.4422   18.9629 C.ar    1  UNL1        0.1357
      2 N         -15.3595   -9.9014   18.8725 N.ar    1  UNL1       -0.1992
      3 C         -16.7824  -10.3542   19.0160 C.ar    1  UNL1        0.2148
      4 N         -17.1178  -11.8134   18.9255 N.pl3   1  UNL1       -0.3274
      5 N         -17.8697   -9.3478   19.2499 N.ar    1  UNL1       -0.2138
      6 C         -17.5343   -7.8885   19.3404 C.ar    1  UNL1        0.0898
      7 C         -18.6216   -6.8821   19.5743 C.ar    1  UNL1        0.0195
      8 C         -18.2861   -5.4229   19.6648 C.ar    1  UNL1        0.0047
      9 C         -16.8633   -4.9702   19.5213 C.ar    1  UNL1        0.0371
     10 C         -15.7760   -5.9766   19.2874 C.ar    1  UNL1        0.1432
     11 C         -16.1114   -7.4357   19.1969 C.ar    1  UNL1        0.0831
     12 H         -16.4041  -12.4740   18.7719 H       1  UNL1        0.1452
     13 H         -18.0516  -12.1106   19.0196 H       1  UNL1        0.1452
     14 N         -13.6012   -7.9895   18.8195 N.pl3   1  UNL1       -0.3179
     15 H         -13.0831   -7.7342   19.6167 H       1  UNL1        0.1482
     16 C         -12.9678   -7.9257   17.4613 C.3     1  UNL1        0.0882
     17 C         -11.4994   -7.6489   17.3308 C.3     1  UNL1        0.0212
     18 C          -9.3633   -7.6936   18.8091 C.3     1  UNL1        0.0001
     19 C         -10.7246   -7.1393   18.5099 C.3     1  UNL1        0.0017
     20 O         -14.3531   -5.5238   19.1439 O.3     1  UNL1       -0.4687
     21 C         -13.8486   -4.3674   19.9551 C.3     1  UNL1        0.2540
     22 C         -12.9554   -3.3412   19.3235 C.ar    1  UNL1        0.1395
     23 N         -11.5861   -3.7287   18.8492 N.ar    1  UNL1       -0.2412
     24 C         -10.6928   -2.7025   18.2176 C.ar    1  UNL1        0.1019
     25 C         -11.1689   -1.2887   18.0603 C.ar    1  UNL1        0.0607
     26 C         -12.5381   -0.9012   18.5346 C.ar    1  UNL1        0.1752
     27 C         -13.4313   -1.9275   19.1662 C.ar    1  UNL1        0.1894
     28 O         -13.0141    0.5125   18.3773 O.3     1  UNL1       -0.4683
     29 C         -13.6279    0.9576   17.0830 C.3     1  UNL1        0.2526
     30 O         -14.8006   -1.5400   19.6405 O.3     1  UNL1       -0.4670
     31 C         -15.9446   -1.4927   18.6714 C.3     1  UNL1        0.2527
@<TRIPOS>BOND
     1    18    19    1
     2    19    17    1
     3    17    16    1
     4    16    14    1
     5    14     1    1
     6     1     2   ar
     7     2     3   ar
     8     3     4    1
     9     3     5   ar
    10     5     6   ar
    11     6     7   ar
    12     7     8   ar
    13     8     9   ar
    14     9    10   ar
    15    10    20    1
    16    20    21    1
    17    21    22    1
    18    22    23   ar
    19    23    24   ar
    20    24    25   ar
    21    25    26   ar
    22    26    28    1
    23    28    29    1
    24    26    27   ar
    25    27    30    1
    26    30    31    1
    27    10    11   ar
    28    11     1   ar
    29    11     6   ar
    30    27    22   ar
    31    14    15    1
    32     4    12    1
    33     4    13    1
@<TRIPOS>MOLECULE
*****
 31 33 0 0 0
SMALL
GASTEIGER

@<TRIPOS>ATOM
      1 C          -5.6064  -19.1633   21.6815 C.ar    1  UNL1        0.1357
      2 N          -4.4152  -19.9602   21.2389 N.ar    1  UNL1       -0.1992
      3 C          -3.0401  -19.5683   21.6926 C.ar    1  UNL1        0.2148
      4 N          -1.8488  -20.3652   21.2500 N.pl3   1  UNL1       -0.3274
      5 N          -2.8564  -18.3796   22.5887 N.ar    1  UNL1       -0.2138
      6 C          -4.0477  -17.5827   23.0313 C.ar    1  UNL1        0.0898
      7 C          -3.8639  -16.3940   23.9275 C.ar    1  UNL1        0.0195
      8 C          -5.0552  -15.5971   24.3700 C.ar    1  UNL1        0.0047
      9 C          -6.4302  -15.9890   23.9164 C.ar    1  UNL1        0.0371
     10 C          -6.6140  -17.1777   23.0202 C.ar    1  UNL1        0.1432
     11 C          -5.4227  -17.9746   22.5777 C.ar    1  UNL1        0.0831
     12 H          -1.9695  -21.1454   20.6618 H       1  UNL1        0.1452
     13 H          -0.9464  -20.1081   21.5477 H       1  UNL1        0.1452
     14 N          -6.9814  -19.5552   21.2279 N.pl3   1  UNL1       -0.3179
     15 H          -7.6617  -19.8182   21.8892 H       1  UNL1        0.1482
     16 C          -7.3201  -19.5463   19.7666 C.3     1  UNL1        0.0882
     17 C          -8.7213  -19.8409   19.3197 C.3     1  UNL1        0.0212
     18 C         -10.9272  -18.5086   19.6504 C.3     1  UNL1        0.0001
     19 C          -9.8827  -19.4446   20.1824 C.3     1  UNL1        0.0017
     20 O          -7.9890  -17.5696   22.5666 O.3     1  UNL1       -0.4687
     21 C          -9.0694  -17.8189   23.5768 C.3     1  UNL1        0.2540
     22 C         -10.4866  -17.4356   23.2693 C.ar    1  UNL1        0.1395
     23 N         -10.7697  -16.3035   22.3268 N.ar    1  UNL1       -0.2412
     24 C         -12.1870  -15.9202   22.0193 C.ar    1  UNL1        0.1019
     25 C         -13.3211  -16.6690   22.6544 C.ar    1  UNL1        0.0607
     26 C         -13.0379  -17.8010   23.5969 C.ar    1  UNL1        0.1752
     27 C         -11.6207  -18.1843   23.9043 C.ar    1  UNL1        0.1894
     28 O         -14.1719  -18.5497   24.2319 O.3     1  UNL1       -0.4683
     29 C         -14.4059  -18.4446   25.7098 C.3     1  UNL1        0.2526
     30 O         -11.3375  -19.3163   24.8468 O.3     1  UNL1       -0.4670
     31 C         -10.3639  -20.3896   24.4589 C.3     1  UNL1        0.2527
@<TRIPOS>BOND
     1    18    19    1
     2    19    17    1
     3    17    16    1
     4    16    14    1
     5    14     1    1
     6     1     2   ar
     7     2     3   ar
     8     3     4    1
     9     3     5   ar
    10     5     6   ar
    11     6     7   ar
    12     7     8   ar
    13     8     9   ar
    14     9    10   ar
    15    10    20    1
    16    20    21    1
    17    21    22    1
    18    22    23   ar
    19    23    24   ar
    20    24    25   ar
    21    25    26   ar
    22    26    28    1
    23    28    29    1
    24    26    27   ar
    25    27    30    1
    26    30    31    1
    27    10    11   ar
    28    11     1   ar
    29    11     6   ar
    30    27    22   ar
    31    14    15    1
    32     4    12    1
    33     4    13    1
@<TRIPOS>MOLECULE
*****
 31 33 0 0 0
SMALL
GASTEIGER

@<TRIPOS>ATOM
      1 C          -9.5024  -17.7337   21.9553 C.ar    1  UNL1        0.1357
      2 N         -10.9968  -17.7964   21.8423 N.ar    1  UNL1       -0.1992
      3 C         -11.8548  -17.0456   22.8171 C.ar    1  UNL1        0.2148
      4 N         -13.3493  -17.1083   22.7040 N.pl3   1  UNL1       -0.3274
      5 N         -11.2185  -16.2323   23.9049 N.ar    1  UNL1       -0.2138
      6 C          -9.7240  -16.1696   24.0180 C.ar    1  UNL1        0.0898
      7 C          -9.0876  -15.3563   25.1058 C.ar    1  UNL1        0.0195
      8 C          -7.5932  -15.2936   25.2189 C.ar    1  UNL1        0.0047
      9 C          -6.7352  -16.0443   24.2441 C.ar    1  UNL1        0.0371
     10 C          -7.3716  -16.8577   23.1563 C.ar    1  UNL1        0.1432
     11 C          -8.8660  -16.9203   23.0432 C.ar    1  UNL1        0.0831
     12 H         -13.7670  -17.6422   21.9900 H       1  UNL1        0.1452
     13 H         -13.9125  -16.6156   23.3438 H       1  UNL1        0.1452
     14 N          -8.6444  -18.4844   20.9805 N.pl3   1  UNL1       -0.3179
     15 H          -7.6637  -18.4152   21.0330 H       1  UNL1        0.1482
     16 C          -9.2805  -19.3406   19.9259 C.3     1  UNL1        0.0882
     17 C          -8.4311  -19.9889   18.8732 C.3     1  UNL1        0.0212
     18 C          -8.5354  -22.2886   17.6687 C.3     1  UNL1        0.0001
     19 C          -9.0589  -20.8955   17.8563 C.3     1  UNL1        0.0017
     20 O          -6.5135  -17.6084   22.1815 O.3     1  UNL1       -0.4687
     21 C          -5.1703  -18.1234   22.6063 C.3     1  UNL1        0.2540
     22 C          -4.2931  -18.8345   21.6189 C.ar    1  UNL1        0.1395
     23 N          -4.8713  -19.8954   20.7299 N.ar    1  UNL1       -0.2412
     24 C          -3.9941  -20.6064   19.7425 C.ar    1  UNL1        0.1019
     25 C          -2.5387  -20.2565   19.6442 C.ar    1  UNL1        0.0607
     26 C          -1.9606  -19.1956   20.5331 C.ar    1  UNL1        0.1752
     27 C          -2.8379  -18.4846   21.5205 C.ar    1  UNL1        0.1894
     28 O          -0.5054  -18.8458   20.4347 O.3     1  UNL1       -0.4683
     29 C          -0.0726  -17.6567   19.6292 C.3     1  UNL1        0.2526
     30 O          -2.2598  -17.4237   22.4095 O.3     1  UNL1       -0.4670
     31 C          -2.1995  -16.0010   21.9379 C.3     1  UNL1        0.2527
@<TRIPOS>BOND
     1    18    19    1
     2    19    17    1
     3    17    16    1
     4    16    14    1
     5    14     1    1
     6     1     2   ar
     7     2     3   ar
     8     3     4    1
     9     3     5   ar
    10     5     6   ar
    11     6     7   ar
    12     7     8   ar
    13     8     9   ar
    14     9    10   ar
    15    10    20    1
    16    20    21    1
    17    21    22    1
    18    22    23   ar
    19    23    24   ar
    20    24    25   ar
    21    25    26   ar
    22    26    28    1
    23    28    29    1
    24    26    27   ar
    25    27    30    1
    26    30    31    1
    27    10    11   ar
    28    11     1   ar
    29    11     6   ar
    30    27    22   ar
    31    14    15    1
    32     4    12    1
    33     4    13    1
