@<TRIPOS>MOLECULE
*****
 36 40 0 0 0
SMALL
GASTEIGER

@<TRIPOS>ATOM
      1 O           3.8673    2.4166   31.6189 O.2     1  UNL1       -0.2698
      2 C           3.0850    2.1141   30.3754 C.2     1  UNL1        0.2496
      3 N           3.6570    1.6890   29.0555 N.am    1  UNL1       -0.2803
      4 C           2.5189    1.4957   28.0977 C.ar    1  UNL1        0.0519
      5 C           2.4791    1.0808   26.6568 C.ar    1  UNL1        0.0293
      6 C           1.1639    0.9716   25.9439 C.ar    1  UNL1        0.0516
      7 C          -0.1115    1.2771   26.6719 C.ar    1  UNL1        0.0148
      8 C          -0.0717    1.6919   28.1128 C.ar    1  UNL1        0.0026
      9 C           1.2434    1.8012   28.8257 C.ar    1  UNL1        0.0180
     10 C           1.5934    2.1834   30.2334 C.2     1  UNL1        0.0563
     11 C           0.6221    2.5675   31.3100 C.2     1  UNL1        0.0215
     12 H           4.6118    1.5596   28.8533 H       1  UNL1        0.1552
     13 C           1.1222    2.9270   32.6778 C.ar    1  UNL1        0.0568
     14 C           1.1353    4.3013   33.2787 C.ar    1  UNL1        0.0185
     15 C           1.7181    4.1990   34.6570 C.ar    1  UNL1        0.0199
     16 C           2.0652    2.7615   34.9081 C.ar    1  UNL1        0.0724
     17 N           1.6968    1.9753   33.6848 N.ar    1  UNL1       -0.3520
     18 H           1.8120    1.0051   33.5641 H       1  UNL1        0.1660
     19 N           1.1240    0.5568   24.5029 N.am    1  UNL1       -0.2832
     20 C           1.2970    1.5824   23.4221 C.2     1  UNL1        0.2388
     21 O           1.5098    3.0230   23.7824 O.2     1  UNL1       -0.2739
     22 H           0.9844   -0.3887   24.2665 H       1  UNL1        0.1549
     23 C           1.2572    1.1677   21.9812 C.3     1  UNL1        0.1793
     24 C           0.1842    1.6985   21.0773 C.2     1  UNL1        0.0891
     25 N           0.1445    1.2837   19.6363 N.2     1  UNL1       -0.2459
     26 C           1.1776    0.3381   19.0992 C.2     1  UNL1        0.1014
     27 C           2.2505   -0.1927   20.0031 C.2     1  UNL1        0.0568
     28 C           2.2903    0.2220   21.4441 C.2     1  UNL1        0.1886
     29 O           3.3633   -0.3088   22.3480 O.2     1  UNL1       -0.2904
     30 C           3.2836   -1.1383   19.4661 C.ar    1  UNL1        0.0318
     31 C           3.1392   -2.6142   19.6921 C.ar    1  UNL1        0.0024
     32 C           4.1723   -3.5598   19.1551 C.ar    1  UNL1        0.0001
     33 C           5.3499   -3.0296   18.3920 C.ar    1  UNL1        0.0023
     34 C           5.4943   -1.5539   18.1660 C.ar    1  UNL1        0.0296
     35 C           4.4612   -0.6082   18.7030 C.ar    1  UNL1        0.1402
     36 F           4.6056    0.8676   18.4770 F       1  UNL1       -0.2042
@<TRIPOS>BOND
     1     1     2    2
     2     2     3   am
     3     3     4    1
     4     4     5   ar
     5     5     6   ar
     6     6    19    1
     7    19    20   am
     8    20    21    2
     9    20    23    1
    10    23    24    1
    11    24    25    2
    12    25    26    1
    13    26    27    2
    14    27    30    1
    15    30    31   ar
    16    31    32   ar
    17    32    33   ar
    18    33    34   ar
    19    34    35   ar
    20    35    36    1
    21    27    28    1
    22    28    29    2
    23     6     7   ar
    24     7     8   ar
    25     8     9   ar
    26     9    10    1
    27    10    11    2
    28    11    13    1
    29    13    14   ar
    30    14    15   ar
    31    15    16   ar
    32    16    17   ar
    33    10     2    1
    34    17    13   ar
    35     9     4   ar
    36    28    23    1
    37    35    30   ar
    38     3    12    1
    39    19    22    1
    40    17    18    1
@<TRIPOS>MOLECULE
*****
 36 40 0 0 0
SMALL
GASTEIGER

@<TRIPOS>ATOM
      1 O          -0.2254    2.9135   23.1224 O.2     1  UNL1       -0.2698
      2 C           0.6312    1.7735   22.6567 C.2     1  UNL1        0.2496
      3 N           1.5658    0.9674   23.5092 N.am    1  UNL1       -0.2803
      4 C           2.2159   -0.0648   22.6362 C.ar    1  UNL1        0.0519
      5 C           3.2241   -1.1360   22.9290 C.ar    1  UNL1        0.0293
      6 C           3.6995   -2.0391   21.8297 C.ar    1  UNL1        0.0516
      7 C           3.1667   -1.8709   20.4377 C.ar    1  UNL1        0.0148
      8 C           2.1584   -0.7996   20.1449 C.ar    1  UNL1        0.0026
      9 C           1.6830    0.1035   21.2442 C.ar    1  UNL1        0.0180
     10 C           0.7037    1.2396   21.2569 C.2     1  UNL1        0.0563
     11 C          -0.0677    1.7518   20.0768 C.2     1  UNL1        0.0215
     12 H           1.7247    1.0936   24.4726 H       1  UNL1        0.1552
     13 C          -1.0165    2.9019   20.2429 C.ar    1  UNL1        0.0568
     14 C          -0.7649    4.3199   19.8236 C.ar    1  UNL1        0.0185
     15 C          -1.9762    5.1301   20.1789 C.ar    1  UNL1        0.0199
     16 C          -2.9764    4.2129   20.8177 C.ar    1  UNL1        0.0724
     17 N          -2.3833    2.8357   20.8572 N.ar    1  UNL1       -0.3520
     18 H          -2.8152    2.0298   21.2223 H       1  UNL1        0.1660
     19 N           4.7078   -3.1105   22.1225 N.am    1  UNL1       -0.2832
     20 C           6.1629   -2.8645   21.8539 C.2     1  UNL1        0.2388
     21 O           6.6097   -1.5472   21.2925 O.2     1  UNL1       -0.2739
     22 H           4.4145   -3.9750   22.4909 H       1  UNL1        0.1549
     23 C           7.1712   -3.9357   22.1466 C.3     1  UNL1        0.1793
     24 C           8.1305   -4.3744   21.0802 C.2     1  UNL1        0.0891
     25 N           9.1388   -5.4457   21.3729 N.2     1  UNL1       -0.2459
     26 C           9.1877   -6.0783   22.7321 C.2     1  UNL1        0.1014
     27 C           8.2284   -5.6397   23.7985 C.2     1  UNL1        0.0568
     28 C           7.2201   -4.5685   23.5058 C.2     1  UNL1        0.1886
     29 O           6.2608   -4.1298   24.5722 O.2     1  UNL1       -0.2904
     30 C           8.2773   -6.2724   25.1576 C.ar    1  UNL1        0.0318
     31 C           7.7486   -7.6618   25.3577 C.ar    1  UNL1        0.0024
     32 C           7.7975   -8.2945   26.7168 C.ar    1  UNL1        0.0001
     33 C           8.3751   -7.5377   27.8760 C.ar    1  UNL1        0.0023
     34 C           8.9038   -6.1484   27.6760 C.ar    1  UNL1        0.0296
     35 C           8.8549   -5.5156   26.3168 C.ar    1  UNL1        0.1402
     36 F           9.3836   -4.1262   26.1169 F       1  UNL1       -0.2042
@<TRIPOS>BOND
     1     1     2    2
     2     2     3   am
     3     3     4    1
     4     4     5   ar
     5     5     6   ar
     6     6    19    1
     7    19    20   am
     8    20    21    2
     9    20    23    1
    10    23    24    1
    11    24    25    2
    12    25    26    1
    13    26    27    2
    14    27    30    1
    15    30    31   ar
    16    31    32   ar
    17    32    33   ar
    18    33    34   ar
    19    34    35   ar
    20    35    36    1
    21    27    28    1
    22    28    29    2
    23     6     7   ar
    24     7     8   ar
    25     8     9   ar
    26     9    10    1
    27    10    11    2
    28    11    13    1
    29    13    14   ar
    30    14    15   ar
    31    15    16   ar
    32    16    17   ar
    33    10     2    1
    34    17    13   ar
    35     9     4   ar
    36    28    23    1
    37    35    30   ar
    38     3    12    1
    39    19    22    1
    40    17    18    1
@<TRIPOS>MOLECULE
*****
 36 40 0 0 0
SMALL
GASTEIGER

@<TRIPOS>ATOM
      1 O           2.8172    1.1850   33.3313 O.2     1  UNL1       -0.2698
      2 C           3.2682    0.4878   32.0821 C.2     1  UNL1        0.2496
      3 N           2.5002    0.3968   30.7968 N.am    1  UNL1       -0.2803
      4 C           3.3238   -0.3880   29.8192 C.ar    1  UNL1        0.0519
      5 C           3.0759   -0.7948   28.3969 C.ar    1  UNL1        0.0293
      6 C           4.1050   -1.5956   27.6556 C.ar    1  UNL1        0.0516
      7 C           5.3820   -1.9897   28.3367 C.ar    1  UNL1        0.0148
      8 C           5.6300   -1.5830   29.7590 C.ar    1  UNL1        0.0026
      9 C           4.6008   -0.7821   30.5003 C.ar    1  UNL1        0.0180
     10 C           4.5665   -0.2408   31.8988 C.2     1  UNL1        0.0563
     11 C           5.6416   -0.4002   32.9325 C.2     1  UNL1        0.0215
     12 H           1.6116    0.7842   30.6251 H       1  UNL1        0.1552
     13 C           5.4660    0.1999   34.2961 C.ar    1  UNL1        0.0568
     14 C           5.0986   -0.5437   35.5459 C.ar    1  UNL1        0.0185
     15 C           5.0324    0.4456   36.6714 C.ar    1  UNL1        0.0199
     16 C           5.3589    1.8007   36.1172 C.ar    1  UNL1        0.0724
     17 N           5.6269    1.6488   34.6491 N.ar    1  UNL1       -0.3520
     18 H           5.8663    2.3729   34.0266 H       1  UNL1        0.1660
     19 N           3.8571   -2.0024   26.2332 N.am    1  UNL1       -0.2832
     20 C           4.6799   -1.4079   25.1289 C.2     1  UNL1        0.2388
     21 O           5.7506   -0.4066   25.4470 O.2     1  UNL1       -0.2739
     22 H           3.1544   -2.6596   26.0245 H       1  UNL1        0.1549
     23 C           4.4321   -1.8146   23.7066 C.3     1  UNL1        0.1793
     24 C           4.9449   -3.1311   23.2027 C.2     1  UNL1        0.0891
     25 N           4.6970   -3.5378   21.7803 N.2     1  UNL1       -0.2459
     26 C           3.9363   -2.6280   20.8618 C.2     1  UNL1        0.1014
     27 C           3.4235   -1.3116   21.3656 C.2     1  UNL1        0.0568
     28 C           3.6713   -0.9048   22.7880 C.2     1  UNL1        0.1886
     29 O           3.1585    0.4117   23.2918 O.2     1  UNL1       -0.2904
     30 C           2.6628   -0.4018   20.4472 C.ar    1  UNL1        0.0318
     31 C           1.1764   -0.2617   20.5921 C.ar    1  UNL1        0.0024
     32 C           0.4157    0.6481   19.6737 C.ar    1  UNL1        0.0001
     33 C           1.1413    1.4177   18.6102 C.ar    1  UNL1        0.0023
     34 C           2.6277    1.2777   18.4652 C.ar    1  UNL1        0.0296
     35 C           3.3885    0.3679   19.3837 C.ar    1  UNL1        0.1402
     36 F           4.8748    0.2278   19.2387 F       1  UNL1       -0.2042
@<TRIPOS>BOND
     1     1     2    2
     2     2     3   am
     3     3     4    1
     4     4     5   ar
     5     5     6   ar
     6     6    19    1
     7    19    20   am
     8    20    21    2
     9    20    23    1
    10    23    24    1
    11    24    25    2
    12    25    26    1
    13    26    27    2
    14    27    30    1
    15    30    31   ar
    16    31    32   ar
    17    32    33   ar
    18    33    34   ar
    19    34    35   ar
    20    35    36    1
    21    27    28    1
    22    28    29    2
    23     6     7   ar
    24     7     8   ar
    25     8     9   ar
    26     9    10    1
    27    10    11    2
    28    11    13    1
    29    13    14   ar
    30    14    15   ar
    31    15    16   ar
    32    16    17   ar
    33    10     2    1
    34    17    13   ar
    35     9     4   ar
    36    28    23    1
    37    35    30   ar
    38     3    12    1
    39    19    22    1
    40    17    18    1
@<TRIPOS>MOLECULE
*****
 36 40 0 0 0
SMALL
GASTEIGER

@<TRIPOS>ATOM
      1 O           5.6065   -4.4688   20.4746 O.2     1  UNL1       -0.2698
      2 C           4.6502   -3.3401   20.7227 C.2     1  UNL1        0.2496
      3 N           3.5601   -2.8883   19.7967 N.am    1  UNL1       -0.2803
      4 C           2.8524   -1.7340   20.4421 C.ar    1  UNL1        0.0519
      5 C           1.6979   -0.8873   19.9946 C.ar    1  UNL1        0.0293
      6 C           1.1961    0.2210   20.8720 C.ar    1  UNL1        0.0516
      7 C           1.8488    0.4826   22.1969 C.ar    1  UNL1        0.0148
      8 C           3.0033   -0.3640   22.6445 C.ar    1  UNL1        0.0026
      9 C           3.5051   -1.4723   21.7671 C.ar    1  UNL1        0.0180
     10 C           4.6162   -2.4650   21.9405 C.2     1  UNL1        0.0563
     11 C           5.5324   -2.5649   23.1240 C.2     1  UNL1        0.0215
     12 H           3.3467   -3.2806   18.9193 H       1  UNL1        0.1552
     13 C           6.6035   -3.6146   23.1567 C.ar    1  UNL1        0.0568
     14 C           6.7029   -4.7425   24.1406 C.ar    1  UNL1        0.0185
     15 C           7.9240   -5.5456   23.8033 C.ar    1  UNL1        0.0199
     16 C           8.5794   -4.9141   22.6109 C.ar    1  UNL1        0.0724
     17 N           7.7633   -3.7207   22.2113 N.ar    1  UNL1       -0.3520
     18 H           7.9551   -3.1136   21.4604 H       1  UNL1        0.1660
     19 N           0.0416    1.0677   20.4244 N.am    1  UNL1       -0.2832
     20 C           0.2872    2.2913   19.5922 C.2     1  UNL1        0.2388
     21 O           1.6872    2.6681   19.2075 O.2     1  UNL1       -0.2739
     22 H          -0.8772    0.8204   20.6769 H       1  UNL1        0.1549
     23 C          -0.8672    3.1380   19.1446 C.3     1  UNL1        0.1793
     24 C          -0.9235    3.6442   17.7338 C.2     1  UNL1        0.0891
     25 N          -2.0780    4.4909   17.2862 N.2     1  UNL1       -0.2459
     26 C          -3.1762    4.8314   18.2496 C.2     1  UNL1        0.1014
     27 C          -3.1199    4.3252   19.6604 C.2     1  UNL1        0.0568
     28 C          -1.9655    3.4785   20.1080 C.2     1  UNL1        0.1886
     29 O          -1.9092    2.9723   21.5189 O.2     1  UNL1       -0.2904
     30 C          -4.2181    4.6657   20.6238 C.ar    1  UNL1        0.0318
     31 C          -3.9921    5.7045   21.6821 C.ar    1  UNL1        0.0024
     32 C          -5.0903    6.0450   22.6454 C.ar    1  UNL1        0.0001
     33 C          -6.4145    5.3467   22.5505 C.ar    1  UNL1        0.0023
     34 C          -6.6405    4.3080   21.4923 C.ar    1  UNL1        0.0296
     35 C          -5.5423    3.9674   20.5289 C.ar    1  UNL1        0.1402
     36 F          -5.7683    2.9287   19.4706 F       1  UNL1       -0.2042
@<TRIPOS>BOND
     1     1     2    2
     2     2     3   am
     3     3     4    1
     4     4     5   ar
     5     5     6   ar
     6     6    19    1
     7    19    20   am
     8    20    21    2
     9    20    23    1
    10    23    24    1
    11    24    25    2
    12    25    26    1
    13    26    27    2
    14    27    30    1
    15    30    31   ar
    16    31    32   ar
    17    32    33   ar
    18    33    34   ar
    19    34    35   ar
    20    35    36    1
    21    27    28    1
    22    28    29    2
    23     6     7   ar
    24     7     8   ar
    25     8     9   ar
    26     9    10    1
    27    10    11    2
    28    11    13    1
    29    13    14   ar
    30    14    15   ar
    31    15    16   ar
    32    16    17   ar
    33    10     2    1
    34    17    13   ar
    35     9     4   ar
    36    28    23    1
    37    35    30   ar
    38     3    12    1
    39    19    22    1
    40    17    18    1
@<TRIPOS>MOLECULE
*****
 36 40 0 0 0
SMALL
GASTEIGER

@<TRIPOS>ATOM
      1 O          -1.5886    2.4559   20.6459 O.2     1  UNL1       -0.2698
      2 C          -0.3321    1.7156   20.2949 C.2     1  UNL1        0.2496
      3 N           0.2922    0.6099   21.0935 N.am    1  UNL1       -0.2803
      4 C           1.5309    0.1620   20.3758 C.ar    1  UNL1        0.0519
      5 C           2.5483   -0.8935   20.6929 C.ar    1  UNL1        0.0293
      6 C           3.7071   -1.1201   19.7678 C.ar    1  UNL1        0.0516
      7 C           3.8485   -0.2911   18.5257 C.ar    1  UNL1        0.0148
      8 C           2.8310    0.7644   18.2086 C.ar    1  UNL1        0.0026
      9 C           1.6722    0.9910   19.1337 C.ar    1  UNL1        0.0180
     10 C           0.5208    1.9511   19.0837 C.2     1  UNL1        0.0563
     11 C           0.2670    2.9683   18.0108 C.2     1  UNL1        0.0215
     12 H          -0.0509    0.2426   21.9400 H       1  UNL1        0.1552
     13 C          -0.9327    3.8647   18.0959 C.ar    1  UNL1        0.0568
     14 C          -2.1317    3.8208   17.1957 C.ar    1  UNL1        0.0185
     15 C          -3.0840    4.8914   17.6396 C.ar    1  UNL1        0.0199
     16 C          -2.4736    5.5969   18.8141 C.ar    1  UNL1        0.0724
     17 N          -1.1440    4.9624   19.0962 N.ar    1  UNL1       -0.3520
     18 H          -0.5196    5.2210   19.8121 H       1  UNL1        0.1660
     19 N           4.7247   -2.1756   20.0849 N.am    1  UNL1       -0.2832
     20 C           5.8647   -1.8649   21.0089 C.2     1  UNL1        0.2388
     21 O           5.9872   -0.4986   21.6158 O.2     1  UNL1       -0.2739
     22 H           4.6443   -3.0723   19.6865 H       1  UNL1        0.1549
     23 C           6.8822   -2.9204   21.3259 C.3     1  UNL1        0.1793
     24 C           8.0161   -3.1779   20.3782 C.2     1  UNL1        0.0891
     25 N           9.0336   -4.2334   20.6954 N.2     1  UNL1       -0.2459
     26 C           8.9173   -5.0314   21.9601 C.2     1  UNL1        0.1014
     27 C           7.7835   -4.7739   22.9078 C.2     1  UNL1        0.0568
     28 C           6.7660   -3.7184   22.5907 C.2     1  UNL1        0.1886
     29 O           5.6321   -3.4609   23.5384 O.2     1  UNL1       -0.2904
     30 C           7.6672   -5.5719   24.1725 C.ar    1  UNL1        0.0318
     31 C           7.1613   -4.9214   25.4260 C.ar    1  UNL1        0.0024
     32 C           7.0450   -5.7194   26.6907 C.ar    1  UNL1        0.0001
     33 C           7.4345   -7.1679   26.7021 C.ar    1  UNL1        0.0023
     34 C           7.9404   -7.8184   25.4488 C.ar    1  UNL1        0.0296
     35 C           8.0567   -7.0204   24.1839 C.ar    1  UNL1        0.1402
     36 F           8.5626   -7.6709   22.9306 F       1  UNL1       -0.2042
@<TRIPOS>BOND
     1     1     2    2
     2     2     3   am
     3     3     4    1
     4     4     5   ar
     5     5     6   ar
     6     6    19    1
     7    19    20   am
     8    20    21    2
     9    20    23    1
    10    23    24    1
    11    24    25    2
    12    25    26    1
    13    26    27    2
    14    27    30    1
    15    30    31   ar
    16    31    32   ar
    17    32    33   ar
    18    33    34   ar
    19    34    35   ar
    20    35    36    1
    21    27    28    1
    22    28    29    2
    23     6     7   ar
    24     7     8   ar
    25     8     9   ar
    26     9    10    1
    27    10    11    2
    28    11    13    1
    29    13    14   ar
    30    14    15   ar
    31    15    16   ar
    32    16    17   ar
    33    10     2    1
    34    17    13   ar
    35     9     4   ar
    36    28    23    1
    37    35    30   ar
    38     3    12    1
    39    19    22    1
    40    17    18    1
@<TRIPOS>MOLECULE
*****
 36 40 0 0 0
SMALL
GASTEIGER

@<TRIPOS>ATOM
      1 O           2.4207    1.3394   33.2057 O.2     1  UNL1       -0.2698
      2 C           2.7519    0.8269   31.8355 C.2     1  UNL1        0.2496
      3 N           1.9002    0.9738   30.6095 N.am    1  UNL1       -0.2803
      4 C           2.6148    0.3153   29.4669 C.ar    1  UNL1        0.0519
      5 C           2.2549    0.1484   28.0203 C.ar    1  UNL1        0.0293
      6 C           3.1884   -0.5724   27.0935 C.ar    1  UNL1        0.0516
      7 C           4.4818   -1.1263   27.6133 C.ar    1  UNL1        0.0148
      8 C           4.8417   -0.9595   29.0599 C.ar    1  UNL1        0.0026
      9 C           3.9082   -0.2387   29.9867 C.ar    1  UNL1        0.0180
     10 C           3.9929    0.0776   31.4505 C.2     1  UNL1        0.0563
     11 C           5.1208   -0.2909   32.3683 C.2     1  UNL1        0.0215
     12 H           1.0256    1.4236   30.5630 H       1  UNL1        0.1552
     13 C           5.0658    0.0952   33.8167 C.ar    1  UNL1        0.0568
     14 C           4.7891   -0.8287   34.9656 C.ar    1  UNL1        0.0185
     15 C           4.8301   -0.0219   36.2294 C.ar    1  UNL1        0.0199
     16 C           5.1321    1.4006   35.8618 C.ar    1  UNL1        0.0724
     17 N           5.2778    1.4730   34.3706 N.ar    1  UNL1       -0.3520
     18 H           5.4775    2.2826   33.8473 H       1  UNL1        0.1660
     19 N           2.8285   -0.7392   25.6469 N.am    1  UNL1       -0.2832
     20 C           2.7693    0.4585   24.7458 C.2     1  UNL1        0.2388
     21 O           3.0700    1.8231   25.2914 O.2     1  UNL1       -0.2739
     22 H           2.6311   -1.6348   25.2889 H       1  UNL1        0.1549
     23 C           2.4094    0.2917   23.2992 C.3     1  UNL1        0.1793
     24 C           1.1956    0.9765   22.7445 C.2     1  UNL1        0.0891
     25 N           0.8357    0.8096   21.2979 N.2     1  UNL1       -0.2459
     26 C           1.6896   -0.0420   20.4060 C.2     1  UNL1        0.1014
     27 C           2.9035   -0.7268   20.9607 C.2     1  UNL1        0.0568
     28 C           3.2633   -0.5600   22.4073 C.2     1  UNL1        0.1886
     29 O           4.4771   -1.2448   22.9620 O.2     1  UNL1       -0.2904
     30 C           3.7574   -1.5784   20.0688 C.ar    1  UNL1        0.0318
     31 C           3.3837   -3.0090   19.8156 C.ar    1  UNL1        0.0024
     32 C           4.2376   -3.8606   18.9238 C.ar    1  UNL1        0.0001
     33 C           5.4653   -3.2818   18.2851 C.ar    1  UNL1        0.0023
     34 C           5.8389   -1.8513   18.5382 C.ar    1  UNL1        0.0296
     35 C           4.9850   -0.9996   19.4301 C.ar    1  UNL1        0.1402
     36 F           5.3587    0.4308   19.6833 F       1  UNL1       -0.2042
@<TRIPOS>BOND
     1     1     2    2
     2     2     3   am
     3     3     4    1
     4     4     5   ar
     5     5     6   ar
     6     6    19    1
     7    19    20   am
     8    20    21    2
     9    20    23    1
    10    23    24    1
    11    24    25    2
    12    25    26    1
    13    26    27    2
    14    27    30    1
    15    30    31   ar
    16    31    32   ar
    17    32    33   ar
    18    33    34   ar
    19    34    35   ar
    20    35    36    1
    21    27    28    1
    22    28    29    2
    23     6     7   ar
    24     7     8   ar
    25     8     9   ar
    26     9    10    1
    27    10    11    2
    28    11    13    1
    29    13    14   ar
    30    14    15   ar
    31    15    16   ar
    32    16    17   ar
    33    10     2    1
    34    17    13   ar
    35     9     4   ar
    36    28    23    1
    37    35    30   ar
    38     3    12    1
    39    19    22    1
    40    17    18    1
@<TRIPOS>MOLECULE
*****
 36 40 0 0 0
SMALL
GASTEIGER

@<TRIPOS>ATOM
      1 O          -3.1844    6.3483   25.5124 O.2     1  UNL1       -0.2698
      2 C          -2.2875    5.3144   26.1260 C.2     1  UNL1        0.2496
      3 N          -1.3738    5.5230   27.2971 N.am    1  UNL1       -0.2803
      4 C          -0.6684    4.2278   27.5712 C.ar    1  UNL1        0.0519
      5 C           0.3472    3.8370   28.6035 C.ar    1  UNL1        0.0293
      6 C           0.8850    2.4370   28.6341 C.ar    1  UNL1        0.0516
      7 C           0.4071    1.4280   27.6324 C.ar    1  UNL1        0.0148
      8 C          -0.6085    1.8189   26.6001 C.ar    1  UNL1        0.0026
      9 C          -1.1463    3.2188   26.5695 C.ar    1  UNL1        0.0180
     10 C          -2.1470    3.8903   25.6764 C.2     1  UNL1        0.0563
     11 C          -2.8786    3.2501   24.5340 C.2     1  UNL1        0.0215
     12 H          -1.2574    6.3625   27.7980 H       1  UNL1        0.1552
     13 C          -3.8553    4.0517   23.7254 C.ar    1  UNL1        0.0568
     14 C          -5.3503    3.9547   23.7995 C.ar    1  UNL1        0.0185
     15 C          -5.9273    4.9340   22.8207 C.ar    1  UNL1        0.0199
     16 C          -4.7890    5.6363   22.1418 C.ar    1  UNL1        0.0724
     17 N          -3.5084    5.0910   22.7010 N.ar    1  UNL1       -0.3520
     18 H          -2.5997    5.3668   22.4412 H       1  UNL1        0.1660
     19 N           1.9006    2.0461   29.6664 N.am    1  UNL1       -0.2832
     20 C           1.4544    1.6156   31.0322 C.2     1  UNL1        0.2388
     21 O          -0.0076    1.5759   31.3657 O.2     1  UNL1       -0.2739
     22 H           2.8602    2.0721   29.4475 H       1  UNL1        0.1549
     23 C           2.4700    1.2246   32.0645 C.3     1  UNL1        0.1793
     24 C           2.4350    1.8523   33.4265 C.2     1  UNL1        0.0891
     25 N           3.4506    1.4613   34.4588 N.2     1  UNL1       -0.2459
     26 C           4.5012    0.4427   34.1292 C.2     1  UNL1        0.1014
     27 C           4.5362   -0.1849   32.7673 C.2     1  UNL1        0.0568
     28 C           3.5206    0.2060   31.7350 C.2     1  UNL1        0.1886
     29 O           3.5556   -0.4217   30.3731 O.2     1  UNL1       -0.2904
     30 C           5.5868   -1.2035   32.4377 C.ar    1  UNL1        0.0318
     31 C           6.8894   -0.7691   31.8337 C.ar    1  UNL1        0.0024
     32 C           7.9400   -1.7877   31.5041 C.ar    1  UNL1        0.0001
     33 C           7.6881   -3.2407   31.7784 C.ar    1  UNL1        0.0023
     34 C           6.3856   -3.6751   32.3823 C.ar    1  UNL1        0.0296
     35 C           5.3349   -2.6565   32.7120 C.ar    1  UNL1        0.1402
     36 F           4.0325   -3.0910   33.3159 F       1  UNL1       -0.2042
@<TRIPOS>BOND
     1     1     2    2
     2     2     3   am
     3     3     4    1
     4     4     5   ar
     5     5     6   ar
     6     6    19    1
     7    19    20   am
     8    20    21    2
     9    20    23    1
    10    23    24    1
    11    24    25    2
    12    25    26    1
    13    26    27    2
    14    27    30    1
    15    30    31   ar
    16    31    32   ar
    17    32    33   ar
    18    33    34   ar
    19    34    35   ar
    20    35    36    1
    21    27    28    1
    22    28    29    2
    23     6     7   ar
    24     7     8   ar
    25     8     9   ar
    26     9    10    1
    27    10    11    2
    28    11    13    1
    29    13    14   ar
    30    14    15   ar
    31    15    16   ar
    32    16    17   ar
    33    10     2    1
    34    17    13   ar
    35     9     4   ar
    36    28    23    1
    37    35    30   ar
    38     3    12    1
    39    19    22    1
    40    17    18    1
@<TRIPOS>MOLECULE
*****
 36 40 0 0 0
SMALL
GASTEIGER

@<TRIPOS>ATOM
      1 O          -5.3435    4.4867   21.0523 O.2     1  UNL1       -0.2698
      2 C          -3.9404    3.9607   21.1203 C.2     1  UNL1        0.2496
      3 N          -3.0942    3.5526   19.9510 N.am    1  UNL1       -0.2803
      4 C          -1.7679    3.0901   20.4776 C.ar    1  UNL1        0.0519
      5 C          -0.5395    2.5734   19.7892 C.ar    1  UNL1        0.0293
      6 C           0.6623    2.1791   20.5955 C.ar    1  UNL1        0.0516
      7 C           0.6356    2.3015   22.0902 C.ar    1  UNL1        0.0148
      8 C          -0.5927    2.8182   22.7787 C.ar    1  UNL1        0.0026
      9 C          -1.7945    3.2125   21.9724 C.ar    1  UNL1        0.0180
     10 C          -3.1372    3.7506   22.3696 C.2     1  UNL1        0.0563
     11 C          -3.5961    4.0295   23.7702 C.2     1  UNL1        0.0215
     12 H          -3.3621    3.5828   19.0042 H       1  UNL1        0.1552
     13 C          -4.9741    4.5695   24.0144 C.ar    1  UNL1        0.0568
     14 C          -5.3130    5.9781   24.4028 C.ar    1  UNL1        0.0185
     15 C          -6.8034    6.0748   24.5415 C.ar    1  UNL1        0.0199
     16 C          -7.3857    4.7260   24.2390 C.ar    1  UNL1        0.0724
     17 N          -6.2550    3.7956   23.9132 N.ar    1  UNL1       -0.3520
     18 H          -6.3390    2.8441   23.6748 H       1  UNL1        0.1660
     19 N           1.8907    1.6624   19.9070 N.am    1  UNL1       -0.2832
     20 C           2.0473    0.1918   19.6560 C.2     1  UNL1        0.2388
     21 O           0.9753   -0.7620   20.0935 O.2     1  UNL1       -0.2739
     22 H           2.5942    2.2884   19.6199 H       1  UNL1        0.1549
     23 C           3.2757   -0.3249   18.9676 C.3     1  UNL1        0.1793
     24 C           3.4224   -0.1746   17.4824 C.2     1  UNL1        0.0891
     25 N           4.6509   -0.6914   16.7940 N.2     1  UNL1       -0.2459
     26 C           5.7326   -1.3585   17.5908 C.2     1  UNL1        0.1014
     27 C           5.5858   -1.5089   19.0760 C.2     1  UNL1        0.0568
     28 C           4.3574   -0.9921   19.7644 C.2     1  UNL1        0.1886
     29 O           4.2107   -1.1425   21.2496 O.2     1  UNL1       -0.2904
     30 C           6.6675   -2.1760   19.8728 C.ar    1  UNL1        0.0318
     31 C           7.8963   -1.4077   20.2599 C.ar    1  UNL1        0.0024
     32 C           8.9779   -2.0748   21.0567 C.ar    1  UNL1        0.0001
     33 C           8.8308   -3.5102   21.4664 C.ar    1  UNL1        0.0023
     34 C           7.6021   -4.2785   21.0794 C.ar    1  UNL1        0.0296
     35 C           6.5204   -3.6114   20.2826 C.ar    1  UNL1        0.1402
     36 F           5.2916   -4.3797   19.8956 F       1  UNL1       -0.2042
@<TRIPOS>BOND
     1     1     2    2
     2     2     3   am
     3     3     4    1
     4     4     5   ar
     5     5     6   ar
     6     6    19    1
     7    19    20   am
     8    20    21    2
     9    20    23    1
    10    23    24    1
    11    24    25    2
    12    25    26    1
    13    26    27    2
    14    27    30    1
    15    30    31   ar
    16    31    32   ar
    17    32    33   ar
    18    33    34   ar
    19    34    35   ar
    20    35    36    1
    21    27    28    1
    22    28    29    2
    23     6     7   ar
    24     7     8   ar
    25     8     9   ar
    26     9    10    1
    27    10    11    2
    28    11    13    1
    29    13    14   ar
    30    14    15   ar
    31    15    16   ar
    32    16    17   ar
    33    10     2    1
    34    17    13   ar
    35     9     4   ar
    36    28    23    1
    37    35    30   ar
    38     3    12    1
    39    19    22    1
    40    17    18    1
@<TRIPOS>MOLECULE
*****
 36 40 0 0 0
SMALL
GASTEIGER

@<TRIPOS>ATOM
      1 O           0.7130   -0.4558   29.8526 O.2     1  UNL1       -0.2698
      2 C           0.7798    0.3310   28.5772 C.2     1  UNL1        0.2496
      3 N          -0.3406    0.5194   27.5978 N.am    1  UNL1       -0.2803
      4 C           0.1658    1.3723   26.4726 C.ar    1  UNL1        0.0519
      5 C          -0.4931    1.8842   25.2261 C.ar    1  UNL1        0.0293
      6 C           0.2814    2.7349   24.2636 C.ar    1  UNL1        0.0516
      7 C           1.7148    3.0736   24.5476 C.ar    1  UNL1        0.0148
      8 C           2.3737    2.5617   25.7940 C.ar    1  UNL1        0.0026
      9 C           1.5992    1.7110   26.7565 C.ar    1  UNL1        0.0180
     10 C           1.9786    1.0674   28.0572 C.2     1  UNL1        0.0563
     11 C           3.3213    1.1465   28.7214 C.2     1  UNL1        0.0215
     12 H          -1.2489    0.1483   27.6792 H       1  UNL1        0.1552
     13 C           3.5540    0.4474   30.0280 C.ar    1  UNL1        0.0568
     14 C           4.3647   -0.7986   30.2291 C.ar    1  UNL1        0.0185
     15 C           4.3286   -1.1445   31.6882 C.ar    1  UNL1        0.0199
     16 C           3.4957   -0.1124   32.3889 C.ar    1  UNL1        0.0724
     17 N           3.0170    0.8714   31.3628 N.ar    1  UNL1       -0.3520
     18 H           2.4499    1.6575   31.5352 H       1  UNL1        0.1660
     19 N          -0.3775    3.2469   23.0171 N.am    1  UNL1       -0.2832
     20 C          -0.2876    2.4594   21.7436 C.2     1  UNL1        0.2388
     21 O           0.4613    1.1599   21.7166 O.2     1  UNL1       -0.2739
     22 H          -0.8689    4.0998   23.0348 H       1  UNL1        0.1549
     23 C          -0.9464    2.9713   20.4971 C.3     1  UNL1        0.1793
     24 C          -0.1558    3.0978   19.2286 C.2     1  UNL1        0.0891
     25 N          -0.8147    3.6098   17.9821 N.2     1  UNL1       -0.2459
     26 C          -2.2641    3.9952   18.0040 C.2     1  UNL1        0.1014
     27 C          -3.0547    3.8687   19.2725 C.2     1  UNL1        0.0568
     28 C          -2.3959    3.3567   20.5190 C.2     1  UNL1        0.1886
     29 O          -3.1865    3.2302   21.7874 O.2     1  UNL1       -0.2904
     30 C          -4.5042    4.2541   19.2944 C.ar    1  UNL1        0.0318
     31 C          -5.5291    3.3541   18.6701 C.ar    1  UNL1        0.0024
     32 C          -6.9786    3.7395   18.6920 C.ar    1  UNL1        0.0001
     33 C          -7.4032    5.0248   19.3382 C.ar    1  UNL1        0.0023
     34 C          -6.3784    5.9248   19.9625 C.ar    1  UNL1        0.0296
     35 C          -4.9288    5.5394   19.9406 C.ar    1  UNL1        0.1402
     36 F          -3.9040    6.4394   20.5649 F       1  UNL1       -0.2042
@<TRIPOS>BOND
     1     1     2    2
     2     2     3   am
     3     3     4    1
     4     4     5   ar
     5     5     6   ar
     6     6    19    1
     7    19    20   am
     8    20    21    2
     9    20    23    1
    10    23    24    1
    11    24    25    2
    12    25    26    1
    13    26    27    2
    14    27    30    1
    15    30    31   ar
    16    31    32   ar
    17    32    33   ar
    18    33    34   ar
    19    34    35   ar
    20    35    36    1
    21    27    28    1
    22    28    29    2
    23     6     7   ar
    24     7     8   ar
    25     8     9   ar
    26     9    10    1
    27    10    11    2
    28    11    13    1
    29    13    14   ar
    30    14    15   ar
    31    15    16   ar
    32    16    17   ar
    33    10     2    1
    34    17    13   ar
    35     9     4   ar
    36    28    23    1
    37    35    30   ar
    38     3    12    1
    39    19    22    1
    40    17    18    1
