@<TRIPOS>MOLECULE
*****
 24 27 0 0 0
SMALL
GASTEIGER

@<TRIPOS>ATOM
      1 C          -9.3921  -17.6024   22.4353 C.3     1  UNL1        0.0991
      2 C          -5.3922  -19.6346   22.0875 C.ar    1  UNL1       -0.0000
      3 C          -6.6522  -20.4138   21.8530 C.ar    1  UNL1       -0.0003
      4 C          -7.9855  -19.7364   21.9689 C.ar    1  UNL1       -0.0029
      5 C          -8.0588  -18.2798   22.3194 C.ar    1  UNL1       -0.0061
      6 C          -6.7987  -17.5006   22.5539 C.ar    1  UNL1       -0.0029
      7 C          -5.4654  -18.1780   22.4379 C.ar    1  UNL1       -0.0003
      8 N         -10.1033  -17.1305   21.2019 N.3     1  UNL1       -0.2690
      9 C         -10.3121  -15.7014   20.7968 C.3     1  UNL1        0.0724
     10 C         -11.0685  -15.6925   19.5015 C.3     1  UNL1        0.0188
     11 C         -11.3274  -17.1161   19.1061 C.3     1  UNL1        0.0188
     12 C         -10.7309  -18.0049   20.1570 C.3     1  UNL1        0.0724
     13 C         -10.0141  -17.3969   23.7847 C.3     1  UNL1        0.0991
     14 C          -9.1975  -16.8311   24.9086 C.ar    1  UNL1       -0.0061
     15 C          -9.1856  -17.5136   26.2444 C.ar    1  UNL1       -0.0029
     16 C          -8.3691  -16.9478   27.3683 C.ar    1  UNL1       -0.0003
     17 C          -7.5645  -15.6997   27.1565 C.ar    1  UNL1       -0.0000
     18 C          -7.5765  -15.0173   25.8208 C.ar    1  UNL1       -0.0003
     19 C          -8.3930  -15.5830   24.6969 C.ar    1  UNL1       -0.0029
     20 N         -11.4526  -17.7571   24.0102 N.3     1  UNL1       -0.2690
     21 C         -12.6341  -17.1428   23.3197 C.3     1  UNL1        0.0724
     22 C         -13.8739  -17.8009   23.8485 C.3     1  UNL1        0.0188
     23 C         -13.4587  -18.8221   24.8658 C.3     1  UNL1        0.0188
     24 C         -11.9623  -18.7950   24.9657 C.3     1  UNL1        0.0724
@<TRIPOS>BOND
     1     2     3   ar
     2     3     4   ar
     3     4     5   ar
     4     5     1    1
     5     1    13    1
     6    13    14    1
     7    14    15   ar
     8    15    16   ar
     9    16    17   ar
    10    17    18   ar
    11    18    19   ar
    12    13    20    1
    13    20    21    1
    14    21    22    1
    15    22    23    1
    16    23    24    1
    17     1     8    1
    18     8     9    1
    19     9    10    1
    20    10    11    1
    21    11    12    1
    22     5     6   ar
    23     6     7   ar
    24     7     2   ar
    25    19    14   ar
    26    24    20    1
    27    12     8    1
@<TRIPOS>MOLECULE
*****
 24 27 0 0 0
SMALL
GASTEIGER

@<TRIPOS>ATOM
      1 C          -7.8589  -18.1781   22.4770 C.3     1  UNL1        0.0991
      2 C          -3.9550  -19.7647   20.8983 C.ar    1  UNL1       -0.0000
      3 C          -3.9885  -19.0082   22.1931 C.ar    1  UNL1       -0.0003
      4 C          -5.2898  -18.4793   22.7193 C.ar    1  UNL1       -0.0029
      5 C          -6.5576  -18.7070   21.9507 C.ar    1  UNL1       -0.0061
      6 C          -6.5241  -19.4635   20.6559 C.ar    1  UNL1       -0.0029
      7 C          -5.2228  -19.9923   20.1297 C.ar    1  UNL1       -0.0003
      8 N          -9.0170  -19.1082   22.6857 N.3     1  UNL1       -0.2690
      9 C         -10.0970  -19.4091   21.6891 C.3     1  UNL1        0.0724
     10 C         -11.0460  -20.3876   22.3151 C.3     1  UNL1        0.0188
     11 C         -10.5525  -20.6916   23.6987 C.3     1  UNL1        0.0188
     12 C          -9.2985  -19.9009   23.9277 C.3     1  UNL1        0.0724
     13 C          -8.0021  -16.7192   22.7945 C.3     1  UNL1        0.0991
     14 C          -7.5397  -16.1912   24.1202 C.ar    1  UNL1       -0.0061
     15 C          -8.4737  -16.1901   25.2941 C.ar    1  UNL1       -0.0029
     16 C          -8.0113  -15.6621   26.6198 C.ar    1  UNL1       -0.0003
     17 C          -6.6151  -15.1353   26.7716 C.ar    1  UNL1       -0.0000
     18 C          -5.6812  -15.1364   25.5978 C.ar    1  UNL1       -0.0003
     19 C          -6.1436  -15.6643   24.2721 C.ar    1  UNL1       -0.0029
     20 N          -8.6076  -15.7880   21.7863 N.3     1  UNL1       -0.2690
     21 C          -9.9718  -15.9158   21.1759 C.3     1  UNL1        0.0724
     22 C         -10.1626  -14.7724   20.2239 C.3     1  UNL1        0.0188
     23 C          -8.9162  -13.9381   20.2458 C.3     1  UNL1        0.0188
     24 C          -7.9552  -14.5658   21.2115 C.3     1  UNL1        0.0724
@<TRIPOS>BOND
     1     2     3   ar
     2     3     4   ar
     3     4     5   ar
     4     5     1    1
     5     1    13    1
     6    13    14    1
     7    14    15   ar
     8    15    16   ar
     9    16    17   ar
    10    17    18   ar
    11    18    19   ar
    12    13    20    1
    13    20    21    1
    14    21    22    1
    15    22    23    1
    16    23    24    1
    17     1     8    1
    18     8     9    1
    19     9    10    1
    20    10    11    1
    21    11    12    1
    22     5     6   ar
    23     6     7   ar
    24     7     2   ar
    25    19    14   ar
    26    24    20    1
    27    12     8    1
@<TRIPOS>MOLECULE
*****
 24 27 0 0 0
SMALL
GASTEIGER

@<TRIPOS>ATOM
      1 C          -7.9944  -16.7338   22.7833 C.3     1  UNL1        0.0991
      2 C          -6.5677  -15.1445   26.7443 C.ar    1  UNL1       -0.0000
      3 C          -7.9707  -15.6558   26.6027 C.ar    1  UNL1       -0.0003
      4 C          -8.4462  -16.1856   25.2824 C.ar    1  UNL1       -0.0029
      5 C          -7.5188  -16.2040   24.1036 C.ar    1  UNL1       -0.0061
      6 C          -6.1158  -15.6927   24.2452 C.ar    1  UNL1       -0.0029
      7 C          -5.6402  -15.1630   25.5655 C.ar    1  UNL1       -0.0003
      8 N          -8.6073  -15.8036   21.7788 N.3     1  UNL1       -0.2690
      9 C          -7.9620  -14.5776   21.2038 C.3     1  UNL1        0.0724
     10 C          -8.9289  -13.9523   20.2425 C.3     1  UNL1        0.0188
     11 C         -10.1719  -14.7919   20.2233 C.3     1  UNL1        0.0188
     12 C          -9.9730  -15.9361   21.1729 C.3     1  UNL1        0.0724
     13 C          -7.8571  -18.1937   22.4676 C.3     1  UNL1        0.0991
     14 C          -6.5608  -18.7267   21.9331 C.ar    1  UNL1       -0.0061
     15 C          -5.2875  -18.5040   22.6942 C.ar    1  UNL1       -0.0029
     16 C          -3.9913  -19.0371   22.1598 C.ar    1  UNL1       -0.0003
     17 C          -3.9684  -19.7929   20.8642 C.ar    1  UNL1       -0.0000
     18 C          -5.2416  -20.0156   20.1032 C.ar    1  UNL1       -0.0003
     19 C          -6.5379  -19.4825   20.6377 C.ar    1  UNL1       -0.0029
     20 N          -9.0160  -19.1206   22.6862 N.3     1  UNL1       -0.2690
     21 C          -9.3165  -19.8742   23.9479 C.3     1  UNL1        0.0724
     22 C         -10.5641  -20.6759   23.7230 C.3     1  UNL1        0.0188
     23 C         -11.0348  -20.4179   22.3223 C.3     1  UNL1        0.0188
     24 C         -10.0780  -19.4566   21.6815 C.3     1  UNL1        0.0724
@<TRIPOS>BOND
     1     2     3   ar
     2     3     4   ar
     3     4     5   ar
     4     5     1    1
     5     1    13    1
     6    13    14    1
     7    14    15   ar
     8    15    16   ar
     9    16    17   ar
    10    17    18   ar
    11    18    19   ar
    12    13    20    1
    13    20    21    1
    14    21    22    1
    15    22    23    1
    16    23    24    1
    17     1     8    1
    18     8     9    1
    19     9    10    1
    20    10    11    1
    21    11    12    1
    22     5     6   ar
    23     6     7   ar
    24     7     2   ar
    25    19    14   ar
    26    24    20    1
    27    12     8    1
@<TRIPOS>MOLECULE
*****
 24 27 0 0 0
SMALL
GASTEIGER

@<TRIPOS>ATOM
      1 C          -8.1623  -18.0082   22.1323 C.3     1  UNL1        0.0991
      2 C          -3.8665  -17.6810   23.4319 C.ar    1  UNL1       -0.0000
      3 C          -4.8129  -16.5434   23.6770 C.ar    1  UNL1       -0.0003
      4 C          -6.2448  -16.6525   23.2438 C.ar    1  UNL1       -0.0029
      5 C          -6.7303  -17.8992   22.5655 C.ar    1  UNL1       -0.0061
      6 C          -5.7839  -19.0368   22.3205 C.ar    1  UNL1       -0.0029
      7 C          -4.3520  -18.9277   22.7537 C.ar    1  UNL1       -0.0003
      8 N          -8.5155  -18.7844   20.8984 N.3     1  UNL1       -0.2690
      9 C          -9.8536  -19.3877   20.5891 C.3     1  UNL1        0.0724
     10 C          -9.7578  -20.0698   19.2566 C.3     1  UNL1        0.0188
     11 C          -8.3604  -19.8882   18.7423 C.3     1  UNL1        0.0188
     12 C          -7.5926  -19.0938   19.7570 C.3     1  UNL1        0.0724
     13 C          -9.2410  -17.3410   22.9330 C.3     1  UNL1        0.0991
     14 C          -8.9898  -16.9655   24.3634 C.ar    1  UNL1       -0.0061
     15 C          -8.4923  -15.5914   24.7018 C.ar    1  UNL1       -0.0029
     16 C          -8.2412  -15.2158   26.1321 C.ar    1  UNL1       -0.0003
     17 C          -8.4876  -16.2143   27.2241 C.ar    1  UNL1       -0.0000
     18 C          -8.9850  -17.5883   26.8857 C.ar    1  UNL1       -0.0003
     19 C          -9.2362  -17.9639   25.4553 C.ar    1  UNL1       -0.0029
     20 N         -10.5709  -17.0494   22.3034 N.3     1  UNL1       -0.2690
     21 C         -10.8196  -16.1035   21.1662 C.3     1  UNL1        0.0724
     22 C         -12.2880  -16.1220   20.8605 C.3     1  UNL1        0.0188
     23 C         -12.9469  -17.0794   21.8089 C.3     1  UNL1        0.0188
     24 C         -11.8856  -17.6525   22.7006 C.3     1  UNL1        0.0724
@<TRIPOS>BOND
     1     2     3   ar
     2     3     4   ar
     3     4     5   ar
     4     5     1    1
     5     1    13    1
     6    13    14    1
     7    14    15   ar
     8    15    16   ar
     9    16    17   ar
    10    17    18   ar
    11    18    19   ar
    12    13    20    1
    13    20    21    1
    14    21    22    1
    15    22    23    1
    16    23    24    1
    17     1     8    1
    18     8     9    1
    19     9    10    1
    20    10    11    1
    21    11    12    1
    22     5     6   ar
    23     6     7   ar
    24     7     2   ar
    25    19    14   ar
    26    24    20    1
    27    12     8    1
@<TRIPOS>MOLECULE
*****
 24 27 0 0 0
SMALL
GASTEIGER

@<TRIPOS>ATOM
      1 C          -9.1254  -17.0251   23.9627 C.3     1  UNL1        0.0991
      2 C         -13.4475  -17.4818   22.7963 C.ar    1  UNL1       -0.0000
      3 C         -12.7736  -18.5467   23.6097 C.ar    1  UNL1       -0.0003
      4 C         -11.3329  -18.3945   23.9985 C.ar    1  UNL1       -0.0029
      5 C         -10.5661  -17.1773   23.5739 C.ar    1  UNL1       -0.0061
      6 C         -11.2399  -16.1123   22.7605 C.ar    1  UNL1       -0.0029
      7 C         -12.6807  -16.2646   22.3717 C.ar    1  UNL1       -0.0003
      8 N          -8.7655  -16.5900   25.3523 N.3     1  UNL1       -0.2690
      9 C          -8.7198  -17.4685   26.5673 C.3     1  UNL1        0.0724
     10 C          -8.3142  -16.6214   27.7369 C.3     1  UNL1        0.0188
     11 C          -8.1091  -15.2193   27.2448 C.3     1  UNL1        0.0188
     12 C          -8.3880  -15.1999   25.7710 C.3     1  UNL1        0.0724
     13 C          -8.0445  -17.3080   22.9618 C.3     1  UNL1        0.0991
     14 C          -8.3524  -18.1096   21.7319 C.ar    1  UNL1       -0.0061
     15 C          -7.3321  -19.0624   21.1828 C.ar    1  UNL1       -0.0029
     16 C          -7.6399  -19.8639   19.9529 C.ar    1  UNL1       -0.0003
     17 C          -8.9680  -19.7127   19.2721 C.ar    1  UNL1       -0.0000
     18 C          -9.9882  -18.7600   19.8212 C.ar    1  UNL1       -0.0003
     19 C          -9.6803  -17.9584   21.0511 C.ar    1  UNL1       -0.0029
     20 N          -6.6558  -16.7893   23.1909 N.3     1  UNL1       -0.2690
     21 C          -5.4071  -17.6168   23.2682 C.3     1  UNL1        0.0724
     22 C          -4.2515  -16.6910   23.5079 C.3     1  UNL1        0.0188
     23 C          -4.7860  -15.2912   23.5788 C.3     1  UNL1        0.0188
     24 C          -6.2719  -15.3520   23.3829 C.3     1  UNL1        0.0724
@<TRIPOS>BOND
     1     2     3   ar
     2     3     4   ar
     3     4     5   ar
     4     5     1    1
     5     1    13    1
     6    13    14    1
     7    14    15   ar
     8    15    16   ar
     9    16    17   ar
    10    17    18   ar
    11    18    19   ar
    12    13    20    1
    13    20    21    1
    14    21    22    1
    15    22    23    1
    16    23    24    1
    17     1     8    1
    18     8     9    1
    19     9    10    1
    20    10    11    1
    21    11    12    1
    22     5     6   ar
    23     6     7   ar
    24     7     2   ar
    25    19    14   ar
    26    24    20    1
    27    12     8    1
@<TRIPOS>MOLECULE
*****
 24 27 0 0 0
SMALL
GASTEIGER

@<TRIPOS>ATOM
      1 C          -8.0487  -17.3035   22.9621 C.3     1  UNL1        0.0991
      2 C          -8.9696  -19.7020   19.2676 C.ar    1  UNL1       -0.0000
      3 C          -9.9907  -18.7514   19.8186 C.ar    1  UNL1       -0.0003
      4 C          -9.6838  -17.9519   21.0501 C.ar    1  UNL1       -0.0029
      5 C          -8.3556  -18.1030   21.7306 C.ar    1  UNL1       -0.0061
      6 C          -7.3345  -19.0535   21.1797 C.ar    1  UNL1       -0.0029
      7 C          -7.6414  -19.8530   19.9482 C.ar    1  UNL1       -0.0003
      8 N          -6.6596  -16.7871   23.1942 N.3     1  UNL1       -0.2690
      9 C          -5.4096  -17.6143   23.2516 C.3     1  UNL1        0.0724
     10 C          -4.2541  -16.6914   23.5025 C.3     1  UNL1        0.0188
     11 C          -4.7899  -15.2937   23.6002 C.3     1  UNL1        0.0188
     12 C          -6.2767  -15.3529   23.4097 C.3     1  UNL1        0.0724
     13 C          -9.1307  -17.0204   23.9616 C.3     1  UNL1        0.0991
     14 C         -10.5710  -17.1742   23.5715 C.ar    1  UNL1       -0.0061
     15 C         -11.2456  -16.1094   22.7583 C.ar    1  UNL1       -0.0029
     16 C         -12.6858  -16.2632   22.3682 C.ar    1  UNL1       -0.0003
     17 C         -13.4514  -17.4818   22.7913 C.ar    1  UNL1       -0.0000
     18 C         -12.7768  -18.5465   23.6045 C.ar    1  UNL1       -0.0003
     19 C         -11.3365  -18.3927   23.9946 C.ar    1  UNL1       -0.0029
     20 N          -8.7726  -16.5834   25.3512 N.3     1  UNL1       -0.2690
     21 C          -8.4334  -15.1854   25.7759 C.3     1  UNL1        0.0724
     22 C          -8.1420  -15.2057   27.2472 C.3     1  UNL1        0.0188
     23 C          -8.3012  -16.6164   27.7318 C.3     1  UNL1        0.0188
     24 C          -8.6909  -17.4678   26.5600 C.3     1  UNL1        0.0724
@<TRIPOS>BOND
     1     2     3   ar
     2     3     4   ar
     3     4     5   ar
     4     5     1    1
     5     1    13    1
     6    13    14    1
     7    14    15   ar
     8    15    16   ar
     9    16    17   ar
    10    17    18   ar
    11    18    19   ar
    12    13    20    1
    13    20    21    1
    14    21    22    1
    15    22    23    1
    16    23    24    1
    17     1     8    1
    18     8     9    1
    19     9    10    1
    20    10    11    1
    21    11    12    1
    22     5     6   ar
    23     6     7   ar
    24     7     2   ar
    25    19    14   ar
    26    24    20    1
    27    12     8    1
@<TRIPOS>MOLECULE
*****
 24 27 0 0 0
SMALL
GASTEIGER

@<TRIPOS>ATOM
      1 C          -9.2299  -17.3091   22.9155 C.3     1  UNL1        0.0991
      2 C          -8.5176  -16.2391   27.2280 C.ar    1  UNL1       -0.0000
      3 C          -9.0161  -17.6070   26.8672 C.ar    1  UNL1       -0.0003
      4 C          -9.2535  -17.9637   25.4297 C.ar    1  UNL1       -0.0029
      5 C          -8.9924  -16.9525   24.3530 C.ar    1  UNL1       -0.0061
      6 C          -8.4940  -15.5845   24.7139 C.ar    1  UNL1       -0.0029
      7 C          -8.2565  -15.2279   26.1514 C.ar    1  UNL1       -0.0003
      8 N         -10.5437  -16.9837   22.2692 N.3     1  UNL1       -0.2690
      9 C         -11.8867  -17.5009   22.6925 C.3     1  UNL1        0.0724
     10 C         -12.9183  -16.9209   21.7710 C.3     1  UNL1        0.0188
     11 C         -12.2131  -16.0451   20.7781 C.3     1  UNL1        0.0188
     12 C         -10.7454  -16.0840   21.0861 C.3     1  UNL1        0.0724
     13 C          -8.1534  -17.9912   22.1244 C.3     1  UNL1        0.0991
     14 C          -6.7222  -17.8893   22.5618 C.ar    1  UNL1       -0.0061
     15 C          -6.2334  -16.6465   23.2449 C.ar    1  UNL1       -0.0029
     16 C          -4.8023  -16.5446   23.6824 C.ar    1  UNL1       -0.0003
     17 C          -3.8599  -17.6855   23.4367 C.ar    1  UNL1       -0.0000
     18 C          -4.3487  -18.9282   22.7536 C.ar    1  UNL1       -0.0003
     19 C          -5.7799  -19.0301   22.3162 C.ar    1  UNL1       -0.0029
     20 N          -8.5081  -18.7752   20.8957 N.3     1  UNL1       -0.2690
     21 C          -7.5867  -19.0915   19.7551 C.3     1  UNL1        0.0724
     22 C          -8.3557  -19.8923   18.7464 C.3     1  UNL1        0.0188
     23 C          -9.7523  -20.0711   19.2637 C.3     1  UNL1        0.0188
     24 C          -9.8465  -19.3807   20.5920 C.3     1  UNL1        0.0724
@<TRIPOS>BOND
     1     2     3   ar
     2     3     4   ar
     3     4     5   ar
     4     5     1    1
     5     1    13    1
     6    13    14    1
     7    14    15   ar
     8    15    16   ar
     9    16    17   ar
    10    17    18   ar
    11    18    19   ar
    12    13    20    1
    13    20    21    1
    14    21    22    1
    15    22    23    1
    16    23    24    1
    17     1     8    1
    18     8     9    1
    19     9    10    1
    20    10    11    1
    21    11    12    1
    22     5     6   ar
    23     6     7   ar
    24     7     2   ar
    25    19    14   ar
    26    24    20    1
    27    12     8    1
@<TRIPOS>MOLECULE
*****
 24 27 0 0 0
SMALL
GASTEIGER

@<TRIPOS>ATOM
      1 C          -8.0808  -17.8271   22.3872 C.3     1  UNL1        0.0991
      2 C          -9.1804  -20.3047   18.7951 C.ar    1  UNL1       -0.0000
      3 C         -10.1881  -20.0694   19.8809 C.ar    1  UNL1       -0.0003
      4 C          -9.8216  -19.2436   21.0783 C.ar    1  UNL1       -0.0029
      5 C          -8.4474  -18.6529   21.1898 C.ar    1  UNL1       -0.0061
      6 C          -7.4396  -18.8882   20.1040 C.ar    1  UNL1       -0.0029
      7 C          -7.8061  -19.7140   18.9067 C.ar    1  UNL1       -0.0003
      8 N          -6.6394  -17.6448   22.7598 N.3     1  UNL1       -0.2690
      9 C          -6.0398  -16.4240   23.3925 C.3     1  UNL1        0.0724
     10 C          -4.5742  -16.6759   23.5889 C.3     1  UNL1        0.0188
     11 C          -4.2679  -18.0524   23.0775 C.3     1  UNL1        0.0188
     12 C          -5.5443  -18.6512   22.5651 C.3     1  UNL1        0.0724
     13 C          -9.1558  -17.1835   23.2119 C.3     1  UNL1        0.0991
     14 C          -8.8832  -16.8080   24.6383 C.ar    1  UNL1       -0.0061
     15 C          -9.1463  -17.7948   25.7370 C.ar    1  UNL1       -0.0029
     16 C          -8.8736  -17.4193   27.1635 C.ar    1  UNL1       -0.0003
     17 C          -8.3379  -16.0570   27.4912 C.ar    1  UNL1       -0.0000
     18 C          -8.0748  -15.0704   26.3925 C.ar    1  UNL1       -0.0003
     19 C          -8.3475  -15.4458   24.9660 C.ar    1  UNL1       -0.0029
     20 N         -10.5035  -16.9154   22.6102 N.3     1  UNL1       -0.2690
     21 C         -11.8108  -17.4705   23.0928 C.3     1  UNL1        0.0724
     22 C         -12.8956  -16.9433   22.2012 C.3     1  UNL1        0.0188
     23 C         -12.2589  -16.0623   21.1674 C.3     1  UNL1        0.0188
     24 C         -10.7805  -16.0451   21.4203 C.3     1  UNL1        0.0724
@<TRIPOS>BOND
     1     2     3   ar
     2     3     4   ar
     3     4     5   ar
     4     5     1    1
     5     1    13    1
     6    13    14    1
     7    14    15   ar
     8    15    16   ar
     9    16    17   ar
    10    17    18   ar
    11    18    19   ar
    12    13    20    1
    13    20    21    1
    14    21    22    1
    15    22    23    1
    16    23    24    1
    17     1     8    1
    18     8     9    1
    19     9    10    1
    20    10    11    1
    21    11    12    1
    22     5     6   ar
    23     6     7   ar
    24     7     2   ar
    25    19    14   ar
    26    24    20    1
    27    12     8    1
@<TRIPOS>MOLECULE
*****
 24 27 0 0 0
SMALL
GASTEIGER

@<TRIPOS>ATOM
      1 C          -7.5708  -18.0210   22.3832 C.3     1  UNL1        0.0991
      2 C          -5.2674  -15.1324   24.9523 C.ar    1  UNL1       -0.0000
      3 C          -6.7664  -15.1507   25.0031 C.ar    1  UNL1       -0.0003
      4 C          -7.5342  -16.1136   24.1467 C.ar    1  UNL1       -0.0029
      5 C          -6.8030  -17.0582   23.2396 C.ar    1  UNL1       -0.0061
      6 C          -5.3040  -17.0399   23.1887 C.ar    1  UNL1       -0.0029
      7 C          -4.5362  -16.0770   24.0451 C.ar    1  UNL1       -0.0003
      8 N          -6.8388  -19.0031   21.5174 N.3     1  UNL1       -0.2690
      9 C          -6.4453  -20.3979   21.9047 C.3     1  UNL1        0.0724
     10 C          -5.7350  -21.0198   20.7390 C.3     1  UNL1        0.0188
     11 C          -5.6896  -20.0094   19.6312 C.3     1  UNL1        0.0188
     12 C          -6.3718  -18.7630   20.1123 C.3     1  UNL1        0.0724
     13 C          -9.0706  -18.0018   22.3926 C.3     1  UNL1        0.0991
     14 C          -9.8174  -17.2271   21.3475 C.ar    1  UNL1       -0.0061
     15 C         -10.7720  -17.9324   20.4302 C.ar    1  UNL1       -0.0029
     16 C         -11.5187  -17.1576   19.3852 C.ar    1  UNL1       -0.0003
     17 C         -11.3108  -15.6776   19.2574 C.ar    1  UNL1       -0.0000
     18 C         -10.3562  -14.9723   20.1746 C.ar    1  UNL1       -0.0003
     19 C          -9.6095  -15.7471   21.2197 C.ar    1  UNL1       -0.0029
     20 N          -9.8238  -18.7574   23.4471 N.3     1  UNL1       -0.2690
     21 C          -9.4388  -20.0878   24.0231 C.3     1  UNL1        0.0724
     22 C         -10.4713  -20.4678   25.0427 C.3     1  UNL1        0.0188
     23 C         -11.4945  -19.3722   25.0969 C.3     1  UNL1        0.0188
     24 C         -11.0943  -18.3151   24.1108 C.3     1  UNL1        0.0724
@<TRIPOS>BOND
     1     2     3   ar
     2     3     4   ar
     3     4     5   ar
     4     5     1    1
     5     1    13    1
     6    13    14    1
     7    14    15   ar
     8    15    16   ar
     9    16    17   ar
    10    17    18   ar
    11    18    19   ar
    12    13    20    1
    13    20    21    1
    14    21    22    1
    15    22    23    1
    16    23    24    1
    17     1     8    1
    18     8     9    1
    19     9    10    1
    20    10    11    1
    21    11    12    1
    22     5     6   ar
    23     6     7   ar
    24     7     2   ar
    25    19    14   ar
    26    24    20    1
    27    12     8    1
