@<TRIPOS>MOLECULE
*****
 34 37 0 0 0
SMALL
GASTEIGER

@<TRIPOS>ATOM
      1 C           4.6066   -2.5004   18.8976 C.2     1  UNL1        0.2297
      2 O           5.4129   -3.3443   17.9555 O.2     1  UNL1       -0.2745
      3 N           4.8563   -2.5776   20.3746 N.am    1  UNL1       -0.2515
      4 C           4.0500   -1.7337   21.3167 C.2     1  UNL1        0.0695
      5 C           4.2997   -1.8109   22.7938 C.2     1  UNL1        0.0366
      6 C           5.3558   -2.7321   23.3287 C.ar    1  UNL1        0.0993
      7 N           5.6055   -2.8093   24.8058 N.ar    1  UNL1       -0.2265
      8 C           6.6615   -3.7305   25.3407 C.ar    1  UNL1        0.1634
      9 C           7.4679   -4.5745   24.3986 C.ar    1  UNL1        0.1600
     10 N           7.2182   -4.4972   22.9216 N.ar    1  UNL1       -0.2291
     11 C           6.1621   -3.5760   22.3866 C.ar    1  UNL1        0.0985
     12 C           5.9124   -3.4988   20.9096 C.3     1  UNL1        0.1454
     13 N           6.9112   -3.8077   26.8178 N.pl3   1  UNL1       -0.2882
     14 C           6.3589   -4.9536   27.6129 C.3     1  UNL1        0.1096
     15 C           6.6086   -5.0308   29.0899 C.3     1  UNL1        0.0941
     16 N           7.4106   -3.9622   29.7719 N.3     1  UNL1       -0.2659
     17 C           7.9628   -2.8165   28.9768 C.3     1  UNL1        0.0941
     18 C           7.7131   -2.7392   27.4998 C.3     1  UNL1        0.1096
     19 C           7.6603   -4.0395   31.2490 C.3     1  UNL1        0.1015
     20 C           7.0983   -2.9891   32.1605 C.ar    1  UNL1        0.0215
     21 C           5.6325   -2.9780   32.4783 C.ar    1  UNL1        0.0016
     22 C           5.0705   -1.9276   33.3899 C.ar    1  UNL1        0.0295
     23 C           5.9745   -0.8883   33.9837 C.ar    1  UNL1        0.1424
     24 F           5.4126    0.1621   34.8952 F       1  UNL1       -0.2041
     25 C           7.4404   -0.8994   33.6659 C.ar    1  UNL1        0.0590
     26 C           8.0023   -1.9497   32.7544 C.ar    1  UNL1        0.1397
     27 F           9.4683   -1.9608   32.4366 F       1  UNL1       -0.2044
     28 C           3.7531   -0.8907   17.0455 C.3     1  UNL1        0.0101
     29 C           3.5506   -1.5792   18.3626 C.3     1  UNL1        0.0856
     30 N           8.5239   -5.4956   24.9336 N.pl3   1  UNL1       -0.3175
     31 H           9.2949   -5.1287   25.4236 H       1  UNL1        0.1482
     32 C           8.4052   -6.9759   24.7220 C.3     1  UNL1        0.0706
     33 C           7.6936   -7.8236   25.7344 C.3     1  UNL1        0.0212
     34 C           8.9981   -7.6085   23.4979 C.3     1  UNL1        0.0212
@<TRIPOS>BOND
     1    28    29    1
     2    29     1    1
     3     1     2    2
     4     1     3   am
     5     3     4    1
     6     4     5    2
     7     5     6    1
     8     6     7   ar
     9     7     8   ar
    10     8    13    1
    11    13    14    1
    12    14    15    1
    13    15    16    1
    14    16    19    1
    15    19    20    1
    16    20    21   ar
    17    21    22   ar
    18    22    23   ar
    19    23    24    1
    20    23    25   ar
    21    25    26   ar
    22    26    27    1
    23    16    17    1
    24    17    18    1
    25     8     9   ar
    26     9    30    1
    27    30    32    1
    28    32    33    1
    29    32    34    1
    30     9    10   ar
    31    10    11   ar
    32    11    12    1
    33    12     3    1
    34    11     6   ar
    35    18    13    1
    36    26    20   ar
    37    30    31    1
@<TRIPOS>MOLECULE
*****
 34 37 0 0 0
SMALL
GASTEIGER

@<TRIPOS>ATOM
      1 C           7.4564   -6.0231   27.1845 C.2     1  UNL1        0.2297
      2 O           7.0636   -5.3647   25.8953 O.2     1  UNL1       -0.2745
      3 N           7.2527   -5.3053   28.4857 N.am    1  UNL1       -0.2515
      4 C           7.6456   -5.9637   29.7749 C.2     1  UNL1        0.0695
      5 C           7.4418   -5.2460   31.0762 C.2     1  UNL1        0.0366
      6 C           6.8453   -3.8698   31.0883 C.ar    1  UNL1        0.0993
      7 N           6.6415   -3.1520   32.3896 N.ar    1  UNL1       -0.2265
      8 C           6.0449   -1.7759   32.4016 C.ar    1  UNL1        0.1634
      9 C           5.6521   -1.1174   31.1124 C.ar    1  UNL1        0.1600
     10 N           5.8558   -1.8351   29.8111 N.ar    1  UNL1       -0.2291
     11 C           6.4524   -3.2114   29.7991 C.ar    1  UNL1        0.0985
     12 C           6.6561   -3.9292   28.4978 C.3     1  UNL1        0.1454
     13 N           5.8412   -1.0581   33.7029 N.pl3   1  UNL1       -0.2882
     14 C           4.5330   -1.1756   34.4274 C.3     1  UNL1        0.1096
     15 C           4.3293   -0.4578   35.7287 C.3     1  UNL1        0.0941
     16 N           5.4338    0.3774   36.3054 N.3     1  UNL1       -0.2659
     17 C           6.7419    0.4948   35.5810 C.3     1  UNL1        0.0941
     18 C           6.9456   -0.2229   34.2797 C.3     1  UNL1        0.1096
     19 C           5.2300    1.0952   37.6067 C.3     1  UNL1        0.1015
     20 C           3.8509    1.5098   38.0267 C.ar    1  UNL1        0.0215
     21 C           3.0097    0.5853   38.8559 C.ar    1  UNL1        0.0016
     22 C           1.6306    0.9999   39.2758 C.ar    1  UNL1        0.0295
     23 C           1.0928    2.3390   38.8665 C.ar    1  UNL1        0.1424
     24 F          -0.2862    2.7536   39.2864 F       1  UNL1       -0.2041
     25 C           1.9341    3.2635   38.0372 C.ar    1  UNL1        0.0590
     26 C           3.3131    2.8489   37.6173 C.ar    1  UNL1        0.1397
     27 F           4.1544    3.7734   36.7880 F       1  UNL1       -0.2044
     28 C           8.4316   -8.0412   25.8706 C.3     1  UNL1        0.0101
     29 C           8.0530   -7.3993   27.1724 C.3     1  UNL1        0.0856
     30 N           5.0555    0.2588   31.1244 N.pl3   1  UNL1       -0.3175
     31 H           5.6407    1.0494   31.0833 H       1  UNL1        0.1482
     32 C           3.5672    0.4304   31.1992 C.3     1  UNL1        0.0706
     33 C           2.6625   -0.5816   30.5611 C.3     1  UNL1        0.0212
     34 C           2.9836    1.6142   31.9122 C.3     1  UNL1        0.0212
@<TRIPOS>BOND
     1    28    29    1
     2    29     1    1
     3     1     2    2
     4     1     3   am
     5     3     4    1
     6     4     5    2
     7     5     6    1
     8     6     7   ar
     9     7     8   ar
    10     8    13    1
    11    13    14    1
    12    14    15    1
    13    15    16    1
    14    16    19    1
    15    19    20    1
    16    20    21   ar
    17    21    22   ar
    18    22    23   ar
    19    23    24    1
    20    23    25   ar
    21    25    26   ar
    22    26    27    1
    23    16    17    1
    24    17    18    1
    25     8     9   ar
    26     9    30    1
    27    30    32    1
    28    32    33    1
    29    32    34    1
    30     9    10   ar
    31    10    11   ar
    32    11    12    1
    33    12     3    1
    34    11     6   ar
    35    18    13    1
    36    26    20   ar
    37    30    31    1
@<TRIPOS>MOLECULE
*****
 34 37 0 0 0
SMALL
GASTEIGER

@<TRIPOS>ATOM
      1 C          -6.6568    5.1638   24.3029 C.2     1  UNL1        0.2297
      2 O          -6.3147    5.6002   25.6966 O.2     1  UNL1       -0.2745
      3 N          -5.5976    4.5721   23.4209 N.am    1  UNL1       -0.2515
      4 C          -5.9397    4.1357   22.0272 C.2     1  UNL1        0.0695
      5 C          -4.8805    3.5440   21.1452 C.2     1  UNL1        0.0366
      6 C          -3.4791    3.3887   21.6569 C.ar    1  UNL1        0.0993
      7 N          -2.4198    2.7970   20.7749 N.ar    1  UNL1       -0.2265
      8 C          -1.0184    2.6417   21.2866 C.ar    1  UNL1        0.1634
      9 C          -0.6762    3.0782   22.6804 C.ar    1  UNL1        0.1600
     10 N          -1.7354    3.6698   23.5624 N.ar    1  UNL1       -0.2291
     11 C          -3.1369    3.8251   23.0506 C.ar    1  UNL1        0.0985
     12 C          -4.1962    4.4168   23.9326 C.3     1  UNL1        0.1454
     13 N           0.0408    2.0500   20.4047 N.pl3   1  UNL1       -0.2882
     14 C           0.8779    2.9418   19.5361 C.3     1  UNL1        0.1096
     15 C           1.9371    2.3501   18.6542 C.3     1  UNL1        0.0941
     16 N           2.1593    0.8667   18.6407 N.3     1  UNL1       -0.2659
     17 C           1.3223   -0.0250   19.5091 C.3     1  UNL1        0.0941
     18 C           0.2631    0.5667   20.3911 C.3     1  UNL1        0.1096
     19 C           3.2186    0.2750   17.7587 C.3     1  UNL1        0.1015
     20 C           4.2650   -0.6262   18.3444 C.ar    1  UNL1        0.0215
     21 C           4.4643   -2.0048   17.7880 C.ar    1  UNL1        0.0016
     22 C           5.5107   -2.9060   18.3737 C.ar    1  UNL1        0.0295
     23 C           6.3577   -2.4285   19.5159 C.ar    1  UNL1        0.1424
     24 F           7.4040   -3.3296   20.1016 F       1  UNL1       -0.2041
     25 C           6.1583   -1.0498   20.0723 C.ar    1  UNL1        0.0590
     26 C           5.1120   -0.1487   19.4866 C.ar    1  UNL1        0.1397
     27 F           4.9126    1.2300   20.0430 F       1  UNL1       -0.2044
     28 C          -9.1355    5.8340   24.6991 C.3     1  UNL1        0.0101
     29 C          -8.0582    5.3190   23.7912 C.3     1  UNL1        0.0856
     30 N           0.7252    2.9229   23.1921 N.pl3   1  UNL1       -0.3175
     31 H           1.3770    3.6506   23.0707 H       1  UNL1        0.1482
     32 C           1.1336    1.6587   23.8888 C.3     1  UNL1        0.0706
     33 C           2.3301    0.8914   23.4099 C.3     1  UNL1        0.0212
     34 C           0.3453    1.1620   25.0643 C.3     1  UNL1        0.0212
@<TRIPOS>BOND
     1    28    29    1
     2    29     1    1
     3     1     2    2
     4     1     3   am
     5     3     4    1
     6     4     5    2
     7     5     6    1
     8     6     7   ar
     9     7     8   ar
    10     8    13    1
    11    13    14    1
    12    14    15    1
    13    15    16    1
    14    16    19    1
    15    19    20    1
    16    20    21   ar
    17    21    22   ar
    18    22    23   ar
    19    23    24    1
    20    23    25   ar
    21    25    26   ar
    22    26    27    1
    23    16    17    1
    24    17    18    1
    25     8     9   ar
    26     9    30    1
    27    30    32    1
    28    32    33    1
    29    32    34    1
    30     9    10   ar
    31    10    11   ar
    32    11    12    1
    33    12     3    1
    34    11     6   ar
    35    18    13    1
    36    26    20   ar
    37    30    31    1
@<TRIPOS>MOLECULE
*****
 34 37 0 0 0
SMALL
GASTEIGER

@<TRIPOS>ATOM
      1 C           5.3969   -0.3727   34.6828 C.2     1  UNL1        0.2297
      2 O           4.2239   -0.7681   35.5301 O.2     1  UNL1       -0.2745
      3 N           5.2310   -0.2111   33.2008 N.am    1  UNL1       -0.2515
      4 C           6.4040    0.1843   32.3536 C.2     1  UNL1        0.0695
      5 C           6.2381    0.3460   30.8716 C.2     1  UNL1        0.0366
      6 C           4.8993    0.1123   30.2368 C.ar    1  UNL1        0.0993
      7 N           4.7335    0.2739   28.7548 N.ar    1  UNL1       -0.2265
      8 C           3.3947    0.0402   28.1200 C.ar    1  UNL1        0.1634
      9 C           2.2217   -0.3552   28.9672 C.ar    1  UNL1        0.1600
     10 N           2.3875   -0.5169   30.4493 N.ar    1  UNL1       -0.2291
     11 C           3.7264   -0.2831   31.0840 C.ar    1  UNL1        0.0985
     12 C           3.8923   -0.4448   32.5660 C.3     1  UNL1        0.1454
     13 N           3.2289    0.2019   26.6380 N.pl3   1  UNL1       -0.2882
     14 C           2.7230    1.4978   26.0769 C.3     1  UNL1        0.1096
     15 C           2.5572    1.6595   24.5948 C.3     1  UNL1        0.0941
     16 N           2.8972    0.5252   23.6740 N.3     1  UNL1       -0.2659
     17 C           3.4030   -0.7706   24.2351 C.3     1  UNL1        0.0941
     18 C           3.5688   -0.9323   25.7171 C.3     1  UNL1        0.1096
     19 C           2.7313    0.6869   22.1920 C.3     1  UNL1        0.1015
     20 C           3.4107   -0.2655   21.2529 C.ar    1  UNL1        0.0215
     21 C           4.9082   -0.3030   21.1763 C.ar    1  UNL1        0.0016
     22 C           5.5875   -1.2554   20.2373 C.ar    1  UNL1        0.0295
     23 C           4.7692   -2.1701   19.3750 C.ar    1  UNL1        0.1424
     24 F           5.4485   -3.1224   18.4360 F       1  UNL1       -0.2041
     25 C           3.2716   -2.1325   19.4516 C.ar    1  UNL1        0.0590
     26 C           2.5924   -1.1802   20.3906 C.ar    1  UNL1        0.1397
     27 F           1.0947   -1.1426   20.4672 F       1  UNL1       -0.2044
     28 C           6.8702   -0.1539   36.8115 C.3     1  UNL1        0.0101
     29 C           6.7356   -0.1390   35.3176 C.3     1  UNL1        0.0856
     30 N           0.8829   -0.5890   28.3325 N.pl3   1  UNL1       -0.3175
     31 H           0.7553   -1.3471   27.7175 H       1  UNL1        0.1482
     32 C          -0.2616    0.3325   28.6346 C.3     1  UNL1        0.0706
     33 C          -0.0843    1.8162   28.5046 C.3     1  UNL1        0.0212
     34 C          -1.5833   -0.2300   29.0667 C.3     1  UNL1        0.0212
@<TRIPOS>BOND
     1    28    29    1
     2    29     1    1
     3     1     2    2
     4     1     3   am
     5     3     4    1
     6     4     5    2
     7     5     6    1
     8     6     7   ar
     9     7     8   ar
    10     8    13    1
    11    13    14    1
    12    14    15    1
    13    15    16    1
    14    16    19    1
    15    19    20    1
    16    20    21   ar
    17    21    22   ar
    18    22    23   ar
    19    23    24    1
    20    23    25   ar
    21    25    26   ar
    22    26    27    1
    23    16    17    1
    24    17    18    1
    25     8     9   ar
    26     9    30    1
    27    30    32    1
    28    32    33    1
    29    32    34    1
    30     9    10   ar
    31    10    11   ar
    32    11    12    1
    33    12     3    1
    34    11     6   ar
    35    18    13    1
    36    26    20   ar
    37    30    31    1
@<TRIPOS>MOLECULE
*****
 34 37 0 0 0
SMALL
GASTEIGER

@<TRIPOS>ATOM
      1 C           3.4947   -1.8062   19.7991 C.2     1  UNL1        0.2297
      2 O           2.6914   -0.8525   18.9655 O.2     1  UNL1       -0.2745
      3 N           3.5463   -1.6401   21.2890 N.am    1  UNL1       -0.2515
      4 C           4.3496   -2.5938   22.1227 C.2     1  UNL1        0.0695
      5 C           4.4011   -2.4277   23.6125 C.2     1  UNL1        0.0366
      6 C           3.6493   -1.3078   24.2688 C.ar    1  UNL1        0.0993
      7 N           3.7009   -1.1417   25.7586 N.ar    1  UNL1       -0.2265
      8 C           2.9491   -0.0218   26.4149 C.ar    1  UNL1        0.1634
      9 C           2.1457    0.9320   25.5812 C.ar    1  UNL1        0.1600
     10 N           2.0942    0.7659   24.0913 N.ar    1  UNL1       -0.2291
     11 C           2.8460   -0.3541   23.4351 C.ar    1  UNL1        0.0985
     12 C           2.7945   -0.5202   21.9452 C.3     1  UNL1        0.1454
     13 N           3.0006    0.1443   27.9047 N.pl3   1  UNL1       -0.2882
     14 C           2.0203   -0.5848   28.7751 C.3     1  UNL1        0.1096
     15 C           2.0718   -0.4187   30.2649 C.3     1  UNL1        0.0941
     16 N           3.1037    0.4766   30.8845 N.3     1  UNL1       -0.2659
     17 C           4.0840    1.2057   30.0142 C.3     1  UNL1        0.0941
     18 C           4.0325    1.0395   28.5243 C.3     1  UNL1        0.1096
     19 C           3.1553    0.6427   32.3744 C.3     1  UNL1        0.1015
     20 C           2.5264    1.8433   33.0174 C.ar    1  UNL1        0.0215
     21 C           1.5480    2.6801   32.2477 C.ar    1  UNL1        0.0016
     22 C           0.9191    3.8806   32.8907 C.ar    1  UNL1        0.0295
     23 C           1.2687    4.2443   34.3033 C.ar    1  UNL1        0.1424
     24 F           0.6399    5.4447   34.9463 F       1  UNL1       -0.2041
     25 C           2.2472    3.4074   35.0730 C.ar    1  UNL1        0.0590
     26 C           2.8760    2.2069   34.4300 C.ar    1  UNL1        0.1397
     27 F           3.8545    1.3701   35.1996 F       1  UNL1       -0.2044
     28 C           3.5965   -4.2672   18.9727 C.3     1  UNL1        0.0101
     29 C           4.2465   -2.9261   19.1429 C.3     1  UNL1        0.0856
     30 N           1.3940    2.0519   26.2374 N.pl3   1  UNL1       -0.3175
     31 H           1.8804    2.8340   26.5850 H       1  UNL1        0.1482
     32 C          -0.0990    1.9800   26.3641 C.3     1  UNL1        0.0706
     33 C          -0.9705    2.4286   25.2286 C.3     1  UNL1        0.0212
     34 C          -0.7204    1.4596   27.6262 C.3     1  UNL1        0.0212
@<TRIPOS>BOND
     1    28    29    1
     2    29     1    1
     3     1     2    2
     4     1     3   am
     5     3     4    1
     6     4     5    2
     7     5     6    1
     8     6     7   ar
     9     7     8   ar
    10     8    13    1
    11    13    14    1
    12    14    15    1
    13    15    16    1
    14    16    19    1
    15    19    20    1
    16    20    21   ar
    17    21    22   ar
    18    22    23   ar
    19    23    24    1
    20    23    25   ar
    21    25    26   ar
    22    26    27    1
    23    16    17    1
    24    17    18    1
    25     8     9   ar
    26     9    30    1
    27    30    32    1
    28    32    33    1
    29    32    34    1
    30     9    10   ar
    31    10    11   ar
    32    11    12    1
    33    12     3    1
    34    11     6   ar
    35    18    13    1
    36    26    20   ar
    37    30    31    1
@<TRIPOS>MOLECULE
*****
 34 37 0 0 0
SMALL
GASTEIGER

@<TRIPOS>ATOM
      1 C           2.0386    3.3483   35.8331 C.2     1  UNL1        0.2297
      2 O           2.4568    2.0893   36.5330 O.2     1  UNL1       -0.2745
      3 N           1.8256    3.3458   34.3483 N.am    1  UNL1       -0.2515
      4 C           1.4073    4.6048   33.6485 C.2     1  UNL1        0.0695
      5 C           1.1943    4.6023   32.1637 C.2     1  UNL1        0.0366
      6 C           1.3996    3.3407   31.3787 C.ar    1  UNL1        0.0993
      7 N           1.1866    3.3381   29.8939 N.ar    1  UNL1       -0.2265
      8 C           1.3918    2.0765   29.1090 C.ar    1  UNL1        0.1634
      9 C           1.8101    0.8174   29.8088 C.ar    1  UNL1        0.1600
     10 N           2.0231    0.8199   31.2936 N.ar    1  UNL1       -0.2291
     11 C           1.8178    2.0816   32.0786 C.ar    1  UNL1        0.0985
     12 C           2.0308    2.0842   33.5634 C.3     1  UNL1        0.1454
     13 N           1.1788    2.0739   27.6242 N.pl3   1  UNL1       -0.2882
     14 C          -0.0353    1.4129   27.0418 C.3     1  UNL1        0.1096
     15 C          -0.2483    1.4104   25.5570 C.3     1  UNL1        0.0941
     16 N           0.7528    2.0688   24.6546 N.3     1  UNL1       -0.2659
     17 C           1.9669    2.7298   25.2370 C.3     1  UNL1        0.0941
     18 C           2.1798    2.7323   26.7218 C.3     1  UNL1        0.1096
     19 C           0.5398    2.0663   23.1698 C.3     1  UNL1        0.1015
     20 C           1.1359    0.9767   22.3285 C.ar    1  UNL1        0.0215
     21 C           2.3096    0.1935   22.8371 C.ar    1  UNL1        0.0016
     22 C           2.9056   -0.8961   21.9958 C.ar    1  UNL1        0.0295
     23 C           2.3279   -1.2023   20.6459 C.ar    1  UNL1        0.1424
     24 F           2.9238   -2.2918   19.8046 F       1  UNL1       -0.2041
     25 C           1.1541   -0.4189   20.1372 C.ar    1  UNL1        0.0590
     26 C           0.5581    0.6705   20.9785 C.ar    1  UNL1        0.1397
     27 F          -0.6157    1.4539   20.4698 F       1  UNL1       -0.2044
     28 C           2.8829    5.0703   37.5858 C.3     1  UNL1        0.0101
     29 C           1.8333    4.6099   36.6181 C.3     1  UNL1        0.0856
     30 N           2.0153   -0.4442   29.0239 N.pl3   1  UNL1       -0.3175
     31 H           1.2797   -1.0921   28.9322 H       1  UNL1        0.1482
     32 C           3.3413   -0.7188   28.3786 C.3     1  UNL1        0.0706
     33 C           3.4451   -0.8042   26.8846 C.3     1  UNL1        0.0212
     34 C           4.5636   -0.9080   29.2273 C.3     1  UNL1        0.0212
@<TRIPOS>BOND
     1    28    29    1
     2    29     1    1
     3     1     2    2
     4     1     3   am
     5     3     4    1
     6     4     5    2
     7     5     6    1
     8     6     7   ar
     9     7     8   ar
    10     8    13    1
    11    13    14    1
    12    14    15    1
    13    15    16    1
    14    16    19    1
    15    19    20    1
    16    20    21   ar
    17    21    22   ar
    18    22    23   ar
    19    23    24    1
    20    23    25   ar
    21    25    26   ar
    22    26    27    1
    23    16    17    1
    24    17    18    1
    25     8     9   ar
    26     9    30    1
    27    30    32    1
    28    32    33    1
    29    32    34    1
    30     9    10   ar
    31    10    11   ar
    32    11    12    1
    33    12     3    1
    34    11     6   ar
    35    18    13    1
    36    26    20   ar
    37    30    31    1
@<TRIPOS>MOLECULE
*****
 34 37 0 0 0
SMALL
GASTEIGER

@<TRIPOS>ATOM
      1 C          -2.0404    3.4268   21.0198 C.2     1  UNL1        0.2297
      2 O          -2.7110    3.2375   19.6916 O.2     1  UNL1       -0.2745
      3 N          -0.8454    2.5955   21.3819 N.am    1  UNL1       -0.2515
      4 C          -0.1748    2.7848   22.7102 C.2     1  UNL1        0.0695
      5 C           1.0202    1.9535   23.0722 C.2     1  UNL1        0.0366
      6 C           1.5445    0.9330   22.1060 C.ar    1  UNL1        0.0993
      7 N           2.7394    0.1017   22.4681 N.ar    1  UNL1       -0.2265
      8 C           3.2637   -0.9189   21.5019 C.ar    1  UNL1        0.1634
      9 C           2.5930   -1.1082   20.1736 C.ar    1  UNL1        0.1600
     10 N           1.3981   -0.2769   19.8115 N.ar    1  UNL1       -0.2291
     11 C           0.8738    0.7437   20.7778 C.ar    1  UNL1        0.0985
     12 C          -0.3212    1.5750   20.4157 C.3     1  UNL1        0.1454
     13 N           4.4586   -1.7501   21.8640 N.pl3   1  UNL1       -0.2882
     14 C           4.2785   -3.1777   22.2879 C.3     1  UNL1        0.1096
     15 C           5.4735   -4.0090   22.6499 C.3     1  UNL1        0.0941
     16 N           6.8485   -3.4127   22.5881 N.3     1  UNL1       -0.2659
     17 C           7.0285   -1.9851   22.1643 C.3     1  UNL1        0.0941
     18 C           5.8336   -1.1539   21.8022 C.3     1  UNL1        0.1096
     19 C           8.0434   -4.2439   22.9502 C.3     1  UNL1        0.1015
     20 C           7.9381   -5.2774   24.0324 C.ar    1  UNL1        0.0215
     21 C           7.4759   -4.8828   25.4038 C.ar    1  UNL1        0.0016
     22 C           7.3706   -5.9162   26.4859 C.ar    1  UNL1        0.0295
     23 C           7.7275   -7.3441   26.1967 C.ar    1  UNL1        0.1424
     24 F           7.6221   -8.3775   27.2788 F       1  UNL1       -0.2041
     25 C           8.1897   -7.7387   24.8252 C.ar    1  UNL1        0.0590
     26 C           8.2950   -6.7053   23.7431 C.ar    1  UNL1        0.1397
     27 F           8.7572   -7.0998   22.3717 F       1  UNL1       -0.2044
     28 C          -3.8966    4.2419   22.6446 C.3     1  UNL1        0.0101
     29 C          -2.5646    4.4473   21.9860 C.3     1  UNL1        0.0856
     30 N           3.1173   -2.1287   19.2074 N.pl3   1  UNL1       -0.3175
     31 H           2.7632   -3.0472   19.2212 H       1  UNL1        0.1482
     32 C           4.1811   -1.7498   18.2200 C.3     1  UNL1        0.0706
     33 C           5.5318   -2.3987   18.2868 C.3     1  UNL1        0.0212
     34 C           3.8941   -0.7220   17.1658 C.3     1  UNL1        0.0212
@<TRIPOS>BOND
     1    28    29    1
     2    29     1    1
     3     1     2    2
     4     1     3   am
     5     3     4    1
     6     4     5    2
     7     5     6    1
     8     6     7   ar
     9     7     8   ar
    10     8    13    1
    11    13    14    1
    12    14    15    1
    13    15    16    1
    14    16    19    1
    15    19    20    1
    16    20    21   ar
    17    21    22   ar
    18    22    23   ar
    19    23    24    1
    20    23    25   ar
    21    25    26   ar
    22    26    27    1
    23    16    17    1
    24    17    18    1
    25     8     9   ar
    26     9    30    1
    27    30    32    1
    28    32    33    1
    29    32    34    1
    30     9    10   ar
    31    10    11   ar
    32    11    12    1
    33    12     3    1
    34    11     6   ar
    35    18    13    1
    36    26    20   ar
    37    30    31    1
@<TRIPOS>MOLECULE
*****
 34 37 0 0 0
SMALL
GASTEIGER

@<TRIPOS>ATOM
      1 C          -2.3018    3.9454   23.9821 C.2     1  UNL1        0.2297
      2 O          -2.5867    4.6551   22.6918 O.2     1  UNL1       -0.2745
      3 N          -1.1512    2.9874   24.0729 N.am    1  UNL1       -0.2515
      4 C          -0.8662    2.2777   25.3633 C.2     1  UNL1        0.0695
      5 C           0.2844    1.3197   25.4541 C.2     1  UNL1        0.0366
      6 C           1.1501    1.0714   24.2546 C.ar    1  UNL1        0.0993
      7 N           2.3007    0.1133   24.3455 N.ar    1  UNL1       -0.2265
      8 C           3.1664   -0.1349   23.1459 C.ar    1  UNL1        0.1634
      9 C           2.8815    0.5748   21.8555 C.ar    1  UNL1        0.1600
     10 N           1.7309    1.5328   21.7647 N.ar    1  UNL1       -0.2291
     11 C           0.8652    1.7811   22.9643 C.ar    1  UNL1        0.0985
     12 C          -0.2855    2.7391   22.8734 C.3     1  UNL1        0.1454
     13 N           4.3170   -1.0930   23.2368 N.pl3   1  UNL1       -0.2882
     14 C           5.6459   -0.6226   23.7498 C.3     1  UNL1        0.1096
     15 C           6.7965   -1.5807   23.8407 C.3     1  UNL1        0.0941
     16 N           6.6183   -3.0090   23.4185 N.3     1  UNL1       -0.2659
     17 C           5.2896   -3.4793   22.9055 C.3     1  UNL1        0.0941
     18 C           4.1389   -2.5212   22.8146 C.3     1  UNL1        0.1096
     19 C           7.7689   -3.9670   23.5093 C.3     1  UNL1        0.1015
     20 C           7.6657   -5.1825   24.3823 C.ar    1  UNL1        0.0215
     21 C           6.9977   -5.0891   25.7220 C.ar    1  UNL1        0.0016
     22 C           6.8945   -6.3046   26.5950 C.ar    1  UNL1        0.0295
     23 C           7.4593   -7.6135   26.1281 C.ar    1  UNL1        0.1424
     24 F           7.3561   -8.8289   27.0010 F       1  UNL1       -0.2041
     25 C           8.1274   -7.7068   24.7883 C.ar    1  UNL1        0.0590
     26 C           8.2305   -6.4913   23.9154 C.ar    1  UNL1        0.1397
     27 F           8.8986   -6.5847   22.5755 F       1  UNL1       -0.2044
     28 C          -4.5888    3.7144   25.1929 C.3     1  UNL1        0.0101
     29 C          -3.1675    4.1937   25.1816 C.3     1  UNL1        0.0856
     30 N           3.7472    0.3265   20.6560 N.pl3   1  UNL1       -0.3175
     31 H           4.6808    0.6389   20.6496 H       1  UNL1        0.1482
     32 C           3.1904   -0.3977   19.4662 C.3     1  UNL1        0.0706
     33 C           2.6810    0.3772   18.2873 C.3     1  UNL1        0.0212
     34 C           3.1432   -1.8970   19.4553 C.3     1  UNL1        0.0212
@<TRIPOS>BOND
     1    28    29    1
     2    29     1    1
     3     1     2    2
     4     1     3   am
     5     3     4    1
     6     4     5    2
     7     5     6    1
     8     6     7   ar
     9     7     8   ar
    10     8    13    1
    11    13    14    1
    12    14    15    1
    13    15    16    1
    14    16    19    1
    15    19    20    1
    16    20    21   ar
    17    21    22   ar
    18    22    23   ar
    19    23    24    1
    20    23    25   ar
    21    25    26   ar
    22    26    27    1
    23    16    17    1
    24    17    18    1
    25     8     9   ar
    26     9    30    1
    27    30    32    1
    28    32    33    1
    29    32    34    1
    30     9    10   ar
    31    10    11   ar
    32    11    12    1
    33    12     3    1
    34    11     6   ar
    35    18    13    1
    36    26    20   ar
    37    30    31    1
@<TRIPOS>MOLECULE
*****
 34 37 0 0 0
SMALL
GASTEIGER

@<TRIPOS>ATOM
      1 C           4.5898    0.7069   36.5319 C.2     1  UNL1        0.2297
      2 O           5.4505   -0.5214   36.5525 O.2     1  UNL1       -0.2745
      3 N           3.8460    1.0806   35.2841 N.am    1  UNL1       -0.2515
      4 C           2.9853    2.3089   35.2635 C.2     1  UNL1        0.0695
      5 C           2.2415    2.6827   34.0157 C.2     1  UNL1        0.0366
      6 C           2.3584    1.8282   32.7885 C.ar    1  UNL1        0.0993
      7 N           1.6146    2.2019   31.5407 N.ar    1  UNL1       -0.2265
      8 C           1.7315    1.3474   30.3134 C.ar    1  UNL1        0.1634
      9 C           2.5922    0.1191   30.3340 C.ar    1  UNL1        0.1600
     10 N           3.3361   -0.2547   31.5818 N.ar    1  UNL1       -0.2291
     11 C           3.2191    0.5999   32.8091 C.ar    1  UNL1        0.0985
     12 C           3.9629    0.2261   34.0569 C.3     1  UNL1        0.1454
     13 N           0.9877    1.7212   29.0656 N.pl3   1  UNL1       -0.2882
     14 C          -0.1397    0.8601   28.5781 C.3     1  UNL1        0.1096
     15 C          -0.8835    1.2338   27.3303 C.3     1  UNL1        0.0941
     16 N          -0.5000    2.4687   26.5700 N.3     1  UNL1       -0.2659
     17 C           0.6273    3.3298   27.0575 C.3     1  UNL1        0.0941
     18 C           1.3712    2.9560   28.3053 C.3     1  UNL1        0.1096
     19 C          -1.2438    2.8425   25.3222 C.3     1  UNL1        0.1015
     20 C          -2.6206    3.4302   25.4174 C.ar    1  UNL1        0.0215
     21 C          -3.1717    3.8373   26.7517 C.ar    1  UNL1        0.0016
     22 C          -4.5486    4.4250   26.8469 C.ar    1  UNL1        0.0295
     23 C          -5.3743    4.6055   25.6077 C.ar    1  UNL1        0.1424
     24 F          -6.7510    5.1932   25.7028 F       1  UNL1       -0.2041
     25 C          -4.8231    4.1984   24.2733 C.ar    1  UNL1        0.0590
     26 C          -3.4463    3.6108   24.1782 C.ar    1  UNL1        0.1397
     27 F          -2.8951    3.2036   22.8437 F       1  UNL1       -0.2044
     28 C           3.5239    1.1748   38.8546 C.3     1  UNL1        0.0101
     29 C           4.4729    1.5614   37.7591 C.3     1  UNL1        0.0856
     30 N           2.7092   -0.7354   29.1068 N.pl3   1  UNL1       -0.3175
     31 H           2.1039   -1.5016   28.9810 H       1  UNL1        0.1482
     32 C           3.7483   -0.4225   28.0711 C.3     1  UNL1        0.0706
     33 C           5.1953   -0.6991   28.3531 C.3     1  UNL1        0.0212
     34 C           3.3402    0.1671   26.7536 C.3     1  UNL1        0.0212
@<TRIPOS>BOND
     1    28    29    1
     2    29     1    1
     3     1     2    2
     4     1     3   am
     5     3     4    1
     6     4     5    2
     7     5     6    1
     8     6     7   ar
     9     7     8   ar
    10     8    13    1
    11    13    14    1
    12    14    15    1
    13    15    16    1
    14    16    19    1
    15    19    20    1
    16    20    21   ar
    17    21    22   ar
    18    22    23   ar
    19    23    24    1
    20    23    25   ar
    21    25    26   ar
    22    26    27    1
    23    16    17    1
    24    17    18    1
    25     8     9   ar
    26     9    30    1
    27    30    32    1
    28    32    33    1
    29    32    34    1
    30     9    10   ar
    31    10    11   ar
    32    11    12    1
    33    12     3    1
    34    11     6   ar
    35    18    13    1
    36    26    20   ar
    37    30    31    1
