@<TRIPOS>MOLECULE
*****
 36 40 0 0 0
SMALL
GASTEIGER

@<TRIPOS>ATOM
      1 N         -15.4602   -1.0369   19.5051 N.3     1  UNL1       -0.2680
      2 C         -14.5456   -0.1870   18.6738 C.3     1  UNL1        0.0897
      3 C         -14.7084    1.3040   18.6658 C.3     1  UNL1        0.0897
      4 N         -15.7859    1.9453   19.4892 N.3     1  UNL1       -0.2680
      5 C         -16.7006    1.0954   20.3205 C.3     1  UNL1        0.0897
      6 C         -16.5378   -0.3957   20.3285 C.3     1  UNL1        0.0897
      7 C         -15.2974   -2.5280   19.5131 C.3     1  UNL1        0.1064
      8 C         -14.2517   -3.1636   20.3806 C.3     1  UNL1        0.1483
      9 O         -14.1953   -2.8426   21.8447 O.3     1  UNL1       -0.3786
     10 H         -13.4668   -3.3339   22.2556 H       1  UNL1        0.2108
     11 C         -11.7175   -2.1290   19.1527 C.3     1  UNL1        0.0306
     12 C         -11.9953   -3.6030   19.1699 C.ar    1  UNL1       -0.0238
     13 C         -13.2624   -4.1204   19.7838 C.ar    1  UNL1        0.0015
     14 C         -13.5402   -5.5942   19.8011 C.ar    1  UNL1       -0.0020
     15 C         -12.5509   -6.5509   19.2044 C.ar    1  UNL1        0.0060
     16 C         -11.2838   -6.0337   18.5904 C.ar    1  UNL1        0.0748
     17 C         -11.0060   -4.5597   18.5732 C.ar    1  UNL1        0.0233
     18 C          -9.6812   -4.3455   17.9032 C.3     1  UNL1        0.2352
     19 O          -9.1402   -5.6871   17.5063 O.3     1  UNL1       -0.4404
     20 C         -10.1307   -6.7304   17.9310 C.2     1  UNL1        0.3413
     21 O          -9.9923   -8.2106   17.7314 O.2     1  UNL1       -0.2449
     22 C         -15.9487    3.4364   19.4811 C.3     1  UNL1        0.1064
     23 C         -16.5568    4.1309   20.6635 C.3     1  UNL1        0.1483
     24 O         -18.0471    4.2630   20.7708 O.3     1  UNL1       -0.3786
     25 H         -18.4648    3.8491   19.9994 H       1  UNL1        0.2108
     26 C         -15.6746    4.6933   21.7384 C.ar    1  UNL1        0.0015
     27 C         -14.6411    5.7253   21.3969 C.ar    1  UNL1       -0.0020
     28 C         -13.7589    6.2876   22.4719 C.ar    1  UNL1        0.0060
     29 C         -13.9104    5.8178   23.8884 C.ar    1  UNL1        0.0748
     30 C         -14.9439    4.7858   24.2299 C.ar    1  UNL1        0.0233
     31 C         -15.8261    4.2235   23.1549 C.ar    1  UNL1       -0.0238
     32 C         -16.8596    3.1915   23.4964 C.3     1  UNL1        0.0306
     33 C         -14.8620    4.5177   25.7034 C.3     1  UNL1        0.2352
     34 O         -13.7778    5.3841   26.2726 O.3     1  UNL1       -0.4404
     35 C         -13.1896    6.1876   25.1509 C.2     1  UNL1        0.3413
     36 O         -12.0763    7.1857   25.2706 O.2     1  UNL1       -0.2449
@<TRIPOS>BOND
     1    11    12    1
     2    12    13   ar
     3    13     8    1
     4     8     9    1
     5     8     7    1
     6     7     1    1
     7     1     2    1
     8     2     3    1
     9     3     4    1
    10     4    22    1
    11    22    23    1
    12    23    24    1
    13    23    26    1
    14    26    27   ar
    15    27    28   ar
    16    28    29   ar
    17    29    30   ar
    18    30    31   ar
    19    31    32    1
    20    30    33    1
    21    33    34    1
    22    34    35    1
    23    35    36    2
    24     4     5    1
    25     5     6    1
    26    13    14   ar
    27    14    15   ar
    28    15    16   ar
    29    16    17   ar
    30    17    18    1
    31    18    19    1
    32    19    20    1
    33    20    21    2
    34    17    12   ar
    35     6     1    1
    36    20    16    1
    37    31    26   ar
    38    35    29    1
    39     9    10    1
    40    24    25    1
@<TRIPOS>MOLECULE
*****
 36 40 0 0 0
SMALL
GASTEIGER

@<TRIPOS>ATOM
      1 N           3.3829    0.8934   24.4972 N.3     1  UNL1       -0.2680
      2 C           4.3154    1.6275   23.5800 C.3     1  UNL1        0.0897
      3 C           3.7904    2.2574   22.3240 C.3     1  UNL1        0.0897
      4 N           2.3329    2.1531   21.9852 N.3     1  UNL1       -0.2680
      5 C           1.4004    1.4189   22.9024 C.3     1  UNL1        0.0897
      6 C           1.9253    0.7890   24.1584 C.3     1  UNL1        0.0897
      7 C           3.9078    0.2635   25.7532 C.3     1  UNL1        0.1064
      8 C           3.9952   -1.2299   25.8634 C.3     1  UNL1        0.1483
      9 O           3.2544   -1.9462   26.9535 O.3     1  UNL1       -0.3786
     10 H           3.4170   -2.8998   26.8823 H       1  UNL1        0.2108
     11 C           6.7595   -2.1234   26.6121 C.3     1  UNL1        0.0306
     12 C           6.2056   -2.4539   25.2579 C.ar    1  UNL1       -0.0238
     13 C           4.8234   -2.0071   24.8835 C.ar    1  UNL1        0.0015
     14 C           4.2695   -2.3376   23.5293 C.ar    1  UNL1       -0.0020
     15 C           5.0976   -3.1147   22.5494 C.ar    1  UNL1        0.0060
     16 C           6.4797   -3.5615   22.9238 C.ar    1  UNL1        0.0748
     17 C           7.0337   -3.2310   24.2780 C.ar    1  UNL1        0.0233
     18 C           8.4186   -3.8009   24.3640 C.3     1  UNL1        0.2352
     19 O           8.7204   -4.4836   23.0629 O.3     1  UNL1       -0.4404
     20 C           7.5222   -4.3356   22.1728 C.2     1  UNL1        0.3413
     21 O           7.3897   -4.8682   20.7768 O.2     1  UNL1       -0.2449
     22 C           1.8080    2.7830   20.7291 C.3     1  UNL1        0.1064
     23 C           1.6346    1.9549   19.4905 C.3     1  UNL1        0.1483
     24 O           0.4168    2.1337   18.6332 O.3     1  UNL1       -0.3786
     25 H          -0.1523    2.8181   19.0186 H       1  UNL1        0.2108
     26 C           2.6791    0.9481   19.1092 C.ar    1  UNL1        0.0015
     27 C           3.9137    1.3877   18.3796 C.ar    1  UNL1       -0.0020
     28 C           4.9581    0.3808   17.9983 C.ar    1  UNL1        0.0060
     29 C           4.7679   -1.0657   18.3467 C.ar    1  UNL1        0.0748
     30 C           3.5332   -1.5054   19.0763 C.ar    1  UNL1        0.0233
     31 C           2.4888   -0.4985   19.4575 C.ar    1  UNL1       -0.0238
     32 C           1.2542   -0.9381   20.1871 C.3     1  UNL1        0.0306
     33 C           3.6207   -2.9884   19.2836 C.3     1  UNL1        0.2352
     34 O           4.9095   -3.4653   18.6821 O.3     1  UNL1       -0.4404
     35 C           5.6185   -2.2771   18.1031 C.2     1  UNL1        0.3413
     36 O           6.9451   -2.2966   17.4033 O.2     1  UNL1       -0.2449
@<TRIPOS>BOND
     1    11    12    1
     2    12    13   ar
     3    13     8    1
     4     8     9    1
     5     8     7    1
     6     7     1    1
     7     1     2    1
     8     2     3    1
     9     3     4    1
    10     4    22    1
    11    22    23    1
    12    23    24    1
    13    23    26    1
    14    26    27   ar
    15    27    28   ar
    16    28    29   ar
    17    29    30   ar
    18    30    31   ar
    19    31    32    1
    20    30    33    1
    21    33    34    1
    22    34    35    1
    23    35    36    2
    24     4     5    1
    25     5     6    1
    26    13    14   ar
    27    14    15   ar
    28    15    16   ar
    29    16    17   ar
    30    17    18    1
    31    18    19    1
    32    19    20    1
    33    20    21    2
    34    17    12   ar
    35     6     1    1
    36    20    16    1
    37    31    26   ar
    38    35    29    1
    39     9    10    1
    40    24    25    1
@<TRIPOS>MOLECULE
*****
 36 40 0 0 0
SMALL
GASTEIGER

@<TRIPOS>ATOM
      1 N          -1.8968    3.7131   20.4595 N.3     1  UNL1       -0.2680
      2 C          -1.0875    2.6577   21.1533 C.3     1  UNL1        0.0897
      3 C          -0.0330    1.9041   20.3984 C.3     1  UNL1        0.0897
      4 N           0.2122    2.2058   18.9496 N.3     1  UNL1       -0.2680
      5 C          -0.5970    3.2611   18.2558 C.3     1  UNL1        0.0897
      6 C          -1.6516    4.0148   19.0107 C.3     1  UNL1        0.0897
      7 C          -2.9514    4.4667   21.2144 C.3     1  UNL1        0.1064
      8 C          -4.1115    3.7318   21.8177 C.3     1  UNL1        0.1483
      9 O          -4.5544    2.4222   21.2355 O.3     1  UNL1       -0.3786
     10 H          -5.3107    2.0835   21.7397 H       1  UNL1        0.2108
     11 C          -2.9244    3.4709   24.5605 C.3     1  UNL1        0.0306
     12 C          -4.2352    4.1760   24.3746 C.ar    1  UNL1       -0.0238
     13 C          -4.8288    4.3065   23.0032 C.ar    1  UNL1        0.0015
     14 C          -6.1396    5.0115   22.8173 C.ar    1  UNL1       -0.0020
     15 C          -6.8569    5.5862   24.0027 C.ar    1  UNL1        0.0060
     16 C          -6.2634    5.4557   25.3741 C.ar    1  UNL1        0.0748
     17 C          -4.9525    4.7506   25.5601 C.ar    1  UNL1        0.0233
     18 C          -4.6154    4.7766   27.0214 C.3     1  UNL1        0.2352
     19 O          -5.7179    5.4978   27.7387 O.3     1  UNL1       -0.4404
     20 C          -6.7364    5.9175   26.7206 C.2     1  UNL1        0.3413
     21 O          -8.0051    6.6673   26.9999 O.2     1  UNL1       -0.2449
     22 C           1.2668    1.4521   18.1947 C.3     1  UNL1        0.1064
     23 C           2.6589    1.3558   18.7451 C.3     1  UNL1        0.1483
     24 O           3.5817    2.5353   18.6614 O.3     1  UNL1       -0.3786
     25 H           3.1255    3.2726   18.2264 H       1  UNL1        0.2108
     26 C           3.1280    0.0800   19.3792 C.ar    1  UNL1        0.0015
     27 C           2.9541   -0.1330   20.8538 C.ar    1  UNL1       -0.0020
     28 C           3.4233   -1.4088   21.4878 C.ar    1  UNL1        0.0060
     29 C           4.0664   -2.4718   20.6472 C.ar    1  UNL1        0.0748
     30 C           4.2402   -2.2589   19.1726 C.ar    1  UNL1        0.0233
     31 C           3.7711   -0.9830   18.5386 C.ar    1  UNL1       -0.0238
     32 C           3.9449   -0.7701   17.0640 C.3     1  UNL1        0.0306
     33 C           4.9047   -3.4774   18.6035 C.3     1  UNL1        0.2352
     34 O           5.1414   -4.4434   19.7265 O.3     1  UNL1       -0.4404
     35 C           4.6234   -3.8219   20.9895 C.2     1  UNL1        0.3413
     36 O           4.6564   -4.4417   22.3551 O.2     1  UNL1       -0.2449
@<TRIPOS>BOND
     1    11    12    1
     2    12    13   ar
     3    13     8    1
     4     8     9    1
     5     8     7    1
     6     7     1    1
     7     1     2    1
     8     2     3    1
     9     3     4    1
    10     4    22    1
    11    22    23    1
    12    23    24    1
    13    23    26    1
    14    26    27   ar
    15    27    28   ar
    16    28    29   ar
    17    29    30   ar
    18    30    31   ar
    19    31    32    1
    20    30    33    1
    21    33    34    1
    22    34    35    1
    23    35    36    2
    24     4     5    1
    25     5     6    1
    26    13    14   ar
    27    14    15   ar
    28    15    16   ar
    29    16    17   ar
    30    17    18    1
    31    18    19    1
    32    19    20    1
    33    20    21    2
    34    17    12   ar
    35     6     1    1
    36    20    16    1
    37    31    26   ar
    38    35    29    1
    39     9    10    1
    40    24    25    1
@<TRIPOS>MOLECULE
*****
 36 40 0 0 0
SMALL
GASTEIGER

@<TRIPOS>ATOM
      1 N           2.9962    0.9575   18.8940 N.3     1  UNL1       -0.2680
      2 C           1.5095    0.8371   18.7357 C.3     1  UNL1        0.0897
      3 C           0.6058    1.1260   19.8976 C.3     1  UNL1        0.0897
      4 N           1.1888    1.5352   21.2176 N.3     1  UNL1       -0.2680
      5 C           2.6756    1.6556   21.3759 C.3     1  UNL1        0.0897
      6 C           3.5793    1.3668   20.2141 C.3     1  UNL1        0.0897
      7 C           3.9000    0.6687   17.7322 C.3     1  UNL1        0.1064
      8 C           4.2496   -0.7489   17.3883 C.3     1  UNL1        0.1483
      9 O           3.6567   -1.3933   16.1704 O.3     1  UNL1       -0.3786
     10 H           3.9837   -2.3033   16.0944 H       1  UNL1        0.2108
     11 C           3.1890   -2.3335   19.7044 C.3     1  UNL1        0.0306
     12 C           4.6617   -2.3145   19.4204 C.ar    1  UNL1       -0.0238
     13 C           5.1921   -1.5222   18.2623 C.ar    1  UNL1        0.0015
     14 C           6.6647   -1.5031   17.9783 C.ar    1  UNL1       -0.0020
     15 C           7.6072   -2.2763   18.8523 C.ar    1  UNL1        0.0060
     16 C           7.0770   -3.0686   20.0103 C.ar    1  UNL1        0.0748
     17 C           5.6042   -3.0877   20.2944 C.ar    1  UNL1        0.0233
     18 C           5.3754   -3.9532   21.4979 C.3     1  UNL1        0.2352
     19 O           6.7068   -4.4690   21.9577 O.3     1  UNL1       -0.4404
     20 C           7.7584   -3.9223   21.0383 C.2     1  UNL1        0.3413
     21 O           9.2326   -4.1835   21.1307 O.2     1  UNL1       -0.2449
     22 C           0.2851    1.8241   22.3794 C.3     1  UNL1        0.1064
     23 C           0.7995    2.6013   23.5548 C.3     1  UNL1        0.1483
     24 O           1.1310    4.0565   23.4045 O.3     1  UNL1       -0.3786
     25 H           0.9571    4.3351   22.4918 H       1  UNL1        0.2108
     26 C           0.9823    1.9234   24.8802 C.ar    1  UNL1        0.0015
     27 C           2.2867    1.2604   25.2101 C.ar    1  UNL1       -0.0020
     28 C           2.4694    0.5825   26.5356 C.ar    1  UNL1        0.0060
     29 C           1.3476    0.5675   27.5313 C.ar    1  UNL1        0.0748
     30 C           0.0432    1.2304   27.2014 C.ar    1  UNL1        0.0233
     31 C          -0.1395    1.9084   25.8759 C.ar    1  UNL1       -0.0238
     32 C          -1.4440    2.5713   25.5461 C.3     1  UNL1        0.0306
     33 C          -0.8755    1.0548   28.3740 C.3     1  UNL1        0.2352
     34 O          -0.1388    0.2832   29.4286 O.3     1  UNL1       -0.4404
     35 C           1.2352   -0.0179   28.9078 C.2     1  UNL1        0.3413
     36 O           2.3083   -0.7720   29.6356 O.2     1  UNL1       -0.2449
@<TRIPOS>BOND
     1    11    12    1
     2    12    13   ar
     3    13     8    1
     4     8     9    1
     5     8     7    1
     6     7     1    1
     7     1     2    1
     8     2     3    1
     9     3     4    1
    10     4    22    1
    11    22    23    1
    12    23    24    1
    13    23    26    1
    14    26    27   ar
    15    27    28   ar
    16    28    29   ar
    17    29    30   ar
    18    30    31   ar
    19    31    32    1
    20    30    33    1
    21    33    34    1
    22    34    35    1
    23    35    36    2
    24     4     5    1
    25     5     6    1
    26    13    14   ar
    27    14    15   ar
    28    15    16   ar
    29    16    17   ar
    30    17    18    1
    31    18    19    1
    32    19    20    1
    33    20    21    2
    34    17    12   ar
    35     6     1    1
    36    20    16    1
    37    31    26   ar
    38    35    29    1
    39     9    10    1
    40    24    25    1
@<TRIPOS>MOLECULE
*****
 36 40 0 0 0
SMALL
GASTEIGER

@<TRIPOS>ATOM
      1 N           6.8519   -3.7042   29.7699 N.3     1  UNL1       -0.2680
      2 C           6.1408   -2.3882   29.6586 C.3     1  UNL1        0.0897
      3 C           5.5211   -1.7655   30.8744 C.3     1  UNL1        0.0897
      4 N           5.6123   -2.4588   32.2014 N.3     1  UNL1       -0.2680
      5 C           6.3234   -3.7749   32.3127 C.3     1  UNL1        0.0897
      6 C           6.9432   -4.3976   31.0969 C.3     1  UNL1        0.0897
      7 C           7.4717   -4.3270   28.5542 C.3     1  UNL1        0.1064
      8 C           6.6045   -4.9965   27.5296 C.3     1  UNL1        0.1483
      9 O           5.4086   -5.7914   27.9633 O.3     1  UNL1       -0.3786
     10 H           4.9613   -6.1543   27.1828 H       1  UNL1        0.2108
     11 C           8.0373   -7.2224   26.1181 C.3     1  UNL1        0.0306
     12 C           7.6495   -5.9841   25.3656 C.ar    1  UNL1       -0.0238
     13 C           6.9331   -4.8710   26.0714 C.ar    1  UNL1        0.0015
     14 C           6.5454   -3.6327   25.3190 C.ar    1  UNL1       -0.0020
     15 C           6.8740   -3.5073   23.8609 C.ar    1  UNL1        0.0060
     16 C           7.5903   -4.6202   23.1551 C.ar    1  UNL1        0.0748
     17 C           7.9781   -5.8586   23.9074 C.ar    1  UNL1        0.0233
     18 C           8.6717   -6.7836   22.9517 C.3     1  UNL1        0.2352
     19 O           8.7126   -6.1168   21.6087 O.3     1  UNL1       -0.4404
     20 C           8.0443   -4.7798   21.7343 C.2     1  UNL1        0.3413
     21 O           7.8620   -3.7783   20.6327 O.2     1  UNL1       -0.2449
     22 C           4.9925   -1.8361   33.4171 C.3     1  UNL1        0.1064
     23 C           5.5827   -0.5883   34.0043 C.3     1  UNL1        0.1483
     24 O           6.9356   -0.1174   33.5596 O.3     1  UNL1       -0.3786
     25 H           7.2880   -0.7285   32.8938 H       1  UNL1        0.2108
     26 C           4.8199    0.1885   35.0361 C.ar    1  UNL1        0.0015
     27 C           4.9803   -0.1384   36.4912 C.ar    1  UNL1       -0.0020
     28 C           4.2175    0.6385   37.5230 C.ar    1  UNL1        0.0060
     29 C           3.2942    1.7423   37.0996 C.ar    1  UNL1        0.0748
     30 C           3.1338    2.0692   35.6445 C.ar    1  UNL1        0.0233
     31 C           3.8967    1.2924   34.6127 C.ar    1  UNL1       -0.0238
     32 C           3.7362    1.6193   33.1576 C.3     1  UNL1        0.0306
     33 C           2.1584    3.2029   35.5290 C.3     1  UNL1        0.2352
     34 O           1.7160    3.5766   36.9127 O.3     1  UNL1       -0.4404
     35 C           2.4180    2.6739   37.8834 C.2     1  UNL1        0.3413
     36 O           2.2697    2.6985   39.3759 O.2     1  UNL1       -0.2449
@<TRIPOS>BOND
     1    11    12    1
     2    12    13   ar
     3    13     8    1
     4     8     9    1
     5     8     7    1
     6     7     1    1
     7     1     2    1
     8     2     3    1
     9     3     4    1
    10     4    22    1
    11    22    23    1
    12    23    24    1
    13    23    26    1
    14    26    27   ar
    15    27    28   ar
    16    28    29   ar
    17    29    30   ar
    18    30    31   ar
    19    31    32    1
    20    30    33    1
    21    33    34    1
    22    34    35    1
    23    35    36    2
    24     4     5    1
    25     5     6    1
    26    13    14   ar
    27    14    15   ar
    28    15    16   ar
    29    16    17   ar
    30    17    18    1
    31    18    19    1
    32    19    20    1
    33    20    21    2
    34    17    12   ar
    35     6     1    1
    36    20    16    1
    37    31    26   ar
    38    35    29    1
    39     9    10    1
    40    24    25    1
@<TRIPOS>MOLECULE
*****
 36 40 0 0 0
SMALL
GASTEIGER

@<TRIPOS>ATOM
      1 N         -16.0163   -1.1787   19.7213 N.3     1  UNL1       -0.2680
      2 C         -17.3902   -0.8182   20.2036 C.3     1  UNL1        0.0897
      3 C         -17.8570    0.6059   20.1416 C.3     1  UNL1        0.0897
      4 N         -16.9501    1.6695   19.5974 N.3     1  UNL1       -0.2680
      5 C         -15.5762    1.3090   19.1152 C.3     1  UNL1        0.0897
      6 C         -15.1093   -0.1151   19.1771 C.3     1  UNL1        0.0897
      7 C         -15.5493   -2.6028   19.7833 C.3     1  UNL1        0.1064
      8 C         -14.2517   -2.9380   20.4568 C.3     1  UNL1        0.1483
      9 O         -14.1621   -2.9387   21.9542 O.3     1  UNL1       -0.3786
     10 H         -13.2607   -3.1746   22.2240 H       1  UNL1        0.2108
     11 C         -13.5263   -5.8051   19.9531 C.3     1  UNL1        0.0306
     12 C         -12.6808   -4.7060   19.3812 C.ar    1  UNL1       -0.0238
     13 C         -13.0434   -3.2723   19.6330 C.ar    1  UNL1        0.0015
     14 C         -12.1980   -2.1733   19.0612 C.ar    1  UNL1       -0.0020
     15 C         -10.9899   -2.5076   18.2374 C.ar    1  UNL1        0.0060
     16 C         -10.6272   -3.9411   17.9855 C.ar    1  UNL1        0.0748
     17 C         -11.4727   -5.0403   18.5574 C.ar    1  UNL1        0.0233
     18 C         -10.8715   -6.3507   18.1435 C.3     1  UNL1        0.2352
     19 O          -9.6544   -6.0614   17.3158 O.3     1  UNL1       -0.4404
     20 C          -9.5034   -4.5722   17.2182 C.2     1  UNL1        0.3413
     21 O          -8.4191   -3.8423   16.4824 O.2     1  UNL1       -0.2449
     22 C         -17.4170    3.0936   19.5355 C.3     1  UNL1        0.1064
     23 C         -17.6422    3.8650   20.8021 C.3     1  UNL1        0.1483
     24 O         -19.0391    4.1401   21.2744 O.3     1  UNL1       -0.3786
     25 H         -19.6733    3.7532   20.6507 H       1  UNL1        0.2108
     26 C         -16.4705    4.3611   21.5964 C.ar    1  UNL1        0.0015
     27 C         -15.4294    5.2193   20.9410 C.ar    1  UNL1       -0.0020
     28 C         -14.2577    5.7154   21.7354 C.ar    1  UNL1        0.0060
     29 C         -14.1272    5.3534   23.1852 C.ar    1  UNL1        0.0748
     30 C         -15.1683    4.4952   23.8406 C.ar    1  UNL1        0.0233
     31 C         -16.3400    3.9991   23.0462 C.ar    1  UNL1       -0.0238
     32 C         -17.3811    3.1409   23.7016 C.3     1  UNL1        0.0306
     33 C         -14.7750    4.3037   25.2753 C.3     1  UNL1        0.2352
     34 O         -13.4907    5.0435   25.5066 O.3     1  UNL1       -0.4404
     35 C         -13.0904    5.6923   24.2149 C.2     1  UNL1        0.3413
     36 O         -11.8679    6.5324   23.9919 O.2     1  UNL1       -0.2449
@<TRIPOS>BOND
     1    11    12    1
     2    12    13   ar
     3    13     8    1
     4     8     9    1
     5     8     7    1
     6     7     1    1
     7     1     2    1
     8     2     3    1
     9     3     4    1
    10     4    22    1
    11    22    23    1
    12    23    24    1
    13    23    26    1
    14    26    27   ar
    15    27    28   ar
    16    28    29   ar
    17    29    30   ar
    18    30    31   ar
    19    31    32    1
    20    30    33    1
    21    33    34    1
    22    34    35    1
    23    35    36    2
    24     4     5    1
    25     5     6    1
    26    13    14   ar
    27    14    15   ar
    28    15    16   ar
    29    16    17   ar
    30    17    18    1
    31    18    19    1
    32    19    20    1
    33    20    21    2
    34    17    12   ar
    35     6     1    1
    36    20    16    1
    37    31    26   ar
    38    35    29    1
    39     9    10    1
    40    24    25    1
@<TRIPOS>MOLECULE
*****
 36 40 0 0 0
SMALL
GASTEIGER

@<TRIPOS>ATOM
      1 N           3.0457    0.9523   18.9293 N.3     1  UNL1       -0.2680
      2 C           3.6823    1.2617   20.2519 C.3     1  UNL1        0.0897
      3 C           2.8243    1.5445   21.4492 C.3     1  UNL1        0.0897
      4 N           1.3298    1.5179   21.3242 N.3     1  UNL1       -0.2680
      5 C           0.6932    1.2086   20.0016 C.3     1  UNL1        0.0897
      6 C           1.5511    0.9257   18.8042 C.3     1  UNL1        0.0897
      7 C           3.9037    0.6694   17.7319 C.3     1  UNL1        0.1064
      8 C           4.2661   -0.7444   17.3860 C.3     1  UNL1        0.1483
      9 O           3.6700   -1.3963   16.1737 O.3     1  UNL1       -0.3786
     10 H           4.0065   -2.3028   16.0956 H       1  UNL1        0.2108
     11 C           3.2389   -2.3726   19.6870 C.3     1  UNL1        0.0306
     12 C           4.7109   -2.3206   19.4031 C.ar    1  UNL1       -0.0238
     13 C           5.2245   -1.5065   18.2526 C.ar    1  UNL1        0.0015
     14 C           6.6964   -1.4544   17.9686 C.ar    1  UNL1       -0.0020
     15 C           7.6548   -2.2164   18.8351 C.ar    1  UNL1        0.0060
     16 C           7.1413   -3.0304   19.9856 C.ar    1  UNL1        0.0748
     17 C           5.6693   -3.0825   20.2696 C.ar    1  UNL1        0.0233
     18 C           5.4587   -3.9640   21.4648 C.3     1  UNL1        0.2352
     19 O           6.8005   -4.4567   21.9195 O.3     1  UNL1       -0.4404
     20 C           7.8404   -3.8797   21.0053 C.2     1  UNL1        0.3413
     21 O           9.3197   -4.1114   21.0952 O.2     1  UNL1       -0.2449
     22 C           0.4718    1.8008   22.5216 C.3     1  UNL1        0.1064
     23 C          -0.0766    3.1794   22.7427 C.3     1  UNL1        0.1483
     24 O           0.8575    4.3453   22.8773 O.3     1  UNL1       -0.3786
     25 H           1.7736    4.0366   22.7980 H       1  UNL1        0.2108
     26 C          -1.5589    3.3919   22.8292 C.ar    1  UNL1        0.0015
     27 C          -2.3786    3.4781   21.5760 C.ar    1  UNL1       -0.0020
     28 C          -3.8610    3.6907   21.6626 C.ar    1  UNL1        0.0060
     29 C          -4.5235    3.8170   23.0024 C.ar    1  UNL1        0.0748
     30 C          -3.7037    3.7308   24.2556 C.ar    1  UNL1        0.0233
     31 C          -2.2214    3.5183   24.1690 C.ar    1  UNL1       -0.0238
     32 C          -1.4017    3.4321   25.4222 C.3     1  UNL1        0.0306
     33 C          -4.6282    3.8903   25.4260 C.3     1  UNL1        0.2352
     34 O          -6.0194    4.0750   24.8962 O.3     1  UNL1       -0.4404
     35 C          -5.9547    4.0297   23.3983 C.2     1  UNL1        0.3413
     36 O          -7.1170    4.1722   22.4609 O.2     1  UNL1       -0.2449
@<TRIPOS>BOND
     1    11    12    1
     2    12    13   ar
     3    13     8    1
     4     8     9    1
     5     8     7    1
     6     7     1    1
     7     1     2    1
     8     2     3    1
     9     3     4    1
    10     4    22    1
    11    22    23    1
    12    23    24    1
    13    23    26    1
    14    26    27   ar
    15    27    28   ar
    16    28    29   ar
    17    29    30   ar
    18    30    31   ar
    19    31    32    1
    20    30    33    1
    21    33    34    1
    22    34    35    1
    23    35    36    2
    24     4     5    1
    25     5     6    1
    26    13    14   ar
    27    14    15   ar
    28    15    16   ar
    29    16    17   ar
    30    17    18    1
    31    18    19    1
    32    19    20    1
    33    20    21    2
    34    17    12   ar
    35     6     1    1
    36    20    16    1
    37    31    26   ar
    38    35    29    1
    39     9    10    1
    40    24    25    1
@<TRIPOS>MOLECULE
*****
 36 40 0 0 0
SMALL
GASTEIGER

@<TRIPOS>ATOM
      1 N          -1.7895    3.6665   21.9260 N.3     1  UNL1       -0.2680
      2 C          -1.4350    3.3366   20.5063 C.3     1  UNL1        0.0897
      3 C          -0.2024    2.5356   20.2079 C.3     1  UNL1        0.0897
      4 N           0.6757    2.0646   21.3290 N.3     1  UNL1       -0.2680
      5 C           0.3212    2.3946   22.7487 C.3     1  UNL1        0.0897
      6 C          -0.9114    3.1955   23.0473 C.3     1  UNL1        0.0897
      7 C          -3.0221    4.4675   22.2245 C.3     1  UNL1        0.1064
      8 C          -4.2254    3.7983   22.8198 C.3     1  UNL1        0.1483
      9 O          -4.7735    2.5486   22.1970 O.3     1  UNL1       -0.3786
     10 H          -5.5458    2.2481   22.7011 H       1  UNL1        0.2108
     11 C          -6.9157    5.1070   22.5961 C.3     1  UNL1        0.0306
     12 C          -6.2258    5.0333   23.9261 C.ar    1  UNL1       -0.0238
     13 C          -4.8806    4.3789   24.0379 C.ar    1  UNL1        0.0015
     14 C          -4.1907    4.3051   25.3677 C.ar    1  UNL1       -0.0020
     15 C          -4.8459    4.8857   26.5858 C.ar    1  UNL1        0.0060
     16 C          -6.1910    5.5400   26.4740 C.ar    1  UNL1        0.0748
     17 C          -6.8810    5.6138   25.1441 C.ar    1  UNL1        0.0233
     18 C          -8.1925    6.3147   25.3406 C.3     1  UNL1        0.2352
     19 O          -8.3132    6.6740   26.7919 O.3     1  UNL1       -0.4404
     20 C          -7.0762    6.1953   27.4924 C.2     1  UNL1        0.3413
     21 O          -6.7769    6.3455   28.9545 O.2     1  UNL1       -0.2449
     22 C           1.9083    1.2637   21.0305 C.3     1  UNL1        0.1064
     23 C           1.8236   -0.2298   20.9187 C.3     1  UNL1        0.1483
     24 O           0.6957   -0.8621   20.1585 O.3     1  UNL1       -0.3786
     25 H           0.1152   -0.1697   19.8058 H       1  UNL1        0.2108
     26 C           2.8668   -1.0908   21.5670 C.ar    1  UNL1        0.0015
     27 C           3.0408   -1.0650   23.0567 C.ar    1  UNL1       -0.0020
     28 C           4.0840   -1.9260   23.7049 C.ar    1  UNL1        0.0060
     29 C           4.9533   -2.8128   22.8635 C.ar    1  UNL1        0.0748
     30 C           4.7793   -2.8386   21.3739 C.ar    1  UNL1        0.0233
     31 C           3.7361   -1.9776   20.7256 C.ar    1  UNL1       -0.0238
     32 C           3.5621   -2.0034   19.2360 C.3     1  UNL1        0.0306
     33 C           5.7757   -3.8063   20.8076 C.3     1  UNL1        0.2352
     34 O           6.5655   -4.3786   21.9473 O.3     1  UNL1       -0.4404
     35 C           6.0572   -3.7646   23.2179 C.2     1  UNL1        0.3413
     36 O           6.5639   -4.0519   24.6002 O.2     1  UNL1       -0.2449
@<TRIPOS>BOND
     1    11    12    1
     2    12    13   ar
     3    13     8    1
     4     8     9    1
     5     8     7    1
     6     7     1    1
     7     1     2    1
     8     2     3    1
     9     3     4    1
    10     4    22    1
    11    22    23    1
    12    23    24    1
    13    23    26    1
    14    26    27   ar
    15    27    28   ar
    16    28    29   ar
    17    29    30   ar
    18    30    31   ar
    19    31    32    1
    20    30    33    1
    21    33    34    1
    22    34    35    1
    23    35    36    2
    24     4     5    1
    25     5     6    1
    26    13    14   ar
    27    14    15   ar
    28    15    16   ar
    29    16    17   ar
    30    17    18    1
    31    18    19    1
    32    19    20    1
    33    20    21    2
    34    17    12   ar
    35     6     1    1
    36    20    16    1
    37    31    26   ar
    38    35    29    1
    39     9    10    1
    40    24    25    1
@<TRIPOS>MOLECULE
*****
 36 40 0 0 0
SMALL
GASTEIGER

@<TRIPOS>ATOM
      1 N           6.0008   -2.0317   21.2076 N.3     1  UNL1       -0.2680
      2 C           6.3525   -0.7106   21.8248 C.3     1  UNL1        0.0897
      3 C           6.1205   -0.4814   23.2889 C.3     1  UNL1        0.0897
      4 N           5.5367   -1.5731   24.1358 N.3     1  UNL1       -0.2680
      5 C           5.1849   -2.8942   23.5186 C.3     1  UNL1        0.0897
      6 C           5.4169   -3.1235   22.0545 C.3     1  UNL1        0.0897
      7 C           6.2328   -2.2610   19.7435 C.3     1  UNL1        0.1064
      8 C           5.0933   -2.1396   18.7756 C.3     1  UNL1        0.1483
      9 O           5.1227   -2.9007   17.4833 O.3     1  UNL1       -0.3786
     10 H           4.3165   -2.7114   16.9782 H       1  UNL1        0.2108
     11 C           5.0490    0.7034   17.8187 C.3     1  UNL1        0.0306
     12 C           3.9022    0.1643   18.6215 C.ar    1  UNL1       -0.0238
     13 C           3.9244   -1.2573   19.1000 C.ar    1  UNL1        0.0015
     14 C           2.7777   -1.7963   19.9027 C.ar    1  UNL1       -0.0020
     15 C           1.6089   -0.9140   20.2271 C.ar    1  UNL1        0.0060
     16 C           1.5867    0.5075   19.7486 C.ar    1  UNL1        0.0748
     17 C           2.7334    1.0466   18.9458 C.ar    1  UNL1        0.0233
     18 C           2.4337    2.4782   18.6132 C.3     1  UNL1        0.2352
     19 O           1.1019    2.8239   19.2103 O.3     1  UNL1       -0.4404
     20 C           0.5783    1.6059   19.9121 C.2     1  UNL1        0.3413
     21 O          -0.7247    1.5042   20.6481 O.2     1  UNL1       -0.2449
     22 C           5.3047   -1.3438   25.5999 C.3     1  UNL1        0.1064
     23 C           3.9115   -1.1345   26.1148 C.3     1  UNL1        0.1483
     24 O           3.3606   -2.0392   27.1769 O.3     1  UNL1       -0.3786
     25 H           4.0288   -2.7000   27.4171 H       1  UNL1        0.2108
     26 C           3.0692   -0.0204   25.5677 C.ar    1  UNL1        0.0015
     27 C           2.4212   -0.1612   24.2222 C.ar    1  UNL1       -0.0020
     28 C           1.5790    0.9529   23.6751 C.ar    1  UNL1        0.0060
     29 C           1.3846    2.2078   24.4735 C.ar    1  UNL1        0.0748
     30 C           2.0326    2.3486   25.8190 C.ar    1  UNL1        0.0233
     31 C           2.8749    1.2345   26.3661 C.ar    1  UNL1       -0.0238
     32 C           3.5228    1.3753   27.7115 C.3     1  UNL1        0.0306
     33 C           1.6636    3.6929   26.3727 C.3     1  UNL1        0.2352
     34 O           0.7876    4.3830   25.3694 O.3     1  UNL1       -0.4404
     35 C           0.6152    3.4652   24.1957 C.2     1  UNL1        0.3413
     36 O          -0.1860    3.7539   22.9609 O.2     1  UNL1       -0.2449
@<TRIPOS>BOND
     1    11    12    1
     2    12    13   ar
     3    13     8    1
     4     8     9    1
     5     8     7    1
     6     7     1    1
     7     1     2    1
     8     2     3    1
     9     3     4    1
    10     4    22    1
    11    22    23    1
    12    23    24    1
    13    23    26    1
    14    26    27   ar
    15    27    28   ar
    16    28    29   ar
    17    29    30   ar
    18    30    31   ar
    19    31    32    1
    20    30    33    1
    21    33    34    1
    22    34    35    1
    23    35    36    2
    24     4     5    1
    25     5     6    1
    26    13    14   ar
    27    14    15   ar
    28    15    16   ar
    29    16    17   ar
    30    17    18    1
    31    18    19    1
    32    19    20    1
    33    20    21    2
    34    17    12   ar
    35     6     1    1
    36    20    16    1
    37    31    26   ar
    38    35    29    1
    39     9    10    1
    40    24    25    1
