@<TRIPOS>MOLECULE
*****
 22 23 0 0 0
SMALL
GASTEIGER

@<TRIPOS>ATOM
      1 C         -12.2262  -18.5249   22.2785 C.3     1  UNL1        0.0902
      2 N         -11.1101  -18.7044   23.2644 N.3     1  UNL1       -0.2639
      3 C         -10.3673  -20.0061   23.3275 C.3     1  UNL1        0.0998
      4 C          -8.8784  -20.0295   23.1471 C.2     1  UNL1        0.0001
      5 C          -8.2722  -19.5691   21.8546 C.2     1  UNL1        0.0461
      6 C          -6.7832  -19.5925   21.6741 C.1     1  UNL1       -0.0641
      7 C          -5.2944  -19.6159   21.4936 C.1     1  UNL1       -0.0884
      8 C          -3.8055  -19.6393   21.3132 C.3     1  UNL1        0.0544
      9 C          -3.6406  -18.8368   22.5696 C.3     1  UNL1        0.0130
     10 C          -3.9704  -20.4418   20.0567 C.3     1  UNL1        0.0130
     11 C          -2.3165  -19.6627   21.1327 C.3     1  UNL1        0.0130
     12 C         -10.7367  -17.5824   24.1872 C.3     1  UNL1        0.0994
     13 C          -9.5178  -16.7545   23.9065 C.ar    1  UNL1       -0.0061
     14 C          -9.2211  -16.3073   22.5059 C.ar    1  UNL1       -0.0029
     15 C          -8.0021  -15.4795   22.2252 C.ar    1  UNL1       -0.0003
     16 C          -7.0798  -15.0988   23.3452 C.ar    1  UNL1       -0.0000
     17 C          -7.3765  -15.5461   24.7460 C.ar    1  UNL1       -0.0003
     18 C          -6.4542  -15.1654   25.8660 C.ar    1  UNL1       -0.0000
     19 C          -6.7509  -15.6127   27.2666 C.ar    1  UNL1       -0.0000
     20 C          -7.9698  -16.4405   27.5473 C.ar    1  UNL1       -0.0000
     21 C          -8.8921  -16.8211   26.4273 C.ar    1  UNL1       -0.0003
     22 C          -8.5954  -16.3739   25.0266 C.ar    1  UNL1       -0.0027
@<TRIPOS>BOND
     1     1     2    1
     2     2     3    1
     3     3     4    1
     4     4     5    2
     5     5     6    1
     6     6     7    3
     7     7     8    1
     8     8     9    1
     9     8    10    1
    10     8    11    1
    11     2    12    1
    12    12    13    1
    13    13    14   ar
    14    14    15   ar
    15    15    16   ar
    16    16    17   ar
    17    17    18   ar
    18    18    19   ar
    19    19    20   ar
    20    20    21   ar
    21    21    22   ar
    22    22    13   ar
    23    22    17   ar
@<TRIPOS>MOLECULE
*****
 22 23 0 0 0
SMALL
GASTEIGER

@<TRIPOS>ATOM
      1 C         -11.4947  -16.3865   19.4206 C.3     1  UNL1        0.0902
      2 N         -11.8484  -17.1166   20.6823 N.3     1  UNL1       -0.2639
      3 C         -12.3532  -16.3560   21.8726 C.3     1  UNL1        0.0998
      4 C         -11.4514  -16.1163   23.0470 C.2     1  UNL1        0.0001
      5 C          -9.9701  -16.3059   22.9061 C.2     1  UNL1        0.0461
      6 C          -9.0682  -16.0661   24.0805 C.1     1  UNL1       -0.0641
      7 C          -8.1664  -15.8263   25.2549 C.1     1  UNL1       -0.0884
      8 C          -7.2646  -15.5865   26.4292 C.3     1  UNL1        0.0544
      9 C          -6.1424  -15.2391   25.4966 C.3     1  UNL1        0.0130
     10 C          -8.3868  -15.9340   27.3619 C.3     1  UNL1        0.0130
     11 C          -6.3627  -15.3467   27.6037 C.3     1  UNL1        0.0130
     12 C         -11.6974  -18.6073   20.7536 C.3     1  UNL1        0.0994
     13 C         -10.8058  -19.2220   21.7915 C.ar    1  UNL1       -0.0061
     14 C         -11.3657  -19.6060   23.1290 C.ar    1  UNL1       -0.0029
     15 C         -10.4741  -20.2207   24.1669 C.ar    1  UNL1       -0.0003
     16 C          -9.0225  -20.4514   23.8672 C.ar    1  UNL1       -0.0000
     17 C          -8.4626  -20.0673   22.5297 C.ar    1  UNL1       -0.0003
     18 C          -7.0110  -20.2979   22.2300 C.ar    1  UNL1       -0.0000
     19 C          -6.4511  -19.9139   20.8925 C.ar    1  UNL1       -0.0000
     20 C          -7.3427  -19.2992   19.8547 C.ar    1  UNL1       -0.0000
     21 C          -8.7943  -19.0685   20.1543 C.ar    1  UNL1       -0.0003
     22 C          -9.3542  -19.4526   21.4918 C.ar    1  UNL1       -0.0027
@<TRIPOS>BOND
     1     1     2    1
     2     2     3    1
     3     3     4    1
     4     4     5    2
     5     5     6    1
     6     6     7    3
     7     7     8    1
     8     8     9    1
     9     8    10    1
    10     8    11    1
    11     2    12    1
    12    12    13    1
    13    13    14   ar
    14    14    15   ar
    15    15    16   ar
    16    16    17   ar
    17    17    18   ar
    18    18    19   ar
    19    19    20   ar
    20    20    21   ar
    21    21    22   ar
    22    22    13   ar
    23    22    17   ar
@<TRIPOS>MOLECULE
*****
 22 23 0 0 0
SMALL
GASTEIGER

@<TRIPOS>ATOM
      1 C          -8.5182  -15.9608   25.9146 C.3     1  UNL1        0.0902
      2 N          -7.6048  -15.6364   24.7698 N.3     1  UNL1       -0.2639
      3 C          -6.1503  -15.3712   25.0228 C.3     1  UNL1        0.0998
      4 C          -5.1371  -15.6703   23.9579 C.2     1  UNL1        0.0001
      5 C          -4.4695  -17.0128   23.9138 C.2     1  UNL1        0.0461
      6 C          -3.4562  -17.3119   22.8489 C.1     1  UNL1       -0.0641
      7 C          -2.4431  -17.6111   21.7841 C.1     1  UNL1       -0.0884
      8 C          -1.4299  -17.9103   20.7192 C.3     1  UNL1        0.0544
      9 C          -1.8867  -19.3386   20.6859 C.3     1  UNL1        0.0130
     10 C          -0.9732  -16.4820   20.7525 C.3     1  UNL1        0.0130
     11 C          -0.4168  -18.2096   19.6543 C.3     1  UNL1        0.0130
     12 C          -8.1460  -15.5774   23.3721 C.3     1  UNL1        0.0994
     13 C          -8.5323  -16.8417   22.6633 C.ar    1  UNL1       -0.0061
     14 C          -7.4758  -17.8244   22.2532 C.ar    1  UNL1       -0.0029
     15 C          -7.8621  -19.0886   21.5445 C.ar    1  UNL1       -0.0003
     16 C          -9.3048  -19.3702   21.2458 C.ar    1  UNL1       -0.0000
     17 C         -10.3613  -18.3875   21.6559 C.ar    1  UNL1       -0.0003
     18 C         -11.8040  -18.6691   21.3572 C.ar    1  UNL1       -0.0000
     19 C         -12.8605  -17.6864   21.7673 C.ar    1  UNL1       -0.0000
     20 C         -12.4742  -16.4221   22.4760 C.ar    1  UNL1       -0.0000
     21 C         -11.0315  -16.1405   22.7747 C.ar    1  UNL1       -0.0003
     22 C          -9.9750  -17.1232   22.3646 C.ar    1  UNL1       -0.0027
@<TRIPOS>BOND
     1     1     2    1
     2     2     3    1
     3     3     4    1
     4     4     5    2
     5     5     6    1
     6     6     7    3
     7     7     8    1
     8     8     9    1
     9     8    10    1
    10     8    11    1
    11     2    12    1
    12    12    13    1
    13    13    14   ar
    14    14    15   ar
    15    15    16   ar
    16    16    17   ar
    17    17    18   ar
    18    18    19   ar
    19    19    20   ar
    20    20    21   ar
    21    21    22   ar
    22    22    13   ar
    23    22    17   ar
@<TRIPOS>MOLECULE
*****
 22 23 0 0 0
SMALL
GASTEIGER

@<TRIPOS>ATOM
      1 C         -11.6470  -16.1175   19.1321 C.3     1  UNL1        0.0902
      2 N         -11.5995  -17.2724   20.0881 N.3     1  UNL1       -0.2639
      3 C         -10.9342  -18.5544   19.6830 C.3     1  UNL1        0.0998
      4 C          -9.4430  -18.6873   19.7755 C.2     1  UNL1        0.0001
      5 C          -8.8180  -19.2883   20.9994 C.2     1  UNL1        0.0461
      6 C          -7.3268  -19.4212   21.0919 C.1     1  UNL1       -0.0641
      7 C          -5.8356  -19.5541   21.1843 C.1     1  UNL1       -0.0884
      8 C          -4.3443  -19.6871   21.2767 C.3     1  UNL1        0.0544
      9 C          -4.3383  -20.4971   20.0143 C.3     1  UNL1        0.0130
     10 C          -4.3504  -18.8770   22.5391 C.3     1  UNL1        0.0130
     11 C          -2.8531  -19.8200   21.3691 C.3     1  UNL1        0.0130
     12 C         -12.2173  -17.1454   21.4490 C.3     1  UNL1        0.0994
     13 C         -11.4410  -17.5532   22.6660 C.ar    1  UNL1       -0.0061
     14 C         -11.9940  -18.5933   23.5946 C.ar    1  UNL1       -0.0029
     15 C         -11.2178  -19.0010   24.8117 C.ar    1  UNL1       -0.0003
     16 C          -9.8886  -18.3687   25.1001 C.ar    1  UNL1       -0.0000
     17 C          -9.3355  -17.3285   24.1715 C.ar    1  UNL1       -0.0003
     18 C          -8.0063  -16.6962   24.4600 C.ar    1  UNL1       -0.0000
     19 C          -7.4533  -15.6561   23.5314 C.ar    1  UNL1       -0.0000
     20 C          -8.2295  -15.2483   22.3143 C.ar    1  UNL1       -0.0000
     21 C          -9.5588  -15.8807   22.0259 C.ar    1  UNL1       -0.0003
     22 C         -10.1117  -16.9208   22.9545 C.ar    1  UNL1       -0.0027
@<TRIPOS>BOND
     1     1     2    1
     2     2     3    1
     3     3     4    1
     4     4     5    2
     5     5     6    1
     6     6     7    3
     7     7     8    1
     8     8     9    1
     9     8    10    1
    10     8    11    1
    11     2    12    1
    12    12    13    1
    13    13    14   ar
    14    14    15   ar
    15    15    16   ar
    16    16    17   ar
    17    17    18   ar
    18    18    19   ar
    19    19    20   ar
    20    20    21   ar
    21    21    22   ar
    22    22    13   ar
    23    22    17   ar
@<TRIPOS>MOLECULE
*****
 22 23 0 0 0
SMALL
GASTEIGER

@<TRIPOS>ATOM
      1 C          -8.4000  -16.2992   27.0421 C.3     1  UNL1        0.0902
      2 N          -8.2120  -15.8249   25.6316 N.3     1  UNL1       -0.2639
      3 C          -6.9243  -15.1715   25.2254 C.3     1  UNL1        0.0998
      4 C          -6.0862  -15.7770   24.1386 C.2     1  UNL1        0.0001
      5 C          -4.7424  -16.3585   24.4639 C.2     1  UNL1        0.0461
      6 C          -3.9042  -16.9640   23.3771 C.1     1  UNL1       -0.0641
      7 C          -3.0662  -17.5695   22.2904 C.1     1  UNL1       -0.0884
      8 C          -2.2281  -18.1750   21.2037 C.3     1  UNL1        0.0544
      9 C          -1.7241  -16.8118   20.8328 C.3     1  UNL1        0.0130
     10 C          -2.7321  -19.5382   21.5746 C.3     1  UNL1        0.0130
     11 C          -1.3900  -18.7805   20.1169 C.3     1  UNL1        0.0130
     12 C          -9.3116  -16.0040   24.6273 C.3     1  UNL1        0.0994
     13 C          -9.7321  -17.3831   24.2133 C.ar    1  UNL1       -0.0061
     14 C          -9.6367  -18.5201   25.1869 C.ar    1  UNL1       -0.0029
     15 C         -10.0571  -19.8992   24.7730 C.ar    1  UNL1       -0.0003
     16 C         -10.5729  -20.1413   23.3854 C.ar    1  UNL1       -0.0000
     17 C         -10.6683  -19.0042   22.4117 C.ar    1  UNL1       -0.0003
     18 C         -11.1841  -19.2462   21.0242 C.ar    1  UNL1       -0.0000
     19 C         -11.2795  -18.1092   20.0506 C.ar    1  UNL1       -0.0000
     20 C         -10.8590  -16.7301   20.4645 C.ar    1  UNL1       -0.0000
     21 C         -10.3432  -16.4880   21.8521 C.ar    1  UNL1       -0.0003
     22 C         -10.2479  -17.6251   22.8257 C.ar    1  UNL1       -0.0027
@<TRIPOS>BOND
     1     1     2    1
     2     2     3    1
     3     3     4    1
     4     4     5    2
     5     5     6    1
     6     6     7    3
     7     7     8    1
     8     8     9    1
     9     8    10    1
    10     8    11    1
    11     2    12    1
    12    12    13    1
    13    13    14   ar
    14    14    15   ar
    15    15    16   ar
    16    16    17   ar
    17    17    18   ar
    18    18    19   ar
    19    19    20   ar
    20    20    21   ar
    21    21    22   ar
    22    22    13   ar
    23    22    17   ar
@<TRIPOS>MOLECULE
*****
 22 23 0 0 0
SMALL
GASTEIGER

@<TRIPOS>ATOM
      1 C          -4.4256  -15.0138   22.8159 C.3     1  UNL1        0.0902
      2 N          -4.8262  -15.9021   23.9562 N.3     1  UNL1       -0.2639
      3 C          -5.7868  -15.4025   24.9944 C.3     1  UNL1        0.0998
      4 C          -7.2361  -15.7816   24.9195 C.2     1  UNL1        0.0001
      5 C          -7.7788  -16.4295   23.6803 C.2     1  UNL1        0.0461
      6 C          -9.2282  -16.8087   23.6054 C.1     1  UNL1       -0.0641
      7 C         -10.6775  -17.1878   23.5305 C.1     1  UNL1       -0.0884
      8 C         -12.1268  -17.5669   23.4556 C.3     1  UNL1        0.0544
      9 C         -12.3779  -16.4221   22.5195 C.3     1  UNL1        0.0130
     10 C         -11.8758  -18.7117   24.3917 C.3     1  UNL1        0.0130
     11 C         -13.5763  -17.9460   23.3806 C.3     1  UNL1        0.0130
     12 C          -4.2664  -17.2899   24.0584 C.3     1  UNL1        0.0994
     13 C          -3.6133  -17.9248   22.8666 C.ar    1  UNL1       -0.0061
     14 C          -2.1976  -17.5771   22.5132 C.ar    1  UNL1       -0.0029
     15 C          -1.5445  -18.2121   21.3214 C.ar    1  UNL1       -0.0003
     16 C          -2.3071  -19.1947   20.4831 C.ar    1  UNL1       -0.0000
     17 C          -3.7228  -19.5425   20.8365 C.ar    1  UNL1       -0.0003
     18 C          -4.4854  -20.5251   19.9982 C.ar    1  UNL1       -0.0000
     19 C          -5.9011  -20.8728   20.3516 C.ar    1  UNL1       -0.0000
     20 C          -6.5541  -20.2379   21.5434 C.ar    1  UNL1       -0.0000
     21 C          -5.7916  -19.2553   22.3817 C.ar    1  UNL1       -0.0003
     22 C          -4.3759  -18.9075   22.0283 C.ar    1  UNL1       -0.0027
@<TRIPOS>BOND
     1     1     2    1
     2     2     3    1
     3     3     4    1
     4     4     5    2
     5     5     6    1
     6     6     7    3
     7     7     8    1
     8     8     9    1
     9     8    10    1
    10     8    11    1
    11     2    12    1
    12    12    13    1
    13    13    14   ar
    14    14    15   ar
    15    15    16   ar
    16    16    17   ar
    17    17    18   ar
    18    18    19   ar
    19    19    20   ar
    20    20    21   ar
    21    21    22   ar
    22    22    13   ar
    23    22    17   ar
@<TRIPOS>MOLECULE
*****
 22 23 0 0 0
SMALL
GASTEIGER

@<TRIPOS>ATOM
      1 C          -8.6841  -16.5758   26.6375 C.3     1  UNL1        0.0902
      2 N          -8.8660  -16.8734   25.1786 N.3     1  UNL1       -0.2639
      3 C          -8.3383  -15.9205   24.1473 C.3     1  UNL1        0.0998
      4 C          -7.1216  -16.2799   23.3469 C.2     1  UNL1        0.0001
      5 C          -5.8395  -16.6244   24.0451 C.2     1  UNL1        0.0461
      6 C          -4.6228  -16.9839   23.2447 C.1     1  UNL1       -0.0641
      7 C          -3.4061  -17.3433   22.4445 C.1     1  UNL1       -0.0884
      8 C          -2.1895  -17.7028   21.6442 C.3     1  UNL1        0.0544
      9 C          -2.5113  -19.1585   21.8088 C.3     1  UNL1        0.0130
     10 C          -1.8677  -16.2470   21.4796 C.3     1  UNL1        0.0130
     11 C          -0.9728  -18.0623   20.8439 C.3     1  UNL1        0.0130
     12 C          -9.5756  -18.1238   24.7510 C.3     1  UNL1        0.0994
     13 C         -10.4650  -18.1058   23.5432 C.ar    1  UNL1       -0.0061
     14 C         -11.8757  -17.6091   23.6580 C.ar    1  UNL1       -0.0029
     15 C         -12.7651  -17.5911   22.4503 C.ar    1  UNL1       -0.0003
     16 C         -12.2438  -18.0698   21.1277 C.ar    1  UNL1       -0.0000
     17 C         -10.8331  -18.5665   21.0129 C.ar    1  UNL1       -0.0003
     18 C         -10.3118  -19.0452   19.6904 C.ar    1  UNL1       -0.0000
     19 C          -8.9011  -19.5419   19.5757 C.ar    1  UNL1       -0.0000
     20 C          -8.0117  -19.5599   20.7834 C.ar    1  UNL1       -0.0000
     21 C          -8.5330  -19.0812   22.1059 C.ar    1  UNL1       -0.0003
     22 C          -9.9437  -18.5845   22.2207 C.ar    1  UNL1       -0.0027
@<TRIPOS>BOND
     1     1     2    1
     2     2     3    1
     3     3     4    1
     4     4     5    2
     5     5     6    1
     6     6     7    3
     7     7     8    1
     8     8     9    1
     9     8    10    1
    10     8    11    1
    11     2    12    1
    12    12    13    1
    13    13    14   ar
    14    14    15   ar
    15    15    16   ar
    16    16    17   ar
    17    17    18   ar
    18    18    19   ar
    19    19    20   ar
    20    20    21   ar
    21    21    22   ar
    22    22    13   ar
    23    22    17   ar
@<TRIPOS>MOLECULE
*****
 22 23 0 0 0
SMALL
GASTEIGER

@<TRIPOS>ATOM
      1 C         -12.4609  -15.5435   19.1827 C.3     1  UNL1        0.0902
      2 N         -11.4679  -16.3502   19.9658 N.3     1  UNL1       -0.2639
      3 C         -10.1493  -15.7477   20.3510 C.3     1  UNL1        0.0998
      4 C          -9.7447  -15.6888   21.7942 C.2     1  UNL1        0.0001
      5 C          -8.3097  -15.8936   22.1797 C.2     1  UNL1        0.0461
      6 C          -7.9050  -15.8347   23.6229 C.1     1  UNL1       -0.0641
      7 C          -7.5003  -15.7758   25.0661 C.1     1  UNL1       -0.0884
      8 C          -7.0956  -15.7169   26.5092 C.3     1  UNL1        0.0544
      9 C          -8.4350  -16.2624   26.9071 C.3     1  UNL1        0.0130
     10 C          -5.7562  -15.1713   26.1113 C.3     1  UNL1        0.0130
     11 C          -6.6909  -15.6580   27.9524 C.3     1  UNL1        0.0130
     12 C         -11.7935  -17.7593   20.3636 C.3     1  UNL1        0.0994
     13 C         -12.0879  -18.0847   21.7980 C.ar    1  UNL1       -0.0061
     14 C         -13.3727  -17.6273   22.4224 C.ar    1  UNL1       -0.0029
     15 C         -13.6670  -17.9527   23.8568 C.ar    1  UNL1       -0.0003
     16 C         -12.6766  -18.7356   24.6667 C.ar    1  UNL1       -0.0000
     17 C         -11.3916  -19.1930   24.0423 C.ar    1  UNL1       -0.0003
     18 C         -10.4012  -19.9759   24.8523 C.ar    1  UNL1       -0.0000
     19 C          -9.1164  -20.4333   24.2279 C.ar    1  UNL1       -0.0000
     20 C          -8.8220  -20.1079   22.7935 C.ar    1  UNL1       -0.0000
     21 C          -9.8125  -19.3250   21.9835 C.ar    1  UNL1       -0.0003
     22 C         -11.0973  -18.8676   22.6079 C.ar    1  UNL1       -0.0027
@<TRIPOS>BOND
     1     1     2    1
     2     2     3    1
     3     3     4    1
     4     4     5    2
     5     5     6    1
     6     6     7    3
     7     7     8    1
     8     8     9    1
     9     8    10    1
    10     8    11    1
    11     2    12    1
    12    12    13    1
    13    13    14   ar
    14    14    15   ar
    15    15    16   ar
    16    16    17   ar
    17    17    18   ar
    18    18    19   ar
    19    19    20   ar
    20    20    21   ar
    21    21    22   ar
    22    22    13   ar
    23    22    17   ar
@<TRIPOS>MOLECULE
*****
 22 23 0 0 0
SMALL
GASTEIGER

@<TRIPOS>ATOM
      1 C         -12.6109  -15.9109   19.4604 C.3     1  UNL1        0.0902
      2 N         -11.2701  -16.4818   19.8156 N.3     1  UNL1       -0.2639
      3 C         -10.1591  -15.5724   20.2505 C.3     1  UNL1        0.0998
      4 C          -9.7464  -15.5287   21.6919 C.2     1  UNL1        0.0001
      5 C          -8.3209  -15.7991   22.0724 C.2     1  UNL1        0.0461
      6 C          -7.9082  -15.7554   23.5138 C.1     1  UNL1       -0.0641
      7 C          -7.4954  -15.7117   24.9552 C.1     1  UNL1       -0.0884
      8 C          -7.0826  -15.6680   26.3966 C.3     1  UNL1        0.0544
      9 C          -8.4518  -16.1268   26.8026 C.3     1  UNL1        0.0130
     10 C          -5.7135  -15.2092   25.9906 C.3     1  UNL1        0.0130
     11 C          -6.6699  -15.6244   27.8381 C.3     1  UNL1        0.0130
     12 C         -11.0401  -17.9619   19.7360 C.3     1  UNL1        0.0994
     13 C         -10.0093  -18.6090   20.6129 C.ar    1  UNL1       -0.0061
     14 C          -8.6820  -19.0092   20.0402 C.ar    1  UNL1       -0.0029
     15 C          -7.6513  -19.6563   20.9170 C.ar    1  UNL1       -0.0003
     16 C          -7.9478  -19.9031   22.3665 C.ar    1  UNL1       -0.0000
     17 C          -9.2752  -19.5029   22.9393 C.ar    1  UNL1       -0.0003
     18 C          -9.5718  -19.7498   24.3887 C.ar    1  UNL1       -0.0000
     19 C         -10.8991  -19.3495   24.9614 C.ar    1  UNL1       -0.0000
     20 C         -11.9299  -18.7024   24.0846 C.ar    1  UNL1       -0.0000
     21 C         -11.6333  -18.4556   22.6351 C.ar    1  UNL1       -0.0003
     22 C         -10.3060  -18.8558   22.0624 C.ar    1  UNL1       -0.0027
@<TRIPOS>BOND
     1     1     2    1
     2     2     3    1
     3     3     4    1
     4     4     5    2
     5     5     6    1
     6     6     7    3
     7     7     8    1
     8     8     9    1
     9     8    10    1
    10     8    11    1
    11     2    12    1
    12    12    13    1
    13    13    14   ar
    14    14    15   ar
    15    15    16   ar
    16    16    17   ar
    17    17    18   ar
    18    18    19   ar
    19    19    20   ar
    20    20    21   ar
    21    21    22   ar
    22    22    13   ar
    23    22    17   ar
