@<TRIPOS>MOLECULE
*****
 23 26 0 0 0
SMALL
GASTEIGER

@<TRIPOS>ATOM
      1 C         -10.8825  -17.4519   23.7111 C.3     1  UNL1        0.0316
      2 C         -12.0718  -18.3658   23.6924 C.3     1  UNL1        0.0222
      3 C         -13.1924  -17.6538   22.9944 C.3     1  UNL1        0.0689
      4 N         -12.6957  -16.2999   22.5817 N.3     1  UNL1       -0.2972
      5 C         -11.2681  -16.1751   23.0246 C.3     1  UNL1        0.0723
      6 H         -13.2601  -15.5745   23.0241 H       1  UNL1        0.1233
      7 C          -9.5544  -16.7754   23.8807 C.2     1  UNL1       -0.0390
      8 C          -8.8296  -16.2352   22.6838 C.2     1  UNL1       -0.0066
      9 C          -7.5016  -15.5586   22.8534 C.2     1  UNL1        0.0182
     10 C          -6.8985  -15.4223   24.2200 C.2     1  UNL1        0.0777
     11 N          -5.6142  -14.8090   24.6936 N.2     1  UNL1       -0.2442
     12 C          -5.5453  -14.9702   26.1833 C.2     1  UNL1        0.0985
     13 C          -6.7870  -15.6831   26.6304 C.2     1  UNL1        0.0182
     14 C          -7.6234  -15.9625   25.4170 C.2     1  UNL1        0.0011
     15 C          -8.9514  -16.6390   25.2473 C.3     1  UNL1        0.0499
     16 C         -10.2192  -18.5872   24.4330 C.3     1  UNL1        0.0098
     17 C          -9.8392  -19.8311   23.6859 C.3     1  UNL1        0.0267
     18 C          -7.6131  -19.5228   19.7872 C.ar    1  UNL1       -0.0000
     19 C          -6.8568  -19.6965   21.0709 C.ar    1  UNL1       -0.0003
     20 C          -7.5989  -19.7992   22.3704 C.ar    1  UNL1       -0.0043
     21 C          -9.0971  -19.7283   22.3863 C.ar    1  UNL1       -0.0222
     22 C          -9.8534  -19.5547   21.1025 C.ar    1  UNL1       -0.0043
     23 C          -9.1113  -19.4519   19.8030 C.ar    1  UNL1       -0.0003
@<TRIPOS>BOND
     1    18    19   ar
     2    19    20   ar
     3    20    21   ar
     4    21    17    1
     5    17    16    1
     6    16     1    1
     7     1     7    1
     8     7     8    2
     9     8     9    1
    10     9    10    2
    11    10    11    1
    12    11    12    2
    13    12    13    1
    14    13    14    2
    15    14    15    1
    16     1     2    1
    17     2     3    1
    18     3     4    1
    19     4     5    1
    20    21    22   ar
    21    22    23   ar
    22    23    18   ar
    23     5     1    1
    24    15     7    1
    25    14    10    1
    26     4     6    1
@<TRIPOS>MOLECULE
*****
 23 26 0 0 0
SMALL
GASTEIGER

@<TRIPOS>ATOM
      1 C         -10.3416  -17.4595   21.9816 C.3     1  UNL1        0.0316
      2 C         -11.3561  -16.7211   22.8035 C.3     1  UNL1        0.0222
      3 C         -12.5127  -16.3769   21.9127 C.3     1  UNL1        0.0689
      4 N         -12.2132  -16.9026   20.5401 N.3     1  UNL1       -0.2972
      5 C         -10.8714  -17.5716   20.5826 C.3     1  UNL1        0.0723
      6 H         -12.1951  -16.1329   19.8710 H       1  UNL1        0.1233
      7 C          -9.1650  -18.2071   21.4277 C.2     1  UNL1       -0.0390
      8 C          -9.3124  -19.0132   20.1714 C.2     1  UNL1       -0.0066
      9 C          -8.1357  -19.7609   19.6176 C.2     1  UNL1        0.0182
     10 C          -6.8118  -19.7023   20.3201 C.2     1  UNL1        0.0777
     11 N          -5.4843  -20.3298   20.0136 N.2     1  UNL1       -0.2442
     12 C          -4.5165  -19.9115   21.0805 C.2     1  UNL1        0.0985
     13 C          -5.2458  -19.0254   22.0465 C.2     1  UNL1        0.0182
     14 C          -6.6644  -18.8962   21.5765 C.2     1  UNL1        0.0011
     15 C          -7.8410  -18.1486   22.1303 C.3     1  UNL1        0.0499
     16 C          -9.5659  -17.5037   23.2646 C.3     1  UNL1        0.0098
     17 C          -9.6053  -16.3361   24.2054 C.3     1  UNL1        0.0267
     18 C          -5.9409  -15.2275   26.5704 C.ar    1  UNL1       -0.0000
     19 C          -7.1789  -15.6915   27.2791 C.ar    1  UNL1       -0.0003
     20 C          -8.4003  -16.0610   26.4907 C.ar    1  UNL1       -0.0043
     21 C          -8.3839  -15.9665   24.9937 C.ar    1  UNL1       -0.0222
     22 C          -7.1458  -15.5025   24.2852 C.ar    1  UNL1       -0.0043
     23 C          -5.9244  -15.1329   25.0735 C.ar    1  UNL1       -0.0003
@<TRIPOS>BOND
     1    18    19   ar
     2    19    20   ar
     3    20    21   ar
     4    21    17    1
     5    17    16    1
     6    16     1    1
     7     1     7    1
     8     7     8    2
     9     8     9    1
    10     9    10    2
    11    10    11    1
    12    11    12    2
    13    12    13    1
    14    13    14    2
    15    14    15    1
    16     1     2    1
    17     2     3    1
    18     3     4    1
    19     4     5    1
    20    21    22   ar
    21    22    23   ar
    22    23    18   ar
    23     5     1    1
    24    15     7    1
    25    14    10    1
    26     4     6    1
@<TRIPOS>MOLECULE
*****
 23 26 0 0 0
SMALL
GASTEIGER

@<TRIPOS>ATOM
      1 C          -7.2078  -15.7543   24.9054 C.3     1  UNL1        0.0316
      2 C          -5.9390  -15.4814   25.6575 C.3     1  UNL1        0.0222
      3 C          -6.3054  -15.0956   27.0599 C.3     1  UNL1        0.0689
      4 N          -7.8006  -15.1302   27.1747 N.3     1  UNL1       -0.2972
      5 C          -8.3584  -15.5373   25.8431 C.3     1  UNL1        0.0723
      6 H          -8.1498  -14.2060   27.4283 H       1  UNL1        0.1233
      7 C          -8.2832  -16.0872   23.9139 C.2     1  UNL1       -0.0390
      8 C          -8.1484  -15.6490   22.4858 C.2     1  UNL1       -0.0066
      9 C          -9.2237  -15.9819   21.4944 C.2     1  UNL1        0.0182
     10 C         -10.4338  -16.7530   21.9312 C.2     1  UNL1        0.0777
     11 N         -11.6471  -17.2238   21.1854 N.2     1  UNL1       -0.2442
     12 C         -12.5317  -17.9531   22.1526 C.2     1  UNL1        0.0985
     13 C         -11.8652  -17.9330   23.4963 C.2     1  UNL1        0.0182
     14 C         -10.5686  -17.1913   23.3594 C.2     1  UNL1        0.0011
     15 C          -9.4933  -16.8584   24.3508 C.3     1  UNL1        0.0499
     16 C          -6.2822  -16.0409   23.7604 C.3     1  UNL1        0.0098
     17 C          -4.8749  -16.4864   24.0272 C.3     1  UNL1        0.0267
     18 C          -2.9815  -19.6363   21.4304 C.ar    1  UNL1       -0.0000
     19 C          -2.1262  -18.5983   22.0945 C.ar    1  UNL1       -0.0003
     20 C          -2.7574  -17.5483   22.9600 C.ar    1  UNL1       -0.0043
     21 C          -4.2437  -17.5364   23.1616 C.ar    1  UNL1       -0.0222
     22 C          -5.0990  -18.5745   22.4975 C.ar    1  UNL1       -0.0043
     23 C          -4.4678  -19.6244   21.6319 C.ar    1  UNL1       -0.0003
@<TRIPOS>BOND
     1    18    19   ar
     2    19    20   ar
     3    20    21   ar
     4    21    17    1
     5    17    16    1
     6    16     1    1
     7     1     7    1
     8     7     8    2
     9     8     9    1
    10     9    10    2
    11    10    11    1
    12    11    12    2
    13    12    13    1
    14    13    14    2
    15    14    15    1
    16     1     2    1
    17     2     3    1
    18     3     4    1
    19     4     5    1
    20    21    22   ar
    21    22    23   ar
    22    23    18   ar
    23     5     1    1
    24    15     7    1
    25    14    10    1
    26     4     6    1
@<TRIPOS>MOLECULE
*****
 23 26 0 0 0
SMALL
GASTEIGER

@<TRIPOS>ATOM
      1 C          -9.4050  -18.6138   23.1252 C.3     1  UNL1        0.0316
      2 C         -10.5445  -18.0666   23.9327 C.3     1  UNL1        0.0222
      3 C         -11.1695  -19.2050   24.6832 C.3     1  UNL1        0.0689
      4 N         -10.4163  -20.4559   24.3395 N.3     1  UNL1       -0.2972
      5 C          -9.3258  -20.0905   23.3766 C.3     1  UNL1        0.0723
      6 H         -11.0466  -21.1320   23.9083 H       1  UNL1        0.1233
      7 C          -8.2307  -18.8633   22.2257 C.2     1  UNL1       -0.0390
      8 C          -8.4502  -19.1776   20.7756 C.2     1  UNL1       -0.0066
      9 C          -7.2759  -19.4271   19.8762 C.2     1  UNL1        0.0182
     10 C          -5.8822  -19.3622   20.4270 C.2     1  UNL1        0.0777
     11 N          -4.5400  -19.5607   19.7875 N.2     1  UNL1       -0.2442
     12 C          -3.4911  -19.3691   20.8424 C.2     1  UNL1        0.0985
     13 C          -4.1850  -19.0522   22.1340 C.2     1  UNL1        0.0182
     14 C          -5.6628  -19.0479   21.8772 C.2     1  UNL1        0.0011
     15 C          -6.8371  -18.7985   22.7766 C.3     1  UNL1        0.0499
     16 C          -9.2387  -17.1893   22.6858 C.3     1  UNL1        0.0098
     17 C          -9.2978  -16.0813   23.6952 C.3     1  UNL1        0.0267
     18 C          -5.7471  -15.2468   26.3308 C.ar    1  UNL1       -0.0000
     19 C          -5.5918  -15.2396   24.8388 C.ar    1  UNL1       -0.0003
     20 C          -6.7754  -15.5178   23.9603 C.ar    1  UNL1       -0.0043
     21 C          -8.1142  -15.8032   24.5737 C.ar    1  UNL1       -0.0222
     22 C          -8.2694  -15.8103   26.0657 C.ar    1  UNL1       -0.0043
     23 C          -7.0858  -15.5322   26.9442 C.ar    1  UNL1       -0.0003
@<TRIPOS>BOND
     1    18    19   ar
     2    19    20   ar
     3    20    21   ar
     4    21    17    1
     5    17    16    1
     6    16     1    1
     7     1     7    1
     8     7     8    2
     9     8     9    1
    10     9    10    2
    11    10    11    1
    12    11    12    2
    13    12    13    1
    14    13    14    2
    15    14    15    1
    16     1     2    1
    17     2     3    1
    18     3     4    1
    19     4     5    1
    20    21    22   ar
    21    22    23   ar
    22    23    18   ar
    23     5     1    1
    24    15     7    1
    25    14    10    1
    26     4     6    1
@<TRIPOS>MOLECULE
*****
 23 26 0 0 0
SMALL
GASTEIGER

@<TRIPOS>ATOM
      1 C         -10.1768  -17.6084   22.4852 C.3     1  UNL1        0.0316
      2 C         -10.9846  -18.6025   21.7047 C.3     1  UNL1        0.0222
      3 C         -12.2423  -17.9231   21.2502 C.3     1  UNL1        0.0689
      4 N         -12.2118  -16.5090   21.7498 N.3     1  UNL1       -0.2972
      5 C         -10.9353  -16.3146   22.5131 C.3     1  UNL1        0.0723
      6 H         -13.0102  -16.3409   22.3620 H       1  UNL1        0.1233
      7 C          -9.1663  -16.8517   23.2953 C.2     1  UNL1       -0.0390
      8 C          -8.1604  -15.9750   22.6103 C.2     1  UNL1       -0.0066
      9 C          -7.1498  -15.2182   23.4204 C.2     1  UNL1        0.0182
     10 C          -7.1454  -15.3382   24.9156 C.2     1  UNL1        0.0777
     11 N          -6.2772  -14.7177   25.9697 N.2     1  UNL1       -0.2442
     12 C          -6.7466  -15.2109   27.3062 C.2     1  UNL1        0.0985
     13 C          -7.9049  -16.1363   27.0781 C.2     1  UNL1        0.0182
     14 C          -8.1514  -16.2150   25.6006 C.2     1  UNL1        0.0011
     15 C          -9.1618  -16.9717   24.7905 C.3     1  UNL1        0.0499
     16 C          -9.2071  -18.7440   22.6267 C.3     1  UNL1        0.0098
     17 C          -8.5782  -19.3495   21.4069 C.3     1  UNL1        0.0267
     18 C          -4.1103  -19.8390   21.1867 C.ar    1  UNL1       -0.0000
     19 C          -4.9921  -20.5504   20.2036 C.ar    1  UNL1       -0.0003
     20 C          -6.4813  -20.3872   20.2770 C.ar    1  UNL1       -0.0043
     21 C          -7.0889  -19.5127   21.3335 C.ar    1  UNL1       -0.0222
     22 C          -6.2071  -18.8014   22.3166 C.ar    1  UNL1       -0.0043
     23 C          -4.7178  -18.9645   22.2431 C.ar    1  UNL1       -0.0003
@<TRIPOS>BOND
     1    18    19   ar
     2    19    20   ar
     3    20    21   ar
     4    21    17    1
     5    17    16    1
     6    16     1    1
     7     1     7    1
     8     7     8    2
     9     8     9    1
    10     9    10    2
    11    10    11    1
    12    11    12    2
    13    12    13    1
    14    13    14    2
    15    14    15    1
    16     1     2    1
    17     2     3    1
    18     3     4    1
    19     4     5    1
    20    21    22   ar
    21    22    23   ar
    22    23    18   ar
    23     5     1    1
    24    15     7    1
    25    14    10    1
    26     4     6    1
@<TRIPOS>MOLECULE
*****
 23 26 0 0 0
SMALL
GASTEIGER

@<TRIPOS>ATOM
      1 C          -8.0493  -18.6216   21.3824 C.3     1  UNL1        0.0316
      2 C          -9.4006  -18.1046   21.7781 C.3     1  UNL1        0.0222
      3 C         -10.3482  -18.3706   20.6461 C.3     1  UNL1        0.0689
      4 N          -9.5825  -19.0519   19.5509 N.3     1  UNL1       -0.2972
      5 C          -8.1617  -19.2071   20.0059 C.3     1  UNL1        0.0723
      6 H          -9.6146  -18.4864   18.7026 H       1  UNL1        0.1233
      7 C          -6.6115  -19.0343   21.2695 C.2     1  UNL1       -0.0390
      8 C          -6.2295  -20.1895   20.3925 C.2     1  UNL1       -0.0066
      9 C          -4.7917  -20.6022   20.2796 C.2     1  UNL1        0.0182
     10 C          -3.7361  -19.8595   21.0439 C.2     1  UNL1        0.0777
     11 N          -2.2490  -20.0352   21.1305 N.2     1  UNL1       -0.2442
     12 C          -1.7120  -18.9885   22.0611 C.2     1  UNL1        0.0985
     13 C          -2.8672  -18.1659   22.5496 C.2     1  UNL1        0.0182
     14 C          -4.1182  -18.7041   21.9209 C.2     1  UNL1        0.0011
     15 C          -5.5559  -18.2915   22.0338 C.3     1  UNL1        0.0499
     16 C          -7.6362  -18.1225   22.7352 C.3     1  UNL1        0.0098
     17 C          -8.1826  -16.8259   23.2552 C.3     1  UNL1        0.0267
     18 C          -6.7001  -15.1666   27.1666 C.ar    1  UNL1       -0.0000
     19 C          -5.7932  -15.1950   25.9721 C.ar    1  UNL1       -0.0003
     20 C          -6.2874  -15.7482   24.6683 C.ar    1  UNL1       -0.0043
     21 C          -7.6884  -16.2728   24.5590 C.ar    1  UNL1       -0.0222
     22 C          -8.5953  -16.2443   25.7536 C.ar    1  UNL1       -0.0043
     23 C          -8.1010  -15.6912   27.0573 C.ar    1  UNL1       -0.0003
@<TRIPOS>BOND
     1    18    19   ar
     2    19    20   ar
     3    20    21   ar
     4    21    17    1
     5    17    16    1
     6    16     1    1
     7     1     7    1
     8     7     8    2
     9     8     9    1
    10     9    10    2
    11    10    11    1
    12    11    12    2
    13    12    13    1
    14    13    14    2
    15    14    15    1
    16     1     2    1
    17     2     3    1
    18     3     4    1
    19     4     5    1
    20    21    22   ar
    21    22    23   ar
    22    23    18   ar
    23     5     1    1
    24    15     7    1
    25    14    10    1
    26     4     6    1
@<TRIPOS>MOLECULE
*****
 23 26 0 0 0
SMALL
GASTEIGER

@<TRIPOS>ATOM
      1 C          -7.0855  -16.0819   24.5081 C.3     1  UNL1        0.0316
      2 C          -5.6494  -15.7499   24.7864 C.3     1  UNL1        0.0222
      3 C          -5.5816  -15.0670   26.1201 C.3     1  UNL1        0.0689
      4 N          -6.9758  -14.9768   26.6662 N.3     1  UNL1       -0.2972
      5 C          -7.9053  -15.6040   25.6699 C.3     1  UNL1        0.0723
      6 H          -7.2293  -13.9991   26.8084 H       1  UNL1        0.1233
      7 C          -8.4081  -16.5334   23.9632 C.2     1  UNL1       -0.0390
      8 C          -9.2651  -17.4736   24.7577 C.2     1  UNL1       -0.0066
      9 C         -10.5877  -17.9252   24.2128 C.2     1  UNL1        0.0182
     10 C         -11.0532  -17.4364   22.8732 C.2     1  UNL1        0.0777
     11 N         -12.2999  -17.7065   22.0840 N.2     1  UNL1       -0.2442
     12 C         -12.2133  -16.9331   20.8017 C.2     1  UNL1        0.0985
     13 C         -10.9132  -16.1850   20.7984 C.2     1  UNL1        0.0182
     14 C         -10.1962  -16.4961   22.0787 C.2     1  UNL1        0.0011
     15 C          -8.8736  -16.0446   22.6236 C.3     1  UNL1        0.0499
     16 C          -6.5424  -16.6541   23.2324 C.3     1  UNL1        0.0098
     17 C          -5.2995  -17.4936   23.2563 C.3     1  UNL1        0.0267
     18 C          -4.7159  -20.7373   20.1924 C.ar    1  UNL1       -0.0000
     19 C          -6.0936  -20.4160   20.6912 C.ar    1  UNL1       -0.0003
     20 C          -6.2881  -19.3347   21.7125 C.ar    1  UNL1       -0.0043
     21 C          -5.1050  -18.5748   22.2350 C.ar    1  UNL1       -0.0222
     22 C          -3.7274  -18.8963   21.7361 C.ar    1  UNL1       -0.0043
     23 C          -3.5329  -19.9775   20.7148 C.ar    1  UNL1       -0.0003
@<TRIPOS>BOND
     1    18    19   ar
     2    19    20   ar
     3    20    21   ar
     4    21    17    1
     5    17    16    1
     6    16     1    1
     7     1     7    1
     8     7     8    2
     9     8     9    1
    10     9    10    2
    11    10    11    1
    12    11    12    2
    13    12    13    1
    14    13    14    2
    15    14    15    1
    16     1     2    1
    17     2     3    1
    18     3     4    1
    19     4     5    1
    20    21    22   ar
    21    22    23   ar
    22    23    18   ar
    23     5     1    1
    24    15     7    1
    25    14    10    1
    26     4     6    1
@<TRIPOS>MOLECULE
*****
 23 26 0 0 0
SMALL
GASTEIGER

@<TRIPOS>ATOM
      1 C          -6.5302  -16.6505   23.4046 C.3     1  UNL1        0.0316
      2 C          -5.1802  -16.3643   23.9925 C.3     1  UNL1        0.0222
      3 C          -5.2719  -15.0784   24.7594 C.3     1  UNL1        0.0689
      4 N          -6.6784  -14.5699   24.6454 N.3     1  UNL1       -0.2972
      5 C          -7.4562  -15.5415   23.8081 C.3     1  UNL1        0.0723
      6 H          -6.6797  -13.6517   24.2012 H       1  UNL1        0.1233
      7 C          -7.7395  -17.1923   22.7016 C.2     1  UNL1       -0.0390
      8 C          -7.5855  -18.2587   21.6581 C.2     1  UNL1       -0.0066
      9 C          -8.7948  -18.8004   20.9551 C.2     1  UNL1        0.0182
     10 C         -10.1581  -18.2756   21.2957 C.2     1  UNL1        0.0777
     11 N         -11.5231  -18.6145   20.7742 N.2     1  UNL1       -0.2442
     12 C         -12.5207  -17.7574   21.4955 C.2     1  UNL1        0.0985
     13 C         -11.7723  -16.8889   22.4627 C.2     1  UNL1        0.0182
     14 C         -10.3121  -17.2091   22.3392 C.2     1  UNL1        0.0011
     15 C          -9.1028  -16.6675   23.0422 C.3     1  UNL1        0.0499
     16 C          -5.8571  -17.8727   22.8541 C.3     1  UNL1        0.0098
     17 C          -4.3727  -18.0382   22.9929 C.3     1  UNL1        0.0267
     18 C          -1.7767  -18.2286   19.3222 C.ar    1  UNL1       -0.0000
     19 C          -3.0125  -19.0742   19.4114 C.ar    1  UNL1       -0.0003
     20 C          -3.8778  -19.0107   20.6350 C.ar    1  UNL1       -0.0043
     21 C          -3.5074  -18.1017   21.7693 C.ar    1  UNL1       -0.0222
     22 C          -2.2716  -17.2561   21.6799 C.ar    1  UNL1       -0.0043
     23 C          -1.4063  -17.3196   20.4563 C.ar    1  UNL1       -0.0003
@<TRIPOS>BOND
     1    18    19   ar
     2    19    20   ar
     3    20    21   ar
     4    21    17    1
     5    17    16    1
     6    16     1    1
     7     1     7    1
     8     7     8    2
     9     8     9    1
    10     9    10    2
    11    10    11    1
    12    11    12    2
    13    12    13    1
    14    13    14    2
    15    14    15    1
    16     1     2    1
    17     2     3    1
    18     3     4    1
    19     4     5    1
    20    21    22   ar
    21    22    23   ar
    22    23    18   ar
    23     5     1    1
    24    15     7    1
    25    14    10    1
    26     4     6    1
@<TRIPOS>MOLECULE
*****
 23 26 0 0 0
SMALL
GASTEIGER

@<TRIPOS>ATOM
      1 C          -7.2746  -18.2166   22.4014 C.3     1  UNL1        0.0316
      2 C          -5.7767  -18.2335   22.3248 C.3     1  UNL1        0.0222
      3 C          -5.3373  -19.6576   22.1544 C.3     1  UNL1        0.0689
      4 N          -6.5637  -20.5208   22.1257 N.3     1  UNL1       -0.2972
      5 C          -7.7611  -19.6303   22.2783 C.3     1  UNL1        0.0723
      6 H          -6.5321  -21.1927   22.8924 H       1  UNL1        0.1233
      7 C          -8.7348  -17.8900   22.5084 C.2     1  UNL1       -0.0390
      8 C          -9.3319  -16.8283   21.6331 C.2     1  UNL1       -0.0066
      9 C         -10.7921  -16.5017   21.7401 C.2     1  UNL1        0.0182
     10 C         -11.6550  -17.2368   22.7224 C.2     1  UNL1        0.0777
     11 N         -13.1151  -17.1330   23.0500 N.2     1  UNL1       -0.2442
     12 C         -13.4203  -18.1307   24.1278 C.2     1  UNL1        0.0985
     13 C         -12.1488  -18.8510   24.4663 C.2     1  UNL1        0.0182
     14 C         -11.0578  -18.2986   23.5977 C.2     1  UNL1        0.0011
     15 C          -9.5977  -18.6251   23.4907 C.3     1  UNL1        0.0499
     16 C          -7.0935  -16.7348   22.5468 C.3     1  UNL1        0.0098
     17 C          -6.2214  -16.1894   23.6386 C.3     1  UNL1        0.0267
     18 C          -8.0189  -15.0824   27.6127 C.ar    1  UNL1       -0.0000
     19 C          -6.5390  -15.2956   27.4923 C.ar    1  UNL1       -0.0003
     20 C          -5.9399  -15.6646   26.1676 C.ar    1  UNL1       -0.0043
     21 C          -6.8205  -15.8204   24.9633 C.ar    1  UNL1       -0.0222
     22 C          -8.3004  -15.6071   25.0839 C.ar    1  UNL1       -0.0043
     23 C          -8.8995  -15.2381   26.4086 C.ar    1  UNL1       -0.0003
@<TRIPOS>BOND
     1    18    19   ar
     2    19    20   ar
     3    20    21   ar
     4    21    17    1
     5    17    16    1
     6    16     1    1
     7     1     7    1
     8     7     8    2
     9     8     9    1
    10     9    10    2
    11    10    11    1
    12    11    12    2
    13    12    13    1
    14    13    14    2
    15    14    15    1
    16     1     2    1
    17     2     3    1
    18     3     4    1
    19     4     5    1
    20    21    22   ar
    21    22    23   ar
    22    23    18   ar
    23     5     1    1
    24    15     7    1
    25    14    10    1
    26     4     6    1
