@<TRIPOS>MOLECULE
*****
 33 36 0 0 0
SMALL
GASTEIGER

@<TRIPOS>ATOM
      1 C          -8.9068  -18.7199   20.7441 C.ar    1  UNL1        0.0951
      2 C          -9.6251  -19.2898   19.5570 C.ar    1  UNL1        0.1454
      3 F         -11.0243  -18.8490   19.2444 F       1  UNL1       -0.2040
      4 C          -8.9441  -20.3006   18.6826 C.ar    1  UNL1        0.0312
      5 C          -7.5449  -20.7414   18.9952 C.ar    1  UNL1        0.0204
      6 C          -6.8266  -20.1715   20.1823 C.ar    1  UNL1        0.0924
      7 C          -7.5075  -19.1607   21.0568 C.ar    1  UNL1        0.1598
      8 F          -6.7892  -18.5908   22.2439 F       1  UNL1       -0.2026
      9 C          -9.5877  -17.7091   21.6186 C.2     1  UNL1        0.2036
     10 O         -10.0352  -16.3987   21.0420 O.2     1  UNL1       -0.2863
     11 C          -7.6054  -15.7816   25.6275 C.2     1  UNL1        0.1673
     12 C          -8.1391  -16.3891   26.8908 C.2     1  UNL1        0.2683
     13 N          -9.1745  -17.4724   26.8228 N.2     1  UNL1       -0.0278
     14 C          -9.6760  -17.9482   25.4917 C.2     1  UNL1        0.3723
     15 N         -10.6848  -18.9919   25.1138 N.2     1  UNL1       -0.0307
     16 C         -10.7745  -19.0295   23.6169 C.2     1  UNL1        0.2390
     17 C          -9.8212  -18.0089   23.0697 C.2     1  UNL1        0.0897
     18 C          -9.1423  -17.3406   24.2284 C.2     1  UNL1        0.0806
     19 C          -8.1069  -16.2573   24.2963 C.3     1  UNL1        0.1023
     20 C          -5.1310  -15.0499   25.9304 C.3     1  UNL1        0.2522
     21 O          -6.5701  -14.6983   25.6954 O.2     1  UNL1       -0.4715
     22 N          -5.4273  -20.6123   20.4950 N.pl3   1  UNL1       -0.2127
     23 H          -5.2416  -21.5592   20.6902 H       1  UNL1        0.1738
     24 S          -4.3111  -19.6105   20.5102 S.O2    1  UNL1        0.0758
     25 O          -3.5701  -20.4512   21.5071 O.2     1  UNL1       -0.1499
     26 O          -5.0521  -18.7697   19.5132 O.2     1  UNL1       -0.1499
     27 C          -3.1948  -18.6086   20.5253 C.ar    1  UNL1        0.1524
     28 C          -2.2113  -18.5645   19.3937 C.ar    1  UNL1        0.0225
     29 C          -1.0950  -17.5626   19.4087 C.ar    1  UNL1        0.0015
     30 C          -0.9623  -16.6049   20.5555 C.ar    1  UNL1        0.0024
     31 C          -1.9458  -16.6489   21.6872 C.ar    1  UNL1        0.0310
     32 C          -3.0621  -17.6508   21.6721 C.ar    1  UNL1        0.1589
     33 F          -4.0456  -17.6949   22.8037 F       1  UNL1       -0.2027
@<TRIPOS>BOND
     1    20    21    1
     2    21    11    1
     3    11    12    2
     4    12    13    1
     5    13    14    2
     6    14    15    1
     7    15    16    2
     8    16    17    1
     9    17     9    1
    10     9    10    2
    11     9     1    1
    12     1     2   ar
    13     2     3    1
    14     2     4   ar
    15     4     5   ar
    16     5     6   ar
    17     6    22    1
    18    22    24    1
    19    24    25    2
    20    24    26    2
    21    24    27    1
    22    27    28   ar
    23    28    29   ar
    24    29    30   ar
    25    30    31   ar
    26    31    32   ar
    27    32    33    1
    28     6     7   ar
    29     7     8    1
    30    17    18    2
    31    18    19    1
    32    19    11    1
    33    18    14    1
    34     7     1   ar
    35    32    27   ar
    36    22    23    1
@<TRIPOS>MOLECULE
*****
 33 36 0 0 0
SMALL
GASTEIGER

@<TRIPOS>ATOM
      1 C         -10.3801  -19.0774   22.2353 C.ar    1  UNL1        0.0951
      2 C         -11.4265  -18.6340   21.2564 C.ar    1  UNL1        0.1454
      3 F         -12.7425  -18.1109   21.7510 F       1  UNL1       -0.2040
      4 C         -11.1571  -18.7137   19.7830 C.ar    1  UNL1        0.0312
      5 C          -9.8411  -19.2368   19.2884 C.ar    1  UNL1        0.0204
      6 C          -8.7946  -19.6802   20.2673 C.ar    1  UNL1        0.0924
      7 C          -9.0640  -19.6005   21.7408 C.ar    1  UNL1        0.1598
      8 F          -8.0175  -20.0439   22.7196 F       1  UNL1       -0.2026
      9 C         -10.6495  -18.9976   23.7087 C.2     1  UNL1        0.2036
     10 O         -11.7377  -19.8308   24.3183 O.2     1  UNL1       -0.2863
     11 C          -7.8691  -15.1689   22.5569 C.2     1  UNL1        0.1673
     12 C          -7.2215  -14.5386   23.7541 C.2     1  UNL1        0.2683
     13 N          -7.4661  -15.1017   25.1227 N.2     1  UNL1       -0.0278
     14 C          -8.3585  -16.2952   25.2941 C.2     1  UNL1        0.3723
     15 N          -8.7827  -17.0649   26.5096 N.2     1  UNL1       -0.0307
     16 C          -9.6925  -18.1710   26.0637 C.2     1  UNL1        0.2390
     17 C          -9.8307  -18.0848   24.5726 C.2     1  UNL1        0.0897
     18 C          -9.0061  -16.9255   24.0969 C.2     1  UNL1        0.0806
     19 C          -8.7615  -16.3623   22.7284 C.3     1  UNL1        0.1023
     20 C          -8.7634  -14.0321   20.3988 C.3     1  UNL1        0.2522
     21 O          -7.6244  -14.6058   21.1883 O.2     1  UNL1       -0.4715
     22 N          -7.4786  -20.2033   19.7728 N.pl3   1  UNL1       -0.2127
     23 H          -7.4526  -20.8391   19.0215 H       1  UNL1        0.1738
     24 S          -6.2023  -19.7578   20.4228 S.O2    1  UNL1        0.0758
     25 O          -6.5531  -18.3287   20.1322 O.2     1  UNL1       -0.1499
     26 O          -5.8515  -21.1869   20.7134 O.2     1  UNL1       -0.1499
     27 C          -4.9260  -19.3123   21.0729 C.ar    1  UNL1        0.1524
     28 C          -4.9579  -18.6795   22.4324 C.ar    1  UNL1        0.0225
     29 C          -3.6816  -18.2340   23.0825 C.ar    1  UNL1        0.0015
     30 C          -2.3734  -18.4214   22.3731 C.ar    1  UNL1        0.0024
     31 C          -2.3414  -19.0543   21.0135 C.ar    1  UNL1        0.0310
     32 C          -3.6177  -19.4997   20.3634 C.ar    1  UNL1        0.1589
     33 F          -3.5858  -20.1326   19.0038 F       1  UNL1       -0.2027
@<TRIPOS>BOND
     1    20    21    1
     2    21    11    1
     3    11    12    2
     4    12    13    1
     5    13    14    2
     6    14    15    1
     7    15    16    2
     8    16    17    1
     9    17     9    1
    10     9    10    2
    11     9     1    1
    12     1     2   ar
    13     2     3    1
    14     2     4   ar
    15     4     5   ar
    16     5     6   ar
    17     6    22    1
    18    22    24    1
    19    24    25    2
    20    24    26    2
    21    24    27    1
    22    27    28   ar
    23    28    29   ar
    24    29    30   ar
    25    30    31   ar
    26    31    32   ar
    27    32    33    1
    28     6     7   ar
    29     7     8    1
    30    17    18    2
    31    18    19    1
    32    19    11    1
    33    18    14    1
    34     7     1   ar
    35    32    27   ar
    36    22    23    1
@<TRIPOS>MOLECULE
*****
 33 36 0 0 0
SMALL
GASTEIGER

@<TRIPOS>ATOM
      1 C          -6.4113  -19.2947   21.2804 C.ar    1  UNL1        0.0951
      2 C          -5.2813  -20.2046   20.8995 C.ar    1  UNL1        0.1454
      3 F          -5.5592  -21.4685   20.1411 F       1  UNL1       -0.2040
      4 C          -3.8734  -19.8507   21.2771 C.ar    1  UNL1        0.0312
      5 C          -3.5955  -18.5868   22.0356 C.ar    1  UNL1        0.0204
      6 C          -4.7256  -17.6768   22.4165 C.ar    1  UNL1        0.0924
      7 C          -6.1335  -18.0308   22.0389 C.ar    1  UNL1        0.1598
      8 F          -7.2635  -17.1208   22.4198 F       1  UNL1       -0.2026
      9 C          -7.8192  -19.6487   20.9028 C.2     1  UNL1        0.2036
     10 O          -8.1463  -20.0138   19.4852 O.2     1  UNL1       -0.2863
     11 C         -12.0761  -17.2876   21.0468 C.2     1  UNL1        0.1673
     12 C         -12.8571  -17.5711   22.2956 C.2     1  UNL1        0.2683
     13 N         -12.3004  -18.4996   23.3338 N.2     1  UNL1       -0.0278
     14 C         -10.9626  -19.1446   23.1233 C.2     1  UNL1        0.3723
     15 N         -10.1637  -20.0962   23.9636 N.2     1  UNL1       -0.0307
     16 C          -8.8889  -20.4009   23.2341 C.2     1  UNL1        0.2390
     17 C          -8.9000  -19.6376   21.9429 C.2     1  UNL1        0.0897
     18 C         -10.1816  -18.8611   21.8744 C.2     1  UNL1        0.0806
     19 C         -10.7383  -17.9326   20.8362 C.3     1  UNL1        0.1023
     20 C         -11.7049  -15.5792   19.1249 C.3     1  UNL1        0.2522
     21 O         -12.6328  -16.3591   20.0085 O.2     1  UNL1       -0.4715
     22 N          -4.4477  -16.4129   23.1750 N.pl3   1  UNL1       -0.2127
     23 H          -3.6830  -15.8460   22.9237 H       1  UNL1        0.1738
     24 S          -5.3349  -16.0127   24.3163 S.O2    1  UNL1        0.0758
     25 O          -4.7663  -17.1238   25.1481 O.2     1  UNL1       -0.1499
     26 O          -5.9036  -14.9014   23.4846 O.2     1  UNL1       -0.1499
     27 C          -6.2221  -15.6124   25.4577 C.ar    1  UNL1        0.1524
     28 C          -5.6633  -14.8130   26.5973 C.ar    1  UNL1        0.0225
     29 C          -6.5504  -14.4127   27.7387 C.ar    1  UNL1        0.0015
     30 C          -7.9964  -14.8117   27.7404 C.ar    1  UNL1        0.0024
     31 C          -8.5552  -15.6110   26.6008 C.ar    1  UNL1        0.0310
     32 C          -7.6681  -16.0114   25.4594 C.ar    1  UNL1        0.1589
     33 F          -8.2268  -16.8107   24.3198 F       1  UNL1       -0.2027
@<TRIPOS>BOND
     1    20    21    1
     2    21    11    1
     3    11    12    2
     4    12    13    1
     5    13    14    2
     6    14    15    1
     7    15    16    2
     8    16    17    1
     9    17     9    1
    10     9    10    2
    11     9     1    1
    12     1     2   ar
    13     2     3    1
    14     2     4   ar
    15     4     5   ar
    16     5     6   ar
    17     6    22    1
    18    22    24    1
    19    24    25    2
    20    24    26    2
    21    24    27    1
    22    27    28   ar
    23    28    29   ar
    24    29    30   ar
    25    30    31   ar
    26    31    32   ar
    27    32    33    1
    28     6     7   ar
    29     7     8    1
    30    17    18    2
    31    18    19    1
    32    19    11    1
    33    18    14    1
    34     7     1   ar
    35    32    27   ar
    36    22    23    1
@<TRIPOS>MOLECULE
*****
 33 36 0 0 0
SMALL
GASTEIGER

@<TRIPOS>ATOM
      1 C          -7.9343  -15.8766   25.1712 C.ar    1  UNL1        0.0951
      2 C          -7.6764  -15.6768   26.6352 C.ar    1  UNL1        0.1454
      3 F          -8.8108  -15.7522   27.6137 F       1  UNL1       -0.2040
      4 C          -6.2841  -15.4017   27.1208 C.ar    1  UNL1        0.0312
      5 C          -5.1497  -15.3262   26.1424 C.ar    1  UNL1        0.0204
      6 C          -5.4077  -15.5260   24.6782 C.ar    1  UNL1        0.0924
      7 C          -6.7999  -15.8012   24.1926 C.ar    1  UNL1        0.1598
      8 F          -7.0578  -16.0010   22.7285 F       1  UNL1       -0.2026
      9 C          -9.3266  -16.1518   24.6855 C.2     1  UNL1        0.2036
     10 O         -10.3072  -15.0258   24.5423 O.2     1  UNL1       -0.2863
     11 C         -11.1623  -18.0180   20.5790 C.2     1  UNL1        0.1673
     12 C         -11.4327  -19.4900   20.6785 C.2     1  UNL1        0.2683
     13 N         -11.1353  -20.2228   21.9531 N.2     1  UNL1       -0.0278
     14 C         -10.5675  -19.4835   23.1282 C.2     1  UNL1        0.3723
     15 N         -10.1759  -19.9348   24.5040 N.2     1  UNL1       -0.0307
     16 C          -9.6634  -18.7416   25.2549 C.2     1  UNL1        0.2390
     17 C          -9.7382  -17.5530   24.3431 C.2     1  UNL1        0.0897
     18 C         -10.2970  -18.0115   23.0287 C.2     1  UNL1        0.0806
     19 C         -10.5944  -17.2788   21.7541 C.3     1  UNL1        0.1023
     20 C         -11.7084  -15.8063   19.3300 C.3     1  UNL1        0.2522
     21 O         -11.4597  -17.2853   19.3044 O.2     1  UNL1       -0.4715
     22 N          -4.2732  -15.4506   23.6997 N.pl3   1  UNL1       -0.2127
     23 H          -3.7849  -14.6047   23.5765 H       1  UNL1        0.1738
     24 S          -3.8828  -16.6641   22.9091 S.O2    1  UNL1        0.0758
     25 O          -3.3282  -15.7825   21.8298 O.2     1  UNL1       -0.1499
     26 O          -4.4374  -17.5458   23.9885 O.2     1  UNL1       -0.1499
     27 C          -3.4924  -17.8776   22.1185 C.ar    1  UNL1        0.1524
     28 C          -2.0441  -18.1695   21.8589 C.ar    1  UNL1        0.0225
     29 C          -1.6536  -19.3830   21.0684 C.ar    1  UNL1        0.0015
     30 C          -2.7114  -20.3046   20.5374 C.ar    1  UNL1        0.0024
     31 C          -4.1596  -20.0127   20.7970 C.ar    1  UNL1        0.0310
     32 C          -4.5501  -18.7992   21.5876 C.ar    1  UNL1        0.1589
     33 F          -5.9983  -18.5072   21.8472 F       1  UNL1       -0.2027
@<TRIPOS>BOND
     1    20    21    1
     2    21    11    1
     3    11    12    2
     4    12    13    1
     5    13    14    2
     6    14    15    1
     7    15    16    2
     8    16    17    1
     9    17     9    1
    10     9    10    2
    11     9     1    1
    12     1     2   ar
    13     2     3    1
    14     2     4   ar
    15     4     5   ar
    16     5     6   ar
    17     6    22    1
    18    22    24    1
    19    24    25    2
    20    24    26    2
    21    24    27    1
    22    27    28   ar
    23    28    29   ar
    24    29    30   ar
    25    30    31   ar
    26    31    32   ar
    27    32    33    1
    28     6     7   ar
    29     7     8    1
    30    17    18    2
    31    18    19    1
    32    19    11    1
    33    18    14    1
    34     7     1   ar
    35    32    27   ar
    36    22    23    1
@<TRIPOS>MOLECULE
*****
 33 36 0 0 0
SMALL
GASTEIGER

@<TRIPOS>ATOM
      1 C          -7.1004  -17.4930   23.1256 C.ar    1  UNL1        0.0951
      2 C          -7.6010  -16.2189   23.7388 C.ar    1  UNL1        0.1454
      3 F          -9.0750  -15.9506   23.8125 F       1  UNL1       -0.2040
      4 C          -6.6277  -15.2131   24.2783 C.ar    1  UNL1        0.0312
      5 C          -5.1537  -15.4813   24.2046 C.ar    1  UNL1        0.0204
      6 C          -4.6531  -16.7555   23.5914 C.ar    1  UNL1        0.0924
      7 C          -5.6264  -17.7613   23.0519 C.ar    1  UNL1        0.1598
      8 F          -5.1257  -19.0354   22.4387 F       1  UNL1       -0.2026
      9 C          -8.0737  -18.4988   22.5861 C.2     1  UNL1        0.2036
     10 O          -7.7078  -19.3315   21.3933 O.2     1  UNL1       -0.2863
     11 C         -12.4971  -16.9751   21.2341 C.2     1  UNL1        0.1673
     12 C         -13.5719  -17.3776   22.1999 C.2     1  UNL1        0.2683
     13 N         -13.2209  -18.1666   23.4264 N.2     1  UNL1       -0.0278
     14 C         -11.7953  -18.5532   23.6871 C.2     1  UNL1        0.3723
     15 N         -11.1518  -19.3230   24.8021 N.2     1  UNL1       -0.0307
     16 C          -9.6794  -19.3964   24.5254 C.2     1  UNL1        0.2390
     17 C          -9.4128  -18.6718   23.2393 C.2     1  UNL1        0.0897
     18 C         -10.7205  -18.1507   22.7213 C.2     1  UNL1        0.0806
     19 C         -11.0715  -17.3617   21.4948 C.3     1  UNL1        0.1023
     20 C         -11.7607  -15.6127   19.1481 C.3     1  UNL1        0.2522
     21 O         -12.8481  -16.1861   20.0076 O.2     1  UNL1       -0.4715
     22 N          -3.1791  -17.0238   23.5177 N.pl3   1  UNL1       -0.2127
     23 H          -2.6425  -17.0544   24.3425 H       1  UNL1        0.1738
     24 S          -2.5227  -17.2455   22.1873 S.O2    1  UNL1        0.0758
     25 O          -2.8580  -15.8392   21.7875 O.2     1  UNL1       -0.1499
     26 O          -2.1874  -18.6518   22.5870 O.2     1  UNL1       -0.1499
     27 C          -1.8663  -17.4672   20.8568 C.ar    1  UNL1        0.1524
     28 C          -0.4038  -17.1815   20.6853 C.ar    1  UNL1        0.0225
     29 C           0.2527  -17.4032   19.3549 C.ar    1  UNL1        0.0015
     30 C          -0.5533  -17.9106   18.1961 C.ar    1  UNL1        0.0024
     31 C          -2.0158  -18.1963   18.3676 C.ar    1  UNL1        0.0310
     32 C          -2.6723  -17.9746   19.6980 C.ar    1  UNL1        0.1589
     33 F          -4.1348  -18.2603   19.8696 F       1  UNL1       -0.2027
@<TRIPOS>BOND
     1    20    21    1
     2    21    11    1
     3    11    12    2
     4    12    13    1
     5    13    14    2
     6    14    15    1
     7    15    16    2
     8    16    17    1
     9    17     9    1
    10     9    10    2
    11     9     1    1
    12     1     2   ar
    13     2     3    1
    14     2     4   ar
    15     4     5   ar
    16     5     6   ar
    17     6    22    1
    18    22    24    1
    19    24    25    2
    20    24    26    2
    21    24    27    1
    22    27    28   ar
    23    28    29   ar
    24    29    30   ar
    25    30    31   ar
    26    31    32   ar
    27    32    33    1
    28     6     7   ar
    29     7     8    1
    30    17    18    2
    31    18    19    1
    32    19    11    1
    33    18    14    1
    34     7     1   ar
    35    32    27   ar
    36    22    23    1
@<TRIPOS>MOLECULE
*****
 33 36 0 0 0
SMALL
GASTEIGER

@<TRIPOS>ATOM
      1 C          -8.6753  -17.6198   23.9633 C.ar    1  UNL1        0.0951
      2 C          -8.1885  -16.2332   24.2636 C.ar    1  UNL1        0.1454
      3 F          -9.0545  -15.2862   25.0404 F       1  UNL1       -0.2040
      4 C          -6.8358  -15.7935   23.7873 C.ar    1  UNL1        0.0312
      5 C          -5.9698  -16.7404   23.0105 C.ar    1  UNL1        0.0204
      6 C          -6.4566  -18.1271   22.7102 C.ar    1  UNL1        0.0924
      7 C          -7.8093  -18.5669   23.1865 C.ar    1  UNL1        0.1598
      8 F          -8.2960  -19.9535   22.8861 F       1  UNL1       -0.2026
      9 C         -10.0279  -18.0595   24.4396 C.2     1  UNL1        0.2036
     10 O         -10.1858  -18.6470   25.8107 O.2     1  UNL1       -0.2863
     11 C         -10.6573  -15.4578   20.3713 C.2     1  UNL1        0.1673
     12 C         -12.0335  -15.6051   19.7931 C.2     1  UNL1        0.2683
     13 N         -13.0414  -16.4854   20.4707 N.2     1  UNL1       -0.0278
     14 C         -12.6731  -17.2185   21.7264 C.2     1  UNL1        0.3723
     15 N         -13.4495  -18.1500   22.6093 N.2     1  UNL1       -0.0307
     16 C         -12.5531  -18.5784   23.7331 C.2     1  UNL1        0.2390
     17 C         -11.2227  -17.9117   23.5448 C.2     1  UNL1        0.0897
     18 C         -11.2969  -17.0713   22.3045 C.2     1  UNL1        0.0806
     19 C         -10.2890  -16.1909   21.6270 C.3     1  UNL1        0.1023
     20 C          -8.5092  -14.0004   20.4792 C.3     1  UNL1        0.2522
     21 O          -9.6494  -14.5774   19.6937 O.2     1  UNL1       -0.4715
     22 N          -5.5906  -19.0741   21.9334 N.pl3   1  UNL1       -0.2127
     23 H          -5.9075  -19.9863   21.7416 H       1  UNL1        0.1738
     24 S          -4.2419  -18.6313   21.4489 S.O2    1  UNL1        0.0758
     25 O          -4.8130  -18.3849   20.0840 O.2     1  UNL1       -0.1499
     26 O          -3.6707  -18.8777   22.8138 O.2     1  UNL1       -0.1499
     27 C          -2.8931  -18.1884   20.9644 C.ar    1  UNL1        0.1524
     28 C          -2.1380  -19.0281   19.9771 C.ar    1  UNL1        0.0225
     29 C          -0.7892  -18.5854   19.4926 C.ar    1  UNL1        0.0015
     30 C          -0.1955  -17.3029   19.9954 C.ar    1  UNL1        0.0024
     31 C          -0.9506  -16.4632   20.9827 C.ar    1  UNL1        0.0310
     32 C          -2.2994  -16.9059   21.4672 C.ar    1  UNL1        0.1589
     33 F          -3.0545  -16.0663   22.4544 F       1  UNL1       -0.2027
@<TRIPOS>BOND
     1    20    21    1
     2    21    11    1
     3    11    12    2
     4    12    13    1
     5    13    14    2
     6    14    15    1
     7    15    16    2
     8    16    17    1
     9    17     9    1
    10     9    10    2
    11     9     1    1
    12     1     2   ar
    13     2     3    1
    14     2     4   ar
    15     4     5   ar
    16     5     6   ar
    17     6    22    1
    18    22    24    1
    19    24    25    2
    20    24    26    2
    21    24    27    1
    22    27    28   ar
    23    28    29   ar
    24    29    30   ar
    25    30    31   ar
    26    31    32   ar
    27    32    33    1
    28     6     7   ar
    29     7     8    1
    30    17    18    2
    31    18    19    1
    32    19    11    1
    33    18    14    1
    34     7     1   ar
    35    32    27   ar
    36    22    23    1
@<TRIPOS>MOLECULE
*****
 33 36 0 0 0
SMALL
GASTEIGER

@<TRIPOS>ATOM
      1 C          -7.2035  -17.7419   23.0861 C.ar    1  UNL1        0.0951
      2 C          -7.7499  -16.4669   23.6567 C.ar    1  UNL1        0.1454
      3 F          -9.2327  -16.2499   23.7234 F       1  UNL1       -0.2040
      4 C          -6.8137  -15.4088   24.1606 C.ar    1  UNL1        0.0312
      5 C          -5.3309  -15.6258   24.0939 C.ar    1  UNL1        0.0204
      6 C          -4.7845  -16.9009   23.5232 C.ar    1  UNL1        0.0924
      7 C          -5.7208  -17.9590   23.0193 C.ar    1  UNL1        0.1598
      8 F          -5.1743  -19.2340   22.4487 F       1  UNL1       -0.2026
      9 C          -8.1398  -18.8000   22.5822 C.2     1  UNL1        0.2036
     10 O          -7.9214  -20.2356   22.9582 O.2     1  UNL1       -0.2863
     11 C         -12.8595  -18.1826   23.6116 C.2     1  UNL1        0.1673
     12 C         -13.6722  -17.8004   22.4103 C.2     1  UNL1        0.2683
     13 N         -13.0090  -17.6486   21.0734 N.2     1  UNL1       -0.0278
     14 C         -11.5330  -17.8790   20.9380 C.2     1  UNL1        0.3723
     15 N         -10.6095  -17.8040   19.7584 N.2     1  UNL1       -0.0307
     16 C          -9.2260  -18.1399   20.2307 C.2     1  UNL1        0.2390
     17 C          -9.2944  -18.4225   21.7022 C.2     1  UNL1        0.0897
     18 C         -10.7203  -18.2612   22.1394 C.2     1  UNL1        0.0806
     19 C         -11.3835  -18.4130   23.4762 C.3     1  UNL1        0.1023
     20 C         -15.0047  -18.5507   25.0302 C.3     1  UNL1        0.2522
     21 O         -13.5227  -18.3344   24.9484 O.2     1  UNL1       -0.4715
     22 N          -3.3018  -17.1179   23.4565 N.pl3   1  UNL1       -0.2127
     23 H          -2.7688  -17.1328   24.2841 H       1  UNL1        0.1738
     24 S          -2.6312  -17.3122   22.1289 S.O2    1  UNL1        0.0758
     25 O          -2.9135  -15.8818   21.7769 O.2     1  UNL1       -0.1499
     26 O          -2.3489  -18.7427   22.4809 O.2     1  UNL1       -0.1499
     27 C          -1.9606  -17.5066   20.8013 C.ar    1  UNL1        0.1524
     28 C          -0.5101  -17.1620   20.6362 C.ar    1  UNL1        0.0225
     29 C           0.1605  -17.3563   19.3086 C.ar    1  UNL1        0.0015
     30 C          -0.6193  -17.8954   18.1462 C.ar    1  UNL1        0.0024
     31 C          -2.0698  -18.2401   18.3113 C.ar    1  UNL1        0.0310
     32 C          -2.7404  -18.0457   19.6388 C.ar    1  UNL1        0.1589
     33 F          -4.1909  -18.3903   19.8040 F       1  UNL1       -0.2027
@<TRIPOS>BOND
     1    20    21    1
     2    21    11    1
     3    11    12    2
     4    12    13    1
     5    13    14    2
     6    14    15    1
     7    15    16    2
     8    16    17    1
     9    17     9    1
    10     9    10    2
    11     9     1    1
    12     1     2   ar
    13     2     3    1
    14     2     4   ar
    15     4     5   ar
    16     5     6   ar
    17     6    22    1
    18    22    24    1
    19    24    25    2
    20    24    26    2
    21    24    27    1
    22    27    28   ar
    23    28    29   ar
    24    29    30   ar
    25    30    31   ar
    26    31    32   ar
    27    32    33    1
    28     6     7   ar
    29     7     8    1
    30    17    18    2
    31    18    19    1
    32    19    11    1
    33    18    14    1
    34     7     1   ar
    35    32    27   ar
    36    22    23    1
@<TRIPOS>MOLECULE
*****
 33 36 0 0 0
SMALL
GASTEIGER

@<TRIPOS>ATOM
      1 C          -7.0646  -15.9958   23.5120 C.ar    1  UNL1        0.0951
      2 C          -7.1373  -15.2424   24.8070 C.ar    1  UNL1        0.1454
      3 F          -8.3194  -14.3667   25.0998 F       1  UNL1       -0.2040
      4 C          -6.0280  -15.3647   25.8092 C.ar    1  UNL1        0.0312
      5 C          -4.8458  -16.2405   25.5164 C.ar    1  UNL1        0.0204
      6 C          -4.7731  -16.9939   24.2213 C.ar    1  UNL1        0.0924
      7 C          -5.8825  -16.8715   23.2191 C.ar    1  UNL1        0.1598
      8 F          -5.8097  -17.6249   21.9241 F       1  UNL1       -0.2026
      9 C          -8.1739  -15.8735   22.5098 C.2     1  UNL1        0.2036
     10 O          -8.1137  -14.8137   21.4499 O.2     1  UNL1       -0.2863
     11 C          -9.4211  -19.5904   19.6210 C.2     1  UNL1        0.1673
     12 C         -10.6888  -20.2648   20.0546 C.2     1  UNL1        0.2683
     13 N         -11.4241  -19.7721   21.2656 N.2     1  UNL1       -0.0278
     14 C         -10.8916  -18.6051   22.0431 C.2     1  UNL1        0.3723
     15 N         -11.3947  -17.9021   23.2689 N.2     1  UNL1       -0.0307
     16 C         -10.4378  -16.7933   23.5930 C.2     1  UNL1        0.2390
     17 C          -9.3434  -16.8109   22.5674 C.2     1  UNL1        0.0897
     18 C          -9.6239  -17.9307   21.6095 C.2     1  UNL1        0.0806
     19 C          -8.8886  -18.4234   20.3984 C.3     1  UNL1        0.1023
     20 C          -8.9497  -21.4619   17.8816 C.3     1  UNL1        0.2522
     21 O          -8.6858  -20.0831   18.4099 O.2     1  UNL1       -0.4715
     22 N          -3.5910  -17.8696   23.9285 N.pl3   1  UNL1       -0.2127
     23 H          -3.1961  -18.4188   24.6438 H       1  UNL1        0.1738
     24 S          -3.0107  -17.9085   22.5459 S.O2    1  UNL1        0.0758
     25 O          -2.8833  -16.4141   22.5572 O.2     1  UNL1       -0.1499
     26 O          -3.1380  -19.4031   22.5345 O.2     1  UNL1       -0.1499
     27 C          -2.4303  -17.9476   21.1632 C.ar    1  UNL1        0.1524
     28 C          -1.0720  -17.3666   20.9034 C.ar    1  UNL1        0.0225
     29 C          -0.4915  -17.4056   19.5208 C.ar    1  UNL1        0.0015
     30 C          -1.2694  -18.0256   18.3980 C.ar    1  UNL1        0.0024
     31 C          -2.6277  -18.6065   18.6578 C.ar    1  UNL1        0.0310
     32 C          -3.2081  -18.5675   20.0404 C.ar    1  UNL1        0.1589
     33 F          -4.5664  -19.1485   20.3003 F       1  UNL1       -0.2027
@<TRIPOS>BOND
     1    20    21    1
     2    21    11    1
     3    11    12    2
     4    12    13    1
     5    13    14    2
     6    14    15    1
     7    15    16    2
     8    16    17    1
     9    17     9    1
    10     9    10    2
    11     9     1    1
    12     1     2   ar
    13     2     3    1
    14     2     4   ar
    15     4     5   ar
    16     5     6   ar
    17     6    22    1
    18    22    24    1
    19    24    25    2
    20    24    26    2
    21    24    27    1
    22    27    28   ar
    23    28    29   ar
    24    29    30   ar
    25    30    31   ar
    26    31    32   ar
    27    32    33    1
    28     6     7   ar
    29     7     8    1
    30    17    18    2
    31    18    19    1
    32    19    11    1
    33    18    14    1
    34     7     1   ar
    35    32    27   ar
    36    22    23    1
@<TRIPOS>MOLECULE
*****
 33 36 0 0 0
SMALL
GASTEIGER

@<TRIPOS>ATOM
      1 C          -7.2991  -20.3830   20.1153 C.ar    1  UNL1        0.0951
      2 C          -7.6166  -21.1899   18.8913 C.ar    1  UNL1        0.1454
      3 F          -6.6926  -22.2888   18.4570 F       1  UNL1       -0.2040
      4 C          -8.8581  -20.8979   18.1017 C.ar    1  UNL1        0.0312
      5 C          -9.7821  -19.7990   18.5360 C.ar    1  UNL1        0.0204
      6 C          -9.4645  -18.9921   19.7600 C.ar    1  UNL1        0.0924
      7 C          -8.2230  -19.2841   20.5497 C.ar    1  UNL1        0.1598
      8 F          -7.9056  -18.4772   21.7736 F       1  UNL1       -0.2026
      9 C          -6.0576  -20.6750   20.9049 C.2     1  UNL1        0.2036
     10 O          -6.0821  -21.7183   21.9824 O.2     1  UNL1       -0.2863
     11 C          -3.9217  -17.0035   23.2868 C.2     1  UNL1        0.1673
     12 C          -2.6483  -16.5502   22.6365 C.2     1  UNL1        0.2683
     13 N          -2.1653  -17.2209   21.3847 N.2     1  UNL1       -0.0278
     14 C          -2.9558  -18.3449   20.7833 C.2     1  UNL1        0.3723
     15 N          -2.7312  -19.1903   19.5648 N.2     1  UNL1       -0.0307
     16 C          -3.8658  -20.1661   19.4620 C.2     1  UNL1        0.2390
     17 C          -4.7917  -19.9238   20.6170 C.2     1  UNL1        0.0897
     18 C          -4.2292  -18.7982   21.4336 C.2     1  UNL1        0.0806
     19 C          -4.7121  -18.1274   22.6854 C.3     1  UNL1        0.1023
     20 C          -5.5845  -15.4081   24.4866 C.3     1  UNL1        0.2522
     21 O          -4.4046  -16.3327   24.5386 O.2     1  UNL1       -0.4715
     22 N         -10.3885  -17.8932   20.1944 N.pl3   1  UNL1       -0.2127
     23 H         -10.4681  -17.0745   19.6534 H       1  UNL1        0.1738
     24 S         -11.1911  -18.0416   21.4528 S.O2    1  UNL1        0.0758
     25 O         -10.6594  -16.7290   21.9469 O.2     1  UNL1       -0.1499
     26 O         -11.7228  -19.3544   20.9589 O.2     1  UNL1       -0.1499
     27 C         -11.9937  -18.1902   22.7114 C.ar    1  UNL1        0.1524
     28 C         -13.4403  -17.7939   22.7294 C.ar    1  UNL1        0.0225
     29 C         -14.2430  -17.9424   23.9878 C.ar    1  UNL1        0.0015
     30 C         -13.5991  -18.4872   25.2282 C.ar    1  UNL1        0.0024
     31 C         -12.1525  -18.8835   25.2102 C.ar    1  UNL1        0.0310
     32 C         -11.3498  -18.7350   23.9518 C.ar    1  UNL1        0.1589
     33 F          -9.9033  -19.1313   23.9337 F       1  UNL1       -0.2027
@<TRIPOS>BOND
     1    20    21    1
     2    21    11    1
     3    11    12    2
     4    12    13    1
     5    13    14    2
     6    14    15    1
     7    15    16    2
     8    16    17    1
     9    17     9    1
    10     9    10    2
    11     9     1    1
    12     1     2   ar
    13     2     3    1
    14     2     4   ar
    15     4     5   ar
    16     5     6   ar
    17     6    22    1
    18    22    24    1
    19    24    25    2
    20    24    26    2
    21    24    27    1
    22    27    28   ar
    23    28    29   ar
    24    29    30   ar
    25    30    31   ar
    26    31    32   ar
    27    32    33    1
    28     6     7   ar
    29     7     8    1
    30    17    18    2
    31    18    19    1
    32    19    11    1
    33    18    14    1
    34     7     1   ar
    35    32    27   ar
    36    22    23    1
