@<TRIPOS>MOLECULE
*****
 39 42 0 0 0
SMALL
GASTEIGER

@<TRIPOS>ATOM
      1 N          -6.6676  -20.0543   21.5813 N.am    1  UNL1       -0.2683
      2 C          -7.5137  -19.7997   20.3691 C.2     1  UNL1        0.3044
      3 O          -7.2351  -18.6124   19.4958 O.2     1  UNL1       -0.2525
      4 N          -8.6385  -20.7325   20.0303 N.am    1  UNL1       -0.2903
      5 H          -6.8505  -20.8335   22.1544 H       1  UNL1        0.1564
      6 H          -8.8214  -21.5118   20.6034 H       1  UNL1        0.1509
      7 C          -4.5564  -17.2328   23.4067 C.ar    1  UNL1       -0.0212
      8 C          -5.6811  -18.1656   23.0679 C.ar    1  UNL1        0.0104
      9 C          -5.5428  -19.1214   21.9201 C.ar    1  UNL1        0.0514
     10 C          -4.2799  -19.1444   21.1112 C.ar    1  UNL1        0.0178
     11 C          -3.1552  -18.2116   21.4500 C.ar    1  UNL1        0.0383
     12 C          -3.2934  -17.2558   22.5978 C.ar    1  UNL1       -0.0011
     13 C          -1.8921  -18.2345   20.6411 C.ar    1  UNL1        0.1839
     14 N          -0.5596  -18.7470   21.1013 N.ar    1  UNL1       -0.1081
     15 N           0.4162  -18.5782   19.9746 N.ar    1  UNL1       -0.0227
     16 N          -0.3133  -17.9614   18.8181 N.ar    1  UNL1       -0.0429
     17 N          -1.7399  -17.7490   19.2300 N.ar    1  UNL1       -0.2113
     18 C          -2.8239  -17.1553   18.3801 C.3     1  UNL1        0.1573
     19 C          -4.4560  -16.7505   25.9576 C.3     1  UNL1        0.0047
     20 C          -4.6946  -16.2771   24.5545 C.3     1  UNL1        0.0224
     21 C          -5.0714  -14.8478   24.2991 C.3     1  UNL1        0.0047
     22 C          -9.4846  -20.4780   18.8181 C.3     1  UNL1        0.0745
     23 C          -9.1059  -21.0829   17.4987 C.3     1  UNL1        0.0214
     24 C         -10.7093  -19.6186   18.9253 C.3     1  UNL1        0.0369
     25 C         -10.6456  -18.3099   19.6555 C.3     1  UNL1        0.0738
     26 N         -11.2421  -18.1861   21.0263 N.3     1  UNL1       -0.2726
     27 C         -12.6700  -17.7559   21.1869 C.3     1  UNL1        0.0721
     28 C         -13.2664  -17.6321   22.5576 C.3     1  UNL1        0.0174
     29 C         -12.4348  -17.9386   23.7678 C.3     1  UNL1        0.0031
     30 C         -11.0069  -18.3689   23.6073 C.3     1  UNL1        0.0204
     31 C         -10.4105  -18.4926   22.2365 C.3     1  UNL1        0.0724
     32 C         -10.1753  -18.6754   24.8174 C.3     1  UNL1        0.0277
     33 C          -9.4018  -17.5818   25.4925 C.ar    1  UNL1       -0.0220
     34 C          -8.9640  -16.3795   24.7097 C.ar    1  UNL1       -0.0020
     35 C          -8.1905  -15.2859   25.3848 C.ar    1  UNL1        0.0293
     36 C          -7.8548  -15.3946   26.8427 C.ar    1  UNL1        0.1401
     37 F          -7.0813  -14.3010   27.5178 F       1  UNL1       -0.2042
     38 C          -8.2926  -16.5969   27.6255 C.ar    1  UNL1        0.0293
     39 C          -9.0661  -17.6906   26.9504 C.ar    1  UNL1       -0.0020
@<TRIPOS>BOND
     1    19    20    1
     2    20    21    1
     3    20     7    1
     4     7     8   ar
     5     8     9   ar
     6     9     1    1
     7     1     2   am
     8     2     3    2
     9     2     4   am
    10     4    22    1
    11    22    23    1
    12    22    24    1
    13    24    25    1
    14    25    26    1
    15    26    27    1
    16    27    28    1
    17    28    29    1
    18    29    30    1
    19    30    32    1
    20    32    33    1
    21    33    34   ar
    22    34    35   ar
    23    35    36   ar
    24    36    37    1
    25    36    38   ar
    26    38    39   ar
    27    30    31    1
    28     9    10   ar
    29    10    11   ar
    30    11    13    1
    31    13    14   ar
    32    14    15   ar
    33    15    16   ar
    34    16    17   ar
    35    17    18    1
    36    11    12   ar
    37    12     7   ar
    38    31    26    1
    39    17    13   ar
    40    39    33   ar
    41     1     5    1
    42     4     6    1
@<TRIPOS>MOLECULE
*****
 39 42 0 0 0
SMALL
GASTEIGER

@<TRIPOS>ATOM
      1 N          -4.7525  -20.3074   20.4520 N.am    1  UNL1       -0.2683
      2 C          -3.9442  -19.2016   19.8407 C.2     1  UNL1        0.3044
      3 O          -4.6304  -17.9846   19.2946 O.2     1  UNL1       -0.2525
      4 N          -2.4498  -19.3126   19.7754 N.am    1  UNL1       -0.2903
      5 H          -4.3022  -21.1061   20.8105 H       1  UNL1        0.1564
      6 H          -1.9994  -20.1114   20.1338 H       1  UNL1        0.1509
      7 C          -8.5645  -20.3056   19.3480 C.ar    1  UNL1       -0.0212
      8 C          -7.0701  -20.4167   19.2828 C.ar    1  UNL1        0.0104
      9 C          -6.2470  -20.1963   20.5173 C.ar    1  UNL1        0.0514
     10 C          -6.9184  -19.8647   21.8170 C.ar    1  UNL1        0.0178
     11 C          -8.4128  -19.7536   21.8822 C.ar    1  UNL1        0.0383
     12 C          -9.2359  -19.9740   20.6477 C.ar    1  UNL1       -0.0011
     13 C          -9.0842  -19.4220   23.1820 C.ar    1  UNL1        0.1839
     14 N          -9.1527  -20.3082   24.3903 N.ar    1  UNL1       -0.1081
     15 N          -9.9158  -19.5800   25.4567 N.ar    1  UNL1       -0.0227
     16 N         -10.3190  -18.2436   24.9075 N.ar    1  UNL1       -0.0429
     17 N          -9.8051  -18.1460   23.5017 N.ar    1  UNL1       -0.2113
     18 C          -9.9811  -16.9775   22.5777 C.3     1  UNL1        0.1573
     19 C          -8.8801  -21.4235   17.0241 C.3     1  UNL1        0.0047
     20 C          -9.3876  -20.5260   18.1135 C.3     1  UNL1        0.0224
     21 C         -10.7182  -19.8490   17.9685 C.3     1  UNL1        0.0047
     22 C          -1.6415  -18.2068   19.1640 C.3     1  UNL1        0.0745
     23 C          -1.9008  -17.7824   17.7488 C.3     1  UNL1        0.0214
     24 C          -0.5740  -17.5254   19.9678 C.3     1  UNL1        0.0369
     25 C          -0.9518  -16.5395   21.0333 C.3     1  UNL1        0.0738
     26 N          -2.0805  -16.8460   21.9725 N.3     1  UNL1       -0.2726
     27 C          -2.1797  -18.2005   22.6091 C.3     1  UNL1        0.0721
     28 C          -3.3084  -18.5070   23.5483 C.3     1  UNL1        0.0174
     29 C          -4.3379  -17.4589   23.8509 C.3     1  UNL1        0.0031
     30 C          -4.2388  -16.1043   23.2142 C.3     1  UNL1        0.0204
     31 C          -3.1100  -15.7979   22.2751 C.3     1  UNL1        0.0724
     32 C          -5.2683  -15.0562   23.5168 C.3     1  UNL1        0.0277
     33 C          -6.1748  -15.2152   24.7012 C.ar    1  UNL1       -0.0220
     34 C          -5.5945  -15.3348   26.0792 C.ar    1  UNL1       -0.0020
     35 C          -6.5010  -15.4938   27.2636 C.ar    1  UNL1        0.0293
     36 C          -7.9879  -15.5332   27.0701 C.ar    1  UNL1        0.1401
     37 F          -8.8945  -15.6922   28.2546 F       1  UNL1       -0.2042
     38 C          -8.5683  -15.4137   25.6921 C.ar    1  UNL1        0.0293
     39 C          -7.6618  -15.2547   24.5076 C.ar    1  UNL1       -0.0020
@<TRIPOS>BOND
     1    19    20    1
     2    20    21    1
     3    20     7    1
     4     7     8   ar
     5     8     9   ar
     6     9     1    1
     7     1     2   am
     8     2     3    2
     9     2     4   am
    10     4    22    1
    11    22    23    1
    12    22    24    1
    13    24    25    1
    14    25    26    1
    15    26    27    1
    16    27    28    1
    17    28    29    1
    18    29    30    1
    19    30    32    1
    20    32    33    1
    21    33    34   ar
    22    34    35   ar
    23    35    36   ar
    24    36    37    1
    25    36    38   ar
    26    38    39   ar
    27    30    31    1
    28     9    10   ar
    29    10    11   ar
    30    11    13    1
    31    13    14   ar
    32    14    15   ar
    33    15    16   ar
    34    16    17   ar
    35    17    18    1
    36    11    12   ar
    37    12     7   ar
    38    31    26    1
    39    17    13   ar
    40    39    33   ar
    41     1     5    1
    42     4     6    1
@<TRIPOS>MOLECULE
*****
 39 42 0 0 0
SMALL
GASTEIGER

@<TRIPOS>ATOM
      1 N           5.0919   -3.3493   32.9887 N.am    1  UNL1       -0.2683
      2 C           6.2350   -3.6624   32.0692 C.2     1  UNL1        0.3044
      3 O           6.8952   -2.5624   31.2920 O.2     1  UNL1       -0.2525
      4 N           6.7178   -5.0754   31.9271 N.am    1  UNL1       -0.2903
      5 H           4.6585   -4.0713   33.4988 H       1  UNL1        0.1564
      6 H           6.2844   -5.7974   32.4372 H       1  UNL1        0.1509
      7 C           4.4404    0.2551   34.5163 C.ar    1  UNL1       -0.0212
      8 C           4.9231   -1.1579   34.3741 C.ar    1  UNL1        0.0104
      9 C           4.6091   -1.9362   33.1309 C.ar    1  UNL1        0.0514
     10 C           3.8123   -1.3015   32.0298 C.ar    1  UNL1        0.0178
     11 C           3.3296    0.1115   32.1721 C.ar    1  UNL1        0.0383
     12 C           3.6436    0.8898   33.4153 C.ar    1  UNL1       -0.0011
     13 C           2.5328    0.7462   31.0710 C.ar    1  UNL1        0.1839
     14 N           1.0962    1.1698   31.1537 N.ar    1  UNL1       -0.1081
     15 N           0.7082    1.7542   29.8278 N.ar    1  UNL1       -0.0227
     16 N           1.9050    1.6918   28.9257 N.ar    1  UNL1       -0.0429
     17 N           3.0326    1.0689   29.6941 N.ar    1  UNL1       -0.2113
     18 C           4.4171    0.8135   29.1763 C.3     1  UNL1        0.1573
     19 C           4.3864    0.4797   37.1041 C.3     1  UNL1        0.0047
     20 C           4.7544    1.0334   35.7595 C.3     1  UNL1        0.0224
     21 C           5.4364    2.3655   35.6582 C.3     1  UNL1        0.0047
     22 C           7.8609   -5.3885   31.0076 C.3     1  UNL1        0.0745
     23 C           9.2628   -5.0341   31.4064 C.3     1  UNL1        0.0214
     24 C           7.6020   -6.0559   29.6895 C.3     1  UNL1        0.0369
     25 C           7.1718   -5.2394   28.5070 C.3     1  UNL1        0.0738
     26 N           7.4538   -5.7266   27.1166 N.3     1  UNL1       -0.2726
     27 C           7.5943   -7.1962   26.8509 C.3     1  UNL1        0.0721
     28 C           7.8762   -7.6833   25.4606 C.3     1  UNL1        0.0174
     29 C           8.0177   -6.7009   24.3359 C.3     1  UNL1        0.0031
     30 C           7.8771   -5.2314   24.6016 C.3     1  UNL1        0.0204
     31 C           7.5952   -4.7442   25.9919 C.3     1  UNL1        0.0724
     32 C           8.0185   -4.2490   23.4769 C.3     1  UNL1        0.0277
     33 C           6.8644   -3.9954   22.5530 C.ar    1  UNL1       -0.0220
     34 C           5.5079   -3.6875   23.1143 C.ar    1  UNL1       -0.0020
     35 C           4.3538   -3.4339   22.1904 C.ar    1  UNL1        0.0293
     36 C           4.5561   -3.4883   20.7051 C.ar    1  UNL1        0.1401
     37 F           3.4019   -3.2347   19.7812 F       1  UNL1       -0.2042
     38 C           5.9126   -3.7962   20.1438 C.ar    1  UNL1        0.0293
     39 C           7.0668   -4.0498   21.0677 C.ar    1  UNL1       -0.0020
@<TRIPOS>BOND
     1    19    20    1
     2    20    21    1
     3    20     7    1
     4     7     8   ar
     5     8     9   ar
     6     9     1    1
     7     1     2   am
     8     2     3    2
     9     2     4   am
    10     4    22    1
    11    22    23    1
    12    22    24    1
    13    24    25    1
    14    25    26    1
    15    26    27    1
    16    27    28    1
    17    28    29    1
    18    29    30    1
    19    30    32    1
    20    32    33    1
    21    33    34   ar
    22    34    35   ar
    23    35    36   ar
    24    36    37    1
    25    36    38   ar
    26    38    39   ar
    27    30    31    1
    28     9    10   ar
    29    10    11   ar
    30    11    13    1
    31    13    14   ar
    32    14    15   ar
    33    15    16   ar
    34    16    17   ar
    35    17    18    1
    36    11    12   ar
    37    12     7   ar
    38    31    26    1
    39    17    13   ar
    40    39    33   ar
    41     1     5    1
    42     4     6    1
@<TRIPOS>MOLECULE
*****
 39 42 0 0 0
SMALL
GASTEIGER

@<TRIPOS>ATOM
      1 N          -0.7400    1.2521   20.5319 N.am    1  UNL1       -0.2683
      2 C          -0.9556    2.7365   20.5356 C.2     1  UNL1        0.3044
      3 O           0.1786    3.6583   20.8738 O.2     1  UNL1       -0.2525
      4 N          -2.3052    3.2992   20.2012 N.am    1  UNL1       -0.2903
      5 H          -1.4843    0.6471   20.3099 H       1  UNL1        0.1564
      6 H          -3.0495    2.6943   19.9793 H       1  UNL1        0.1509
      7 C           2.3915    0.0152   22.6328 C.ar    1  UNL1       -0.0212
      8 C           1.0419    0.5778   22.2983 C.ar    1  UNL1        0.0104
      9 C           0.6097    0.6894   20.8663 C.ar    1  UNL1        0.0514
     10 C           1.5272    0.2384   19.7687 C.ar    1  UNL1        0.0178
     11 C           2.8768   -0.3242   20.1031 C.ar    1  UNL1        0.0383
     12 C           3.3090   -0.4359   21.5352 C.ar    1  UNL1       -0.0011
     13 C           3.7944   -0.7753   19.0055 C.ar    1  UNL1        0.1839
     14 N           4.5566    0.1169   18.0711 N.ar    1  UNL1       -0.1081
     15 N           5.3441   -0.7540   17.1377 N.ar    1  UNL1       -0.0227
     16 N           5.0686   -2.1846   17.4953 N.ar    1  UNL1       -0.0429
     17 N           4.1109   -2.1976   18.6496 N.ar    1  UNL1       -0.2113
     18 C           3.5654   -3.4188   19.3288 C.3     1  UNL1        0.1573
     19 C           2.2959    0.8684   25.0849 C.3     1  UNL1        0.0047
     20 C           2.8237   -0.0965   24.0649 C.3     1  UNL1        0.0224
     21 C           3.7836   -1.1729   24.4769 C.3     1  UNL1        0.0047
     22 C          -2.5208    4.7837   20.2049 C.3     1  UNL1        0.0745
     23 C          -2.2754    5.5803   18.9578 C.3     1  UNL1        0.0214
     24 C          -2.9816    5.4714   21.4557 C.3     1  UNL1        0.0369
     25 C          -4.0548    4.8514   22.3006 C.3     1  UNL1        0.0738
     26 N          -3.7482    4.4181   23.7036 N.3     1  UNL1       -0.2726
     27 C          -4.6934    4.7589   24.8173 C.3     1  UNL1        0.0721
     28 C          -4.3867    4.3255   26.2202 C.3     1  UNL1        0.0174
     29 C          -3.1348    3.5514   26.5094 C.3     1  UNL1        0.0031
     30 C          -2.1896    3.2107   25.3956 C.3     1  UNL1        0.0204
     31 C          -2.4963    3.6440   23.9928 C.3     1  UNL1        0.0724
     32 C          -0.9378    2.4365   25.6848 C.3     1  UNL1        0.0277
     33 C          -0.4911    2.2351   27.1025 C.ar    1  UNL1       -0.0220
     34 C           0.3461    3.2788   27.7806 C.ar    1  UNL1       -0.0020
     35 C           0.7927    3.0774   29.1983 C.ar    1  UNL1        0.0293
     36 C           0.4022    1.8322   29.9379 C.ar    1  UNL1        0.1401
     37 F           0.8489    1.6308   31.3557 F       1  UNL1       -0.2042
     38 C          -0.4350    0.7885   29.2599 C.ar    1  UNL1        0.0293
     39 C          -0.8817    0.9899   27.8421 C.ar    1  UNL1       -0.0020
@<TRIPOS>BOND
     1    19    20    1
     2    20    21    1
     3    20     7    1
     4     7     8   ar
     5     8     9   ar
     6     9     1    1
     7     1     2   am
     8     2     3    2
     9     2     4   am
    10     4    22    1
    11    22    23    1
    12    22    24    1
    13    24    25    1
    14    25    26    1
    15    26    27    1
    16    27    28    1
    17    28    29    1
    18    29    30    1
    19    30    32    1
    20    32    33    1
    21    33    34   ar
    22    34    35   ar
    23    35    36   ar
    24    36    37    1
    25    36    38   ar
    26    38    39   ar
    27    30    31    1
    28     9    10   ar
    29    10    11   ar
    30    11    13    1
    31    13    14   ar
    32    14    15   ar
    33    15    16   ar
    34    16    17   ar
    35    17    18    1
    36    11    12   ar
    37    12     7   ar
    38    31    26    1
    39    17    13   ar
    40    39    33   ar
    41     1     5    1
    42     4     6    1
@<TRIPOS>MOLECULE
*****
 39 42 0 0 0
SMALL
GASTEIGER

@<TRIPOS>ATOM
      1 N           4.6636   -2.2218   33.6242 N.am    1  UNL1       -0.2683
      2 C           5.7780   -2.4277   32.6415 C.2     1  UNL1        0.3044
      3 O           6.5356   -1.2478   32.1085 O.2     1  UNL1       -0.2525
      4 N           6.1349   -3.8135   32.1918 N.am    1  UNL1       -0.2903
      5 H           4.1664   -2.9962   33.9740 H       1  UNL1        0.1564
      6 H           5.6377   -4.5879   32.5416 H       1  UNL1        0.1509
      7 C           3.2335    1.4800   33.5900 C.ar    1  UNL1       -0.0212
      8 C           3.5903    0.0943   33.1403 C.ar    1  UNL1        0.0104
      9 C           4.3067   -0.8360   34.0739 C.ar    1  UNL1        0.0514
     10 C           4.6662   -0.3804   35.4570 C.ar    1  UNL1        0.0178
     11 C           4.3093    1.0053   35.9067 C.ar    1  UNL1        0.0383
     12 C           3.5929    1.9356   34.9731 C.ar    1  UNL1       -0.0011
     13 C           4.6688    1.4609   37.2899 C.ar    1  UNL1        0.1839
     14 N           5.9905    2.0282   37.7157 N.ar    1  UNL1       -0.1081
     15 N           5.9083    2.3471   39.1791 N.ar    1  UNL1       -0.0227
     16 N           4.5358    1.9769   39.6577 N.ar    1  UNL1       -0.0429
     17 N           3.7697    1.4292   38.4902 N.ar    1  UNL1       -0.2113
     18 C           2.3533    0.9363   38.5180 C.3     1  UNL1        0.1573
     19 C           3.2140    3.6310   32.1329 C.3     1  UNL1        0.0047
     20 C           2.5171    2.4103   32.6564 C.3     1  UNL1        0.0224
     21 C           1.1038    2.1198   32.2464 C.3     1  UNL1        0.0047
     22 C           7.2493   -4.0194   31.2091 C.3     1  UNL1        0.0745
     23 C           8.6585   -4.1828   31.6966 C.3     1  UNL1        0.0214
     24 C           6.9546   -4.0619   29.7390 C.3     1  UNL1        0.0369
     25 C           7.1137   -2.8246   28.9061 C.3     1  UNL1        0.0738
     26 N           5.9065   -2.1556   28.3187 N.3     1  UNL1       -0.2726
     27 C           5.6935   -2.1620   26.8339 C.3     1  UNL1        0.0721
     28 C           4.4862   -1.4929   26.2466 C.3     1  UNL1        0.0174
     29 C           3.4920   -0.8175   27.1440 C.3     1  UNL1        0.0031
     30 C           3.7051   -0.8111   28.6288 C.3     1  UNL1        0.0204
     31 C           4.9123   -1.4802   29.2161 C.3     1  UNL1        0.0724
     32 C           2.7109   -0.1357   29.5262 C.3     1  UNL1        0.0277
     33 C           1.5125    0.5479   28.9377 C.ar    1  UNL1       -0.0220
     34 C           0.2063   -0.1828   28.8368 C.ar    1  UNL1       -0.0020
     35 C          -0.9920    0.5009   28.2483 C.ar    1  UNL1        0.0293
     36 C          -0.8844    1.9153   27.7606 C.ar    1  UNL1        0.1401
     37 F          -2.0828    2.5990   27.1720 F       1  UNL1       -0.2042
     38 C           0.4217    2.6460   27.8614 C.ar    1  UNL1        0.0293
     39 C           1.6202    1.9623   28.4500 C.ar    1  UNL1       -0.0020
@<TRIPOS>BOND
     1    19    20    1
     2    20    21    1
     3    20     7    1
     4     7     8   ar
     5     8     9   ar
     6     9     1    1
     7     1     2   am
     8     2     3    2
     9     2     4   am
    10     4    22    1
    11    22    23    1
    12    22    24    1
    13    24    25    1
    14    25    26    1
    15    26    27    1
    16    27    28    1
    17    28    29    1
    18    29    30    1
    19    30    32    1
    20    32    33    1
    21    33    34   ar
    22    34    35   ar
    23    35    36   ar
    24    36    37    1
    25    36    38   ar
    26    38    39   ar
    27    30    31    1
    28     9    10   ar
    29    10    11   ar
    30    11    13    1
    31    13    14   ar
    32    14    15   ar
    33    15    16   ar
    34    16    17   ar
    35    17    18    1
    36    11    12   ar
    37    12     7   ar
    38    31    26    1
    39    17    13   ar
    40    39    33   ar
    41     1     5    1
    42     4     6    1
@<TRIPOS>MOLECULE
*****
 39 42 0 0 0
SMALL
GASTEIGER

@<TRIPOS>ATOM
      1 N           8.0224   -3.7832   28.1753 N.am    1  UNL1       -0.2683
      2 C           7.6368   -5.1254   27.6276 C.2     1  UNL1        0.3044
      3 O           6.1894   -5.5054   27.5240 O.2     1  UNL1       -0.2525
      4 N           8.6985   -6.0874   27.1834 N.am    1  UNL1       -0.2903
      5 H           8.9724   -3.5338   28.2433 H       1  UNL1        0.1564
      6 H           9.6485   -5.8379   27.2514 H       1  UNL1        0.1509
      7 C           5.2023   -0.9934   28.0559 C.ar    1  UNL1       -0.0212
      8 C           6.2641   -1.9554   27.6119 C.ar    1  UNL1        0.0104
      9 C           6.9607   -2.8212   28.6195 C.ar    1  UNL1        0.0514
     10 C           6.5955   -2.7250   30.0711 C.ar    1  UNL1        0.0178
     11 C           5.5338   -1.7630   30.5152 C.ar    1  UNL1        0.0383
     12 C           4.8372   -0.8972   29.5076 C.ar    1  UNL1       -0.0011
     13 C           5.1685   -1.6667   31.9669 C.ar    1  UNL1        0.1839
     14 N           4.0367   -2.3843   32.6408 N.ar    1  UNL1       -0.1081
     15 N           4.0396   -1.9971   34.0899 N.ar    1  UNL1       -0.0227
     16 N           5.1734   -1.0402   34.3117 N.ar    1  UNL1       -0.0429
     17 N           5.8710   -0.8361   32.9996 N.ar    1  UNL1       -0.2113
     18 C           7.0621    0.0442   32.7620 C.3     1  UNL1        0.1573
     19 C           5.2969    0.5586   25.9746 C.3     1  UNL1        0.0047
     20 C           4.5058   -0.1277   27.0484 C.3     1  UNL1        0.0224
     21 C           3.0181    0.0518   27.1145 C.3     1  UNL1        0.0047
     22 C           8.3129   -7.4295   26.6357 C.3     1  UNL1        0.0745
     23 C           8.4231   -8.6515   27.4986 C.3     1  UNL1        0.0214
     24 C           7.8172   -7.5496   25.2251 C.3     1  UNL1        0.0369
     25 C           8.4264   -6.7096   24.1419 C.3     1  UNL1        0.0738
     26 N           8.1582   -5.2344   24.0964 N.3     1  UNL1       -0.2726
     27 C           9.2990   -4.2683   23.9732 C.3     1  UNL1        0.0721
     28 C           9.0308   -2.7932   23.9278 C.3     1  UNL1        0.0174
     29 C           7.6219   -2.2842   24.0055 C.3     1  UNL1        0.0031
     30 C           6.4812   -3.2504   24.1287 C.3     1  UNL1        0.0204
     31 C           6.7494   -4.7255   24.1741 C.3     1  UNL1        0.0724
     32 C           5.0723   -2.7415   24.2064 C.3     1  UNL1        0.0277
     33 C           4.3689   -2.2881   22.9615 C.ar    1  UNL1       -0.0220
     34 C           4.6249   -2.9864   21.6588 C.ar    1  UNL1       -0.0020
     35 C           3.9215   -2.5331   20.4140 C.ar    1  UNL1        0.0293
     36 C           2.9621   -1.3814   20.4718 C.ar    1  UNL1        0.1401
     37 F           2.2587   -0.9281   19.2268 F       1  UNL1       -0.2042
     38 C           2.7061   -0.6832   21.7744 C.ar    1  UNL1        0.0293
     39 C           3.4095   -1.1365   23.0193 C.ar    1  UNL1       -0.0020
@<TRIPOS>BOND
     1    19    20    1
     2    20    21    1
     3    20     7    1
     4     7     8   ar
     5     8     9   ar
     6     9     1    1
     7     1     2   am
     8     2     3    2
     9     2     4   am
    10     4    22    1
    11    22    23    1
    12    22    24    1
    13    24    25    1
    14    25    26    1
    15    26    27    1
    16    27    28    1
    17    28    29    1
    18    29    30    1
    19    30    32    1
    20    32    33    1
    21    33    34   ar
    22    34    35   ar
    23    35    36   ar
    24    36    37    1
    25    36    38   ar
    26    38    39   ar
    27    30    31    1
    28     9    10   ar
    29    10    11   ar
    30    11    13    1
    31    13    14   ar
    32    14    15   ar
    33    15    16   ar
    34    16    17   ar
    35    17    18    1
    36    11    12   ar
    37    12     7   ar
    38    31    26    1
    39    17    13   ar
    40    39    33   ar
    41     1     5    1
    42     4     6    1
@<TRIPOS>MOLECULE
*****
 39 42 0 0 0
SMALL
GASTEIGER

@<TRIPOS>ATOM
      1 N          -4.3694    3.2548   20.5509 N.am    1  UNL1       -0.2683
      2 C          -3.3527    4.0882   19.8286 C.2     1  UNL1        0.3044
      3 O          -2.6570    5.2087   20.5432 O.2     1  UNL1       -0.2525
      4 N          -3.0316    3.8011   18.3918 N.am    1  UNL1       -0.2903
      5 H          -4.8260    2.5194   20.0819 H       1  UNL1        0.1564
      6 H          -3.4882    3.0657   17.9228 H       1  UNL1        0.1509
      7 C          -3.9541    3.6673   24.4761 C.ar    1  UNL1       -0.0212
      8 C          -3.6331    3.3802   23.0393 C.ar    1  UNL1        0.0104
      9 C          -4.6905    3.5420   21.9878 C.ar    1  UNL1        0.0514
     10 C          -6.0689    3.9908   22.3730 C.ar    1  UNL1        0.0178
     11 C          -6.3899    4.2780   23.8098 C.ar    1  UNL1        0.0383
     12 C          -5.3325    4.1162   24.8614 C.ar    1  UNL1       -0.0011
     13 C          -7.7684    4.7269   24.1951 C.ar    1  UNL1        0.1839
     14 N          -9.0502    4.0219   23.8633 N.ar    1  UNL1       -0.1081
     15 N         -10.1810    4.8188   24.4430 N.ar    1  UNL1       -0.0227
     16 N          -9.5981    6.0163   25.1331 N.ar    1  UNL1       -0.0429
     17 N          -8.1071    5.9595   24.9800 N.ar    1  UNL1       -0.2113
     18 C          -7.1268    6.9597   25.5173 C.3     1  UNL1        0.1573
     19 C          -1.5195    3.0525   25.1430 C.3     1  UNL1        0.0047
     20 C          -2.8967    3.5056   25.5277 C.3     1  UNL1        0.0224
     21 C          -3.2166    3.7969   26.9639 C.3     1  UNL1        0.0047
     22 C          -2.0149    4.6345   17.6695 C.3     1  UNL1        0.0745
     23 C          -2.4555    5.8086   16.8465 C.3     1  UNL1        0.0214
     24 C          -0.5576    4.2938   17.7702 C.3     1  UNL1        0.0369
     25 C          -0.1186    2.8598   17.7383 C.3     1  UNL1        0.0738
     26 N           0.5314    2.2474   18.9435 N.3     1  UNL1       -0.2726
     27 C          -0.2044    2.2001   20.2498 C.3     1  UNL1        0.0721
     28 C           0.4457    1.5877   21.4549 C.3     1  UNL1        0.0174
     29 C           1.8315    1.0227   21.3538 C.3     1  UNL1        0.0031
     30 C           2.5673    1.0701   20.0476 C.3     1  UNL1        0.0204
     31 C           1.9173    1.6825   18.8425 C.3     1  UNL1        0.0724
     32 C           3.9532    0.5051   19.9465 C.3     1  UNL1        0.0277
     33 C           4.1535   -0.9174   19.5151 C.ar    1  UNL1       -0.0220
     34 C           5.3614   -1.2937   18.7091 C.ar    1  UNL1       -0.0020
     35 C           5.5617   -2.7163   18.2777 C.ar    1  UNL1        0.0293
     36 C           4.5543   -3.7626   18.6523 C.ar    1  UNL1        0.1401
     37 F           4.7548   -5.1852   18.2209 F       1  UNL1       -0.2042
     38 C           3.3466   -3.3864   19.4584 C.ar    1  UNL1        0.0293
     39 C           3.1462   -1.9637   19.8898 C.ar    1  UNL1       -0.0020
@<TRIPOS>BOND
     1    19    20    1
     2    20    21    1
     3    20     7    1
     4     7     8   ar
     5     8     9   ar
     6     9     1    1
     7     1     2   am
     8     2     3    2
     9     2     4   am
    10     4    22    1
    11    22    23    1
    12    22    24    1
    13    24    25    1
    14    25    26    1
    15    26    27    1
    16    27    28    1
    17    28    29    1
    18    29    30    1
    19    30    32    1
    20    32    33    1
    21    33    34   ar
    22    34    35   ar
    23    35    36   ar
    24    36    37    1
    25    36    38   ar
    26    38    39   ar
    27    30    31    1
    28     9    10   ar
    29    10    11   ar
    30    11    13    1
    31    13    14   ar
    32    14    15   ar
    33    15    16   ar
    34    16    17   ar
    35    17    18    1
    36    11    12   ar
    37    12     7   ar
    38    31    26    1
    39    17    13   ar
    40    39    33   ar
    41     1     5    1
    42     4     6    1
@<TRIPOS>MOLECULE
*****
 39 42 0 0 0
SMALL
GASTEIGER

@<TRIPOS>ATOM
      1 N          -0.1430    0.8101   20.8717 N.am    1  UNL1       -0.2683
      2 C          -0.1287    2.1830   20.2676 C.2     1  UNL1        0.3044
      3 O           1.1732    2.9006   20.0670 O.2     1  UNL1       -0.2525
      4 N          -1.4162    2.8384   19.8641 N.am    1  UNL1       -0.2903
      5 H          -0.9975    0.3391   21.0034 H       1  UNL1        0.1564
      6 H          -2.2707    2.3674   19.9958 H       1  UNL1        0.1509
      7 C           2.9807   -0.2897   23.0587 C.ar    1  UNL1       -0.0212
      8 C           1.6931    0.3656   22.6552 C.ar    1  UNL1        0.0104
      9 C           1.1446    0.1548   21.2752 C.ar    1  UNL1        0.0514
     10 C           1.8835   -0.7114   20.2986 C.ar    1  UNL1        0.0178
     11 C           3.1710   -1.3666   20.7021 C.ar    1  UNL1        0.0383
     12 C           3.7196   -1.1558   22.0822 C.ar    1  UNL1       -0.0011
     13 C           3.9100   -2.2328   19.7255 C.ar    1  UNL1        0.1839
     14 N           3.9043   -3.7326   19.6971 N.ar    1  UNL1       -0.1081
     15 N           4.7752   -4.1780   18.5599 N.ar    1  UNL1       -0.0227
     16 N           5.3192   -2.9535   17.8855 N.ar    1  UNL1       -0.0429
     17 N           4.7845   -1.7514   18.6059 N.ar    1  UNL1       -0.2113
     18 C           5.0735   -0.3192   18.2662 C.3     1  UNL1        0.1573
     19 C           3.8185   -1.2583   25.3192 C.3     1  UNL1        0.0047
     20 C           3.5292   -0.0788   24.4388 C.3     1  UNL1        0.0224
     21 C           3.7886    1.3115   24.9385 C.3     1  UNL1        0.0047
     22 C          -1.4019    4.2113   19.2601 C.3     1  UNL1        0.0745
     23 C          -1.3771    4.3744   17.7691 C.3     1  UNL1        0.0214
     24 C          -1.4123    5.4210   20.1468 C.3     1  UNL1        0.0369
     25 C          -2.6725    5.8204   20.8557 C.3     1  UNL1        0.0738
     26 N          -3.2359    4.9440   21.9349 N.3     1  UNL1       -0.2726
     27 C          -4.3726    4.0144   21.6289 C.3     1  UNL1        0.0721
     28 C          -4.9361    3.1381   22.7080 C.3     1  UNL1        0.0174
     29 C          -4.3628    3.1914   24.0931 C.3     1  UNL1        0.0031
     30 C          -3.2261    4.1211   24.3991 C.3     1  UNL1        0.0204
     31 C          -2.6627    4.9974   23.3200 C.3     1  UNL1        0.0724
     32 C          -2.6528    4.1744   25.7842 C.3     1  UNL1        0.0277
     33 C          -1.5608    3.2257   26.1810 C.ar    1  UNL1       -0.0220
     34 C          -1.0253    2.2398   25.1853 C.ar    1  UNL1       -0.0020
     35 C           0.0667    1.2911   25.5820 C.ar    1  UNL1        0.0293
     36 C           0.6232    1.3282   26.9745 C.ar    1  UNL1        0.1401
     37 F           1.7153    0.3794   27.3713 F       1  UNL1       -0.2042
     38 C           0.0877    2.3140   27.9702 C.ar    1  UNL1        0.0293
     39 C          -1.0043    3.2627   27.5734 C.ar    1  UNL1       -0.0020
@<TRIPOS>BOND
     1    19    20    1
     2    20    21    1
     3    20     7    1
     4     7     8   ar
     5     8     9   ar
     6     9     1    1
     7     1     2   am
     8     2     3    2
     9     2     4   am
    10     4    22    1
    11    22    23    1
    12    22    24    1
    13    24    25    1
    14    25    26    1
    15    26    27    1
    16    27    28    1
    17    28    29    1
    18    29    30    1
    19    30    32    1
    20    32    33    1
    21    33    34   ar
    22    34    35   ar
    23    35    36   ar
    24    36    37    1
    25    36    38   ar
    26    38    39   ar
    27    30    31    1
    28     9    10   ar
    29    10    11   ar
    30    11    13    1
    31    13    14   ar
    32    14    15   ar
    33    15    16   ar
    34    16    17   ar
    35    17    18    1
    36    11    12   ar
    37    12     7   ar
    38    31    26    1
    39    17    13   ar
    40    39    33   ar
    41     1     5    1
    42     4     6    1
@<TRIPOS>MOLECULE
*****
 39 42 0 0 0
SMALL
GASTEIGER

@<TRIPOS>ATOM
      1 N           4.6721   -2.4962   24.6429 N.am    1  UNL1       -0.2683
      2 C           6.0743   -2.2804   24.1558 C.2     1  UNL1        0.3044
      3 O           6.6802   -0.9088   24.1981 O.2     1  UNL1       -0.2525
      4 N           6.8707   -3.4361   23.6266 N.am    1  UNL1       -0.2903
      5 H           4.2744   -3.3964   24.6151 H       1  UNL1        0.1564
      6 H           6.4730   -4.3363   23.5988 H       1  UNL1        0.1509
      7 C           2.4215    0.7708   24.7505 C.ar    1  UNL1       -0.0212
      8 C           3.2178   -0.3849   24.2213 C.ar    1  UNL1        0.0104
      9 C           3.8757   -1.3404   25.1721 C.ar    1  UNL1        0.0514
     10 C           3.7374   -1.1401   26.6522 C.ar    1  UNL1        0.0178
     11 C           2.9411    0.0156   27.1814 C.ar    1  UNL1        0.0383
     12 C           2.2831    0.9711   26.2306 C.ar    1  UNL1       -0.0011
     13 C           2.8027    0.2159   28.6616 C.ar    1  UNL1        0.1839
     14 N           3.9106    0.5614   29.6119 N.ar    1  UNL1       -0.1081
     15 N           3.3248    0.6649   30.9889 N.ar    1  UNL1       -0.0227
     16 N           1.8548    0.3834   30.8896 N.ar    1  UNL1       -0.0429
     17 N           1.5321    0.1059   29.4512 N.ar    1  UNL1       -0.2113
     18 C           0.1768   -0.2236   28.8994 C.3     1  UNL1        0.1573
     19 C           2.5735    2.3972   22.7302 C.3     1  UNL1        0.0047
     20 C           1.7635    1.7263   23.7996 C.3     1  UNL1        0.0224
     21 C           0.2956    2.0108   23.9182 C.3     1  UNL1        0.0047
     22 C           8.2729   -3.2203   23.1395 C.3     1  UNL1        0.0745
     23 C           9.4125   -3.2112   24.1149 C.3     1  UNL1        0.0214
     24 C           8.5355   -3.0136   21.6773 C.3     1  UNL1        0.0369
     25 C           7.7334   -2.0076   20.9061 C.3     1  UNL1        0.0738
     26 N           6.4548   -2.4202   20.2389 N.3     1  UNL1       -0.2726
     27 C           5.9978   -3.8470   20.3109 C.3     1  UNL1        0.0721
     28 C           4.7193   -4.2596   19.6437 C.3     1  UNL1        0.0174
     29 C           3.8978   -3.2453   18.9045 C.3     1  UNL1        0.0031
     30 C           4.3548   -1.8184   18.8325 C.3     1  UNL1        0.0204
     31 C           5.6334   -1.4059   19.4997 C.3     1  UNL1        0.0724
     32 C           3.5334   -0.8041   18.0934 C.3     1  UNL1        0.0277
     33 C           2.4214   -0.0834   18.7962 C.ar    1  UNL1       -0.0220
     34 C           1.7024   -0.7428   19.9357 C.ar    1  UNL1       -0.0020
     35 C           0.5905   -0.0221   20.6385 C.ar    1  UNL1        0.0293
     36 C           0.1974    1.3581   20.2020 C.ar    1  UNL1        0.1401
     37 F          -0.9146    2.0789   20.9049 F       1  UNL1       -0.2042
     38 C           0.9163    2.0176   19.0626 C.ar    1  UNL1        0.0293
     39 C           2.0283    1.2968   18.3597 C.ar    1  UNL1       -0.0020
@<TRIPOS>BOND
     1    19    20    1
     2    20    21    1
     3    20     7    1
     4     7     8   ar
     5     8     9   ar
     6     9     1    1
     7     1     2   am
     8     2     3    2
     9     2     4   am
    10     4    22    1
    11    22    23    1
    12    22    24    1
    13    24    25    1
    14    25    26    1
    15    26    27    1
    16    27    28    1
    17    28    29    1
    18    29    30    1
    19    30    32    1
    20    32    33    1
    21    33    34   ar
    22    34    35   ar
    23    35    36   ar
    24    36    37    1
    25    36    38   ar
    26    38    39   ar
    27    30    31    1
    28     9    10   ar
    29    10    11   ar
    30    11    13    1
    31    13    14   ar
    32    14    15   ar
    33    15    16   ar
    34    16    17   ar
    35    17    18    1
    36    11    12   ar
    37    12     7   ar
    38    31    26    1
    39    17    13   ar
    40    39    33   ar
    41     1     5    1
    42     4     6    1
