@<TRIPOS>MOLECULE
*****
 18 19 0 0 0
SMALL
GASTEIGER

@<TRIPOS>ATOM
      1 C          -5.7924  -19.0951   21.1066 C.2     1  UNL1        0.0435
      2 C          -6.6984  -20.0754   21.7908 C.2     1  UNL1        0.0033
      3 O          -4.3631  -20.9679   20.0113 O.2     1  UNL1       -0.2850
      4 C          -4.4961  -19.5603   20.5124 C.2     1  UNL1        0.2111
      5 C          -3.3327  -18.6180   20.4193 C.ar    1  UNL1        0.0961
      6 C          -2.3044  -18.5918   19.3275 C.ar    1  UNL1        0.0218
      7 C          -1.3296  -17.4941   19.6351 C.ar    1  UNL1        0.0200
      8 C          -1.7554  -16.8417   20.9170 C.ar    1  UNL1        0.0725
      9 N          -2.9933  -17.5364   21.4017 N.ar    1  UNL1       -0.3495
     10 H          -3.4951  -17.3203   22.2207 H       1  UNL1        0.1661
     11 C          -7.9948  -19.6102   22.3850 C.2     1  UNL1        0.0001
     12 C          -9.1606  -19.3014   21.4932 C.2     1  UNL1        0.0000
     13 C         -10.4570  -18.8362   22.0874 C.ar    1  UNL1        0.0000
     14 C         -10.6877  -18.9486   23.5653 C.ar    1  UNL1        0.0000
     15 C         -11.9840  -18.4834   24.1594 C.ar    1  UNL1        0.0000
     16 C         -13.0496  -17.9058   23.2758 C.ar    1  UNL1        0.0000
     17 C         -12.8189  -17.7934   21.7979 C.ar    1  UNL1        0.0000
     18 C         -11.5226  -18.2586   21.2037 C.ar    1  UNL1        0.0000
@<TRIPOS>BOND
     1     3     4    2
     2     4     1    1
     3     1     2    2
     4     2    11    1
     5    11    12    2
     6    12    13    1
     7    13    14   ar
     8    14    15   ar
     9    15    16   ar
    10    16    17   ar
    11    17    18   ar
    12     4     5    1
    13     5     6   ar
    14     6     7   ar
    15     7     8   ar
    16     8     9   ar
    17    18    13   ar
    18     9     5   ar
    19     9    10    1
@<TRIPOS>MOLECULE
*****
 18 19 0 0 0
SMALL
GASTEIGER

@<TRIPOS>ATOM
      1 C          -8.6940  -18.9631   23.1896 C.2     1  UNL1        0.0435
      2 C          -7.8171  -19.9341   22.4562 C.2     1  UNL1        0.0033
      3 O          -9.6883  -20.5683   24.9741 O.2     1  UNL1       -0.2850
      4 C          -9.8687  -19.4612   23.9782 C.2     1  UNL1        0.2111
      5 C         -11.2238  -18.8522   23.7710 C.ar    1  UNL1        0.0961
      6 C         -11.7258  -18.2293   22.5022 C.ar    1  UNL1        0.0218
      7 C         -13.1271  -17.7514   22.7433 C.ar    1  UNL1        0.0200
      8 C         -13.4911  -18.0790   24.1611 C.ar    1  UNL1        0.0725
      9 N         -12.3148  -18.7593   24.7963 N.ar    1  UNL1       -0.3495
     10 H         -12.2672  -19.0873   25.7233 H       1  UNL1        0.1661
     11 C          -6.6423  -19.4360   21.6675 C.2     1  UNL1        0.0001
     12 C          -5.2480  -19.6787   22.1645 C.2     1  UNL1        0.0000
     13 C          -4.0733  -19.1806   21.3758 C.ar    1  UNL1        0.0000
     14 C          -4.1010  -19.2300   19.8769 C.ar    1  UNL1        0.0000
     15 C          -2.9263  -18.7319   19.0882 C.ar    1  UNL1        0.0000
     16 C          -1.7239  -18.1844   19.7985 C.ar    1  UNL1        0.0000
     17 C          -1.6962  -18.1350   21.2974 C.ar    1  UNL1        0.0000
     18 C          -2.8709  -18.6331   22.0860 C.ar    1  UNL1        0.0000
@<TRIPOS>BOND
     1     3     4    2
     2     4     1    1
     3     1     2    2
     4     2    11    1
     5    11    12    2
     6    12    13    1
     7    13    14   ar
     8    14    15   ar
     9    15    16   ar
    10    16    17   ar
    11    17    18   ar
    12     4     5    1
    13     5     6   ar
    14     6     7   ar
    15     7     8   ar
    16     8     9   ar
    17    18    13   ar
    18     9     5   ar
    19     9    10    1
@<TRIPOS>MOLECULE
*****
 18 19 0 0 0
SMALL
GASTEIGER

@<TRIPOS>ATOM
      1 C          -5.7486  -18.7378   21.8731 C.2     1  UNL1        0.0435
      2 C          -6.7855  -19.8185   21.9555 C.2     1  UNL1        0.0033
      3 O          -3.7600  -19.9269   23.0484 O.2     1  UNL1       -0.2850
      4 C          -4.2916  -19.0910   21.9220 C.2     1  UNL1        0.2111
      5 C          -3.3662  -18.6085   20.8445 C.ar    1  UNL1        0.0961
      6 C          -1.8676  -18.5993   20.9082 C.ar    1  UNL1        0.0218
      7 C          -1.3523  -18.0356   19.6172 C.ar    1  UNL1        0.0200
      8 C          -2.5324  -17.6964   18.7556 C.ar    1  UNL1        0.0725
      9 N          -3.7771  -18.0505   19.5141 N.ar    1  UNL1       -0.3495
     10 H          -4.7014  -17.9367   19.1948 H       1  UNL1        0.1661
     11 C          -8.2425  -19.4652   21.9065 C.2     1  UNL1        0.0001
     12 C          -8.9289  -18.9416   23.1332 C.2     1  UNL1        0.0000
     13 C         -10.3860  -18.5884   23.0842 C.ar    1  UNL1        0.0000
     14 C         -10.9914  -18.0771   21.8107 C.ar    1  UNL1        0.0000
     15 C         -12.4483  -17.7239   21.7618 C.ar    1  UNL1        0.0000
     16 C         -13.2999  -17.8819   22.9865 C.ar    1  UNL1        0.0000
     17 C         -12.6945  -18.3932   24.2600 C.ar    1  UNL1        0.0000
     18 C         -11.2375  -18.7465   24.3089 C.ar    1  UNL1        0.0000
@<TRIPOS>BOND
     1     3     4    2
     2     4     1    1
     3     1     2    2
     4     2    11    1
     5    11    12    2
     6    12    13    1
     7    13    14   ar
     8    14    15   ar
     9    15    16   ar
    10    16    17   ar
    11    17    18   ar
    12     4     5    1
    13     5     6   ar
    14     6     7   ar
    15     7     8   ar
    16     8     9   ar
    17    18    13   ar
    18     9     5   ar
    19     9    10    1
@<TRIPOS>MOLECULE
*****
 18 19 0 0 0
SMALL
GASTEIGER

@<TRIPOS>ATOM
      1 C          -5.1775  -17.8705   22.8826 C.2     1  UNL1        0.0435
      2 C          -5.8674  -18.9138   22.0546 C.2     1  UNL1        0.0033
      3 O          -3.2436  -18.2430   24.5771 O.2     1  UNL1       -0.2850
      4 C          -3.7112  -17.9930   23.1739 C.2     1  UNL1        0.2111
      5 C          -2.7124  -17.8656   22.0620 C.ar    1  UNL1        0.0961
      6 C          -2.3323  -18.9433   21.0904 C.ar    1  UNL1        0.0218
      7 C          -1.3034  -18.3818   20.1545 C.ar    1  UNL1        0.0200
      8 C          -1.0475  -16.9570   20.5477 C.ar    1  UNL1        0.0725
      9 N          -1.9183  -16.6380   21.7266 N.ar    1  UNL1       -0.3495
     10 H          -1.9612  -15.7745   22.1975 H       1  UNL1        0.1661
     11 C          -7.3337  -18.7913   21.7633 C.2     1  UNL1        0.0001
     12 C          -8.1887  -17.8769   22.5896 C.2     1  UNL1        0.0000
     13 C          -9.6551  -17.7544   22.2983 C.ar    1  UNL1        0.0000
     14 C         -10.4232  -16.5684   22.8014 C.ar    1  UNL1        0.0000
     15 C         -11.8895  -16.4459   22.5101 C.ar    1  UNL1        0.0000
     16 C         -12.5877  -17.5095   21.7156 C.ar    1  UNL1        0.0000
     17 C         -11.8196  -18.6956   21.2124 C.ar    1  UNL1        0.0000
     18 C         -10.3533  -18.8180   21.5037 C.ar    1  UNL1        0.0000
@<TRIPOS>BOND
     1     3     4    2
     2     4     1    1
     3     1     2    2
     4     2    11    1
     5    11    12    2
     6    12    13    1
     7    13    14   ar
     8    14    15   ar
     9    15    16   ar
    10    16    17   ar
    11    17    18   ar
    12     4     5    1
    13     5     6   ar
    14     6     7   ar
    15     7     8   ar
    16     8     9   ar
    17    18    13   ar
    18     9     5   ar
    19     9    10    1
@<TRIPOS>MOLECULE
*****
 18 19 0 0 0
SMALL
GASTEIGER

@<TRIPOS>ATOM
      1 C          -7.2335  -16.3570   23.8395 C.2     1  UNL1        0.0435
      2 C          -5.8456  -16.1885   24.3827 C.2     1  UNL1        0.0033
      3 O          -8.4095  -15.3529   25.9273 O.2     1  UNL1       -0.2850
      4 C          -8.4129  -16.3007   24.7647 C.2     1  UNL1        0.2111
      5 C          -9.5957  -17.1921   24.5272 C.ar    1  UNL1        0.0961
      6 C         -10.6266  -17.0212   23.4510 C.ar    1  UNL1        0.0218
      7 C         -11.6233  -18.1344   23.5829 C.ar    1  UNL1        0.0200
      8 C         -11.2084  -18.9933   24.7406 C.ar    1  UNL1        0.0725
      9 N          -9.9553  -18.4109   25.3241 N.ar    1  UNL1       -0.3495
     10 H          -9.4565  -18.7662   26.0949 H       1  UNL1        0.1661
     11 C          -4.6661  -16.2448   23.4575 C.2     1  UNL1        0.0001
     12 C          -4.1353  -17.5706   22.9989 C.2     1  UNL1        0.0000
     13 C          -2.9559  -17.6270   22.0738 C.ar    1  UNL1        0.0000
     14 C          -2.1727  -16.3818   21.7804 C.ar    1  UNL1        0.0000
     15 C          -0.9933  -16.4382   20.8553 C.ar    1  UNL1        0.0000
     16 C          -0.5972  -17.7397   20.2235 C.ar    1  UNL1        0.0000
     17 C          -1.3804  -18.9849   20.5169 C.ar    1  UNL1        0.0000
     18 C          -2.5597  -18.9285   21.4420 C.ar    1  UNL1        0.0000
@<TRIPOS>BOND
     1     3     4    2
     2     4     1    1
     3     1     2    2
     4     2    11    1
     5    11    12    2
     6    12    13    1
     7    13    14   ar
     8    14    15   ar
     9    15    16   ar
    10    16    17   ar
    11    17    18   ar
    12     4     5    1
    13     5     6   ar
    14     6     7   ar
    15     7     8   ar
    16     8     9   ar
    17    18    13   ar
    18     9     5   ar
    19     9    10    1
@<TRIPOS>MOLECULE
*****
 18 19 0 0 0
SMALL
GASTEIGER

@<TRIPOS>ATOM
      1 C         -11.6988   -5.5381   19.0462 C.2     1  UNL1        0.0435
      2 C         -12.9917   -5.0115   19.5951 C.2     1  UNL1        0.0033
      3 O          -9.2067   -5.0695   19.6113 O.2     1  UNL1       -0.2850
      4 C         -10.4960   -4.6450   18.9731 C.2     1  UNL1        0.2111
      5 C         -10.5824   -3.3272   18.2616 C.ar    1  UNL1        0.0961
      6 C         -10.3867   -3.1046   16.7912 C.ar    1  UNL1        0.0218
      7 C         -10.5631   -1.6405   16.5165 C.ar    1  UNL1        0.0200
      8 C         -10.8678   -0.9583   17.8172 C.ar    1  UNL1        0.0725
      9 N         -10.8798   -2.0007   18.8957 N.ar    1  UNL1       -0.3495
     10 H         -11.0525   -1.8422   19.8519 H       1  UNL1        0.1661
     11 C         -14.1946   -5.9047   19.6683 C.2     1  UNL1        0.0001
     12 C         -14.2427   -7.1659   18.8577 C.2     1  UNL1        0.0000
     13 C         -15.4457   -8.0590   18.9309 C.ar    1  UNL1        0.0000
     14 C         -16.6807   -7.5967   19.6457 C.ar    1  UNL1        0.0000
     15 C         -17.8835   -8.4899   19.7189 C.ar    1  UNL1        0.0000
     16 C         -17.8514   -9.8453   19.0772 C.ar    1  UNL1        0.0000
     17 C         -16.6164  -10.3076   18.3624 C.ar    1  UNL1        0.0000
     18 C         -15.4135   -9.4145   18.2893 C.ar    1  UNL1        0.0000
@<TRIPOS>BOND
     1     3     4    2
     2     4     1    1
     3     1     2    2
     4     2    11    1
     5    11    12    2
     6    12    13    1
     7    13    14   ar
     8    14    15   ar
     9    15    16   ar
    10    16    17   ar
    11    17    18   ar
    12     4     5    1
    13     5     6   ar
    14     6     7   ar
    15     7     8   ar
    16     8     9   ar
    17    18    13   ar
    18     9     5   ar
    19     9    10    1
@<TRIPOS>MOLECULE
*****
 18 19 0 0 0
SMALL
GASTEIGER

@<TRIPOS>ATOM
      1 C         -13.7981   -5.5790   18.3876 C.2     1  UNL1        0.0435
      2 C         -14.5459   -6.3008   19.4691 C.2     1  UNL1        0.0033
      3 O         -12.2058   -3.5745   18.8311 O.2     1  UNL1       -0.2850
      4 C         -12.4206   -5.0485   18.6539 C.2     1  UNL1        0.2111
      5 C         -11.2578   -5.9919   18.7432 C.ar    1  UNL1        0.0961
      6 C          -9.8755   -5.6458   19.2117 C.ar    1  UNL1        0.0218
      7 C          -9.0366   -6.8870   19.1377 C.ar    1  UNL1        0.0200
      8 C          -9.9004   -8.0004   18.6234 C.ar    1  UNL1        0.0725
      9 N         -11.2732   -7.4471   18.3796 N.ar    1  UNL1       -0.3495
     10 H         -12.0482   -7.9507   18.0405 H       1  UNL1        0.1661
     11 C         -15.9234   -6.8314   19.2027 C.2     1  UNL1        0.0001
     12 C         -16.3313   -8.1673   19.7493 C.2     1  UNL1        0.0000
     13 C         -17.7088   -8.6979   19.4830 C.ar    1  UNL1        0.0000
     14 C         -17.9460   -9.6210   18.3247 C.ar    1  UNL1        0.0000
     15 C         -19.3236  -10.1515   18.0584 C.ar    1  UNL1        0.0000
     16 C         -20.4639   -9.7589   18.9504 C.ar    1  UNL1        0.0000
     17 C         -20.2267   -8.8358   20.1086 C.ar    1  UNL1        0.0000
     18 C         -18.8492   -8.3053   20.3749 C.ar    1  UNL1        0.0000
@<TRIPOS>BOND
     1     3     4    2
     2     4     1    1
     3     1     2    2
     4     2    11    1
     5    11    12    2
     6    12    13    1
     7    13    14   ar
     8    14    15   ar
     9    15    16   ar
    10    16    17   ar
    11    17    18   ar
    12     4     5    1
    13     5     6   ar
    14     6     7   ar
    15     7     8   ar
    16     8     9   ar
    17    18    13   ar
    18     9     5   ar
    19     9    10    1
@<TRIPOS>MOLECULE
*****
 18 19 0 0 0
SMALL
GASTEIGER

@<TRIPOS>ATOM
      1 C          -7.2337  -16.6723   23.1663 C.2     1  UNL1        0.0435
      2 C          -5.9207  -16.4315   23.8504 C.2     1  UNL1        0.0033
      3 O          -9.8094  -16.9883   23.2931 O.2     1  UNL1       -0.2850
      4 C          -8.5058  -16.6647   23.9610 C.2     1  UNL1        0.2111
      5 C          -8.4745  -16.3336   25.4237 C.ar    1  UNL1        0.0961
      6 C          -8.6996  -17.2973   26.5509 C.ar    1  UNL1        0.0218
      7 C          -8.5767  -16.5399   27.8398 C.ar    1  UNL1        0.0200
      8 C          -8.2757  -15.1081   27.5092 C.ar    1  UNL1        0.0725
      9 N          -8.2125  -14.9806   26.0160 N.ar    1  UNL1       -0.3495
     10 H          -8.0310  -14.1540   25.5130 H       1  UNL1        0.1661
     11 C          -4.6485  -16.4390   23.0557 C.2     1  UNL1        0.0001
     12 C          -4.1102  -17.7300   22.5139 C.2     1  UNL1        0.0000
     13 C          -2.8380  -17.7376   21.7192 C.ar    1  UNL1        0.0000
     14 C          -2.0660  -16.4660   21.5273 C.ar    1  UNL1        0.0000
     15 C          -0.7939  -16.4736   20.7327 C.ar    1  UNL1        0.0000
     16 C          -0.2937  -17.7528   20.1299 C.ar    1  UNL1        0.0000
     17 C          -1.0657  -19.0245   20.3217 C.ar    1  UNL1        0.0000
     18 C          -2.3379  -19.0169   21.1164 C.ar    1  UNL1        0.0000
@<TRIPOS>BOND
     1     3     4    2
     2     4     1    1
     3     1     2    2
     4     2    11    1
     5    11    12    2
     6    12    13    1
     7    13    14   ar
     8    14    15   ar
     9    15    16   ar
    10    16    17   ar
    11    17    18   ar
    12     4     5    1
    13     5     6   ar
    14     6     7   ar
    15     7     8   ar
    16     8     9   ar
    17    18    13   ar
    18     9     5   ar
    19     9    10    1
@<TRIPOS>MOLECULE
*****
 18 19 0 0 0
SMALL
GASTEIGER

@<TRIPOS>ATOM
      1 C          -0.0175    2.0658   20.3340 C.2     1  UNL1        0.0435
      2 C           0.1427    0.5786   20.4455 C.2     1  UNL1        0.0033
      3 O          -0.9460    3.0498   22.5520 O.2     1  UNL1       -0.2850
      4 C          -1.1111    2.7610   21.0893 C.2     1  UNL1        0.2111
      5 C          -2.3700    3.1674   20.3821 C.ar    1  UNL1        0.0961
      6 C          -2.4531    4.0128   19.1458 C.ar    1  UNL1        0.0218
      7 C          -3.9012    4.1677   18.7866 C.ar    1  UNL1        0.0200
      8 C          -4.7131    3.4179   19.8009 C.ar    1  UNL1        0.0725
      9 N          -3.7668    2.7997   20.7869 N.ar    1  UNL1       -0.3495
     10 H          -4.0182    2.2493   21.5635 H       1  UNL1        0.1661
     11 C           1.2364   -0.1167   19.6901 C.2     1  UNL1        0.0001
     12 C           2.1796   -1.0339   20.4106 C.2     1  UNL1        0.0000
     13 C           3.2733   -1.7292   19.6552 C.ar    1  UNL1        0.0000
     14 C           4.2973   -0.9262   18.9093 C.ar    1  UNL1        0.0000
     15 C           5.3909   -1.6214   18.1540 C.ar    1  UNL1        0.0000
     16 C           5.4605   -3.1198   18.1445 C.ar    1  UNL1        0.0000
     17 C           4.4364   -3.9229   18.8903 C.ar    1  UNL1        0.0000
     18 C           3.3428   -3.2276   19.6457 C.ar    1  UNL1        0.0000
@<TRIPOS>BOND
     1     3     4    2
     2     4     1    1
     3     1     2    2
     4     2    11    1
     5    11    12    2
     6    12    13    1
     7    13    14   ar
     8    14    15   ar
     9    15    16   ar
    10    16    17   ar
    11    17    18   ar
    12     4     5    1
    13     5     6   ar
    14     6     7   ar
    15     7     8   ar
    16     8     9   ar
    17    18    13   ar
    18     9     5   ar
    19     9    10    1
