@<TRIPOS>MOLECULE
*****
 37 41 0 0 0
SMALL
GASTEIGER

@<TRIPOS>ATOM
      1 N           1.0017    2.6312   18.6868 N.3     1  UNL1       -0.2750
      2 C           2.3219    3.2516   19.0358 C.3     1  UNL1        0.0737
      3 C           3.5724    2.4240   19.0002 C.3     1  UNL1        0.0374
      4 C           3.5026    0.9758   18.6155 C.3     1  UNL1        0.0800
      5 C           2.1823    0.3553   18.2665 C.3     1  UNL1        0.0374
      6 C           0.9318    1.1830   18.3022 C.3     1  UNL1        0.0737
      7 C          -4.1145    3.7673   21.0053 C.2     1  UNL1        0.2542
      8 O          -4.4039    2.8097   22.1230 O.2     1  UNL1       -0.2697
      9 N          -2.8260    3.6645   20.2444 N.am    1  UNL1       -0.2758
     10 C          -1.8268    2.6041   20.6012 C.3     1  UNL1        0.0951
     11 C          -0.5382    2.5013   19.8402 C.3     1  UNL1        0.0362
     12 C          -0.2488    3.4588   18.7225 C.3     1  UNL1        0.0487
     13 C           0.4749    4.1289   17.5924 C.3     1  UNL1        0.0161
     14 C          -1.2479    4.5192   18.3657 C.3     1  UNL1        0.0362
     15 C          -2.5366    4.6220   19.1266 C.3     1  UNL1        0.0951
     16 C          -4.0009    6.4479   22.3474 C.3     1  UNL1        0.0316
     17 C          -5.0569    6.1679   21.3195 C.ar    1  UNL1       -0.0058
     18 C          -6.0561    7.2282   20.9627 C.ar    1  UNL1        0.0730
     19 C          -7.1121    6.9482   19.9349 C.ar    1  UNL1        0.3010
     20 N          -7.1689    5.6080   19.2638 N.ar    1  UNL1       -0.1606
     21 O          -8.2249    5.3280   18.2360 O.co2   1  UNL1       -0.6190
     22 C          -6.1697    4.5477   19.6206 C.ar    1  UNL1        0.2180
     23 C          -6.2265    3.2073   18.9496 C.3     1  UNL1        0.1093
     24 C          -5.1137    4.8276   20.6485 C.ar    1  UNL1        0.1099
     25 N           4.7531    0.1482   18.5798 N.pl3   1  UNL1       -0.2872
     26 C           4.7360   -1.2594   19.0981 C.ar    1  UNL1        0.0516
     27 C           4.4346   -1.5227   20.5437 C.ar    1  UNL1        0.0148
     28 C           4.4175   -2.9301   21.0620 C.ar    1  UNL1        0.0013
     29 C           4.7018   -4.0744   20.1347 C.ar    1  UNL1        0.0001
     30 C           5.0032   -3.8110   18.6890 C.ar    1  UNL1        0.0013
     31 C           5.0203   -2.4036   18.1708 C.ar    1  UNL1        0.0148
     32 C           6.0207    0.7281   18.0259 C.ar    1  UNL1        0.0710
     33 C           6.1509    0.9758   16.5523 C.ar    1  UNL1        0.0180
     34 C           7.4186    1.5558   15.9984 C.ar    1  UNL1        0.0220
     35 C           8.5560    1.8879   16.9181 C.ar    1  UNL1        0.0990
     36 N           8.4258    1.6401   18.3917 N.ar    1  UNL1       -0.2410
     37 C           7.1581    1.0602   18.9456 C.ar    1  UNL1        0.1136
@<TRIPOS>UNITY_ATOM_ATTR
20 1
charge 1
21 1
charge -1
@<TRIPOS>BOND
     1    16    17    1
     2    17    18   ar
     3    18    19   ar
     4    19    20   ar
     5    20    21    1
     6    20    22   ar
     7    22    23    1
     8    22    24   ar
     9    24     7    1
    10     7     8    2
    11     7     9   am
    12     9    10    1
    13    10    11    1
    14    11    12    1
    15    12    13    1
    16    12     1    1
    17     1     2    1
    18     2     3    1
    19     3     4    1
    20     4    25    1
    21    25    26    1
    22    26    27   ar
    23    27    28   ar
    24    28    29   ar
    25    29    30   ar
    26    30    31   ar
    27    25    32    1
    28    32    33   ar
    29    33    34   ar
    30    34    35   ar
    31    35    36   ar
    32    36    37   ar
    33     4     5    1
    34     5     6    1
    35    12    14    1
    36    14    15    1
    37    24    17   ar
    38    15     9    1
    39     6     1    1
    40    31    26   ar
    41    37    32   ar
@<TRIPOS>MOLECULE
*****
 37 41 0 0 0
SMALL
GASTEIGER

@<TRIPOS>ATOM
      1 N           0.7238    2.0063   21.5408 N.3     1  UNL1       -0.2750
      2 C           0.1853    2.5009   22.8505 C.3     1  UNL1        0.0737
      3 C          -1.1577    3.1667   22.9059 C.3     1  UNL1        0.0374
      4 C          -1.9623    3.3378   21.6515 C.3     1  UNL1        0.0800
      5 C          -1.4238    2.8432   20.3418 C.3     1  UNL1        0.0374
      6 C          -0.0808    2.1774   20.2864 C.3     1  UNL1        0.0737
      7 C           3.9761   -2.4499   19.9898 C.2     1  UNL1        0.2542
      8 O           3.1418   -3.4886   19.3006 O.2     1  UNL1       -0.2697
      9 N           3.3397   -1.1864   20.4884 N.am    1  UNL1       -0.2758
     10 C           1.8689   -0.9617   20.2977 C.3     1  UNL1        0.0951
     11 C           1.2325    0.3018   20.7963 C.3     1  UNL1        0.0362
     12 C           2.0668    1.3405   21.4854 C.3     1  UNL1        0.0487
     13 C           2.4346    2.6104   22.1938 C.3     1  UNL1        0.0161
     14 C           3.5375    1.1158   21.6761 C.3     1  UNL1        0.0362
     15 C           4.1740   -0.1477   21.1775 C.3     1  UNL1        0.0951
     16 C           5.9158   -1.5553   17.8832 C.3     1  UNL1        0.0316
     17 C           6.4167   -2.2274   19.1272 C.ar    1  UNL1       -0.0058
     18 C           7.8874   -2.4522   19.3178 C.ar    1  UNL1        0.0730
     19 C           8.3884   -3.1242   20.5618 C.ar    1  UNL1        0.3010
     20 N           7.4186   -3.5715   21.6150 N.ar    1  UNL1       -0.1606
     21 O           7.9196   -4.2436   22.8590 O.co2   1  UNL1       -0.6190
     22 C           5.9479   -3.3468   21.4244 C.ar    1  UNL1        0.2180
     23 C           4.9780   -3.7941   22.4777 C.3     1  UNL1        0.1093
     24 C           5.4469   -2.6747   20.1804 C.ar    1  UNL1        0.1099
     25 N          -3.3053    4.0036   21.7069 N.pl3   1  UNL1       -0.2872
     26 C          -4.0657    4.2648   20.4406 C.ar    1  UNL1        0.0516
     27 C          -3.7929    5.5066   19.6446 C.ar    1  UNL1        0.0148
     28 C          -4.5534    5.7679   18.3783 C.ar    1  UNL1        0.0013
     29 C          -5.5866    4.7874   17.9081 C.ar    1  UNL1        0.0001
     30 C          -5.8594    3.5457   18.7041 C.ar    1  UNL1        0.0013
     31 C          -5.0990    3.2844   19.9704 C.ar    1  UNL1        0.0148
     32 C          -3.8878    4.4082   23.0286 C.ar    1  UNL1        0.0710
     33 C          -4.6905    3.4243   23.8271 C.ar    1  UNL1        0.0180
     34 C          -5.2731    3.8288   25.1489 C.ar    1  UNL1        0.0220
     35 C          -5.0530    5.2172   25.6721 C.ar    1  UNL1        0.0990
     36 N          -4.2503    6.2011   24.8736 N.ar    1  UNL1       -0.2410
     37 C          -3.6677    5.7966   23.5518 C.ar    1  UNL1        0.1136
@<TRIPOS>UNITY_ATOM_ATTR
20 1
charge 1
21 1
charge -1
@<TRIPOS>BOND
     1    16    17    1
     2    17    18   ar
     3    18    19   ar
     4    19    20   ar
     5    20    21    1
     6    20    22   ar
     7    22    23    1
     8    22    24   ar
     9    24     7    1
    10     7     8    2
    11     7     9   am
    12     9    10    1
    13    10    11    1
    14    11    12    1
    15    12    13    1
    16    12     1    1
    17     1     2    1
    18     2     3    1
    19     3     4    1
    20     4    25    1
    21    25    26    1
    22    26    27   ar
    23    27    28   ar
    24    28    29   ar
    25    29    30   ar
    26    30    31   ar
    27    25    32    1
    28    32    33   ar
    29    33    34   ar
    30    34    35   ar
    31    35    36   ar
    32    36    37   ar
    33     4     5    1
    34     5     6    1
    35    12    14    1
    36    14    15    1
    37    24    17   ar
    38    15     9    1
    39     6     1    1
    40    31    26   ar
    41    37    32   ar
@<TRIPOS>MOLECULE
*****
 37 41 0 0 0
SMALL
GASTEIGER

@<TRIPOS>ATOM
      1 N           0.7541    2.0029   21.5489 N.3     1  UNL1       -0.2750
      2 C           0.2198    2.4897   22.8632 C.3     1  UNL1        0.0737
      3 C          -1.1222    3.1569   22.9265 C.3     1  UNL1        0.0374
      4 C          -1.9299    3.3371   21.6754 C.3     1  UNL1        0.0800
      5 C          -1.3956    2.8503   20.3611 C.3     1  UNL1        0.0374
      6 C          -0.0536    2.1832   20.2978 C.3     1  UNL1        0.0737
      7 C           3.9915   -2.4597   19.9850 C.2     1  UNL1        0.2542
      8 O           3.1514   -3.4991   19.3039 O.2     1  UNL1       -0.2697
      9 N           3.3597   -1.1945   20.4852 N.am    1  UNL1       -0.2758
     10 C           1.8878   -0.9688   20.3044 C.3     1  UNL1        0.0951
     11 C           1.2560    0.2963   20.8046 C.3     1  UNL1        0.0362
     12 C           2.0961    1.3358   21.4856 C.3     1  UNL1        0.0487
     13 C           2.4700    2.6069   22.1887 C.3     1  UNL1        0.0161
     14 C           3.5679    1.1101   21.6665 C.3     1  UNL1        0.0362
     15 C           4.1997   -0.1551   21.1663 C.3     1  UNL1        0.0951
     16 C           5.9159   -1.5852   17.8562 C.3     1  UNL1        0.0316
     17 C           6.4256   -2.2482   19.1014 C.ar    1  UNL1       -0.0058
     18 C           7.8974   -2.4739   19.2823 C.ar    1  UNL1        0.0730
     19 C           8.4070   -3.1369   20.5276 C.ar    1  UNL1        0.3010
     20 N           7.4448   -3.5741   21.5920 N.ar    1  UNL1       -0.1606
     21 O           7.9545   -4.2371   22.8373 O.co2   1  UNL1       -0.6190
     22 C           5.9730   -3.3484   21.4111 C.ar    1  UNL1        0.2180
     23 C           5.0108   -3.7856   22.4756 C.3     1  UNL1        0.1093
     24 C           5.4634   -2.6854   20.1659 C.ar    1  UNL1        0.1099
     25 N          -3.2718    4.0043   21.7387 N.pl3   1  UNL1       -0.2872
     26 C          -3.8541    4.3937   23.0651 C.ar    1  UNL1        0.0516
     27 C          -3.6194    5.7706   23.6120 C.ar    1  UNL1        0.0148
     28 C          -4.2016    6.1601   24.9384 C.ar    1  UNL1        0.0013
     29 C          -5.0186    5.1727   25.7179 C.ar    1  UNL1        0.0001
     30 C          -5.2533    3.7958   25.1710 C.ar    1  UNL1        0.0013
     31 C          -4.6711    3.4063   23.8446 C.ar    1  UNL1        0.0148
     32 C          -4.0316    4.2820   20.4755 C.ar    1  UNL1        0.0710
     33 C          -5.0577    3.3031   19.9869 C.ar    1  UNL1        0.0180
     34 C          -5.8175    3.5809   18.7237 C.ar    1  UNL1        0.0220
     35 C          -5.5512    4.8375   17.9492 C.ar    1  UNL1        0.0990
     36 N          -4.5251    5.8165   18.4379 N.ar    1  UNL1       -0.2410
     37 C          -3.7653    5.5387   19.7011 C.ar    1  UNL1        0.1136
@<TRIPOS>UNITY_ATOM_ATTR
20 1
charge 1
21 1
charge -1
@<TRIPOS>BOND
     1    16    17    1
     2    17    18   ar
     3    18    19   ar
     4    19    20   ar
     5    20    21    1
     6    20    22   ar
     7    22    23    1
     8    22    24   ar
     9    24     7    1
    10     7     8    2
    11     7     9   am
    12     9    10    1
    13    10    11    1
    14    11    12    1
    15    12    13    1
    16    12     1    1
    17     1     2    1
    18     2     3    1
    19     3     4    1
    20     4    25    1
    21    25    26    1
    22    26    27   ar
    23    27    28   ar
    24    28    29   ar
    25    29    30   ar
    26    30    31   ar
    27    25    32    1
    28    32    33   ar
    29    33    34   ar
    30    34    35   ar
    31    35    36   ar
    32    36    37   ar
    33     4     5    1
    34     5     6    1
    35    12    14    1
    36    14    15    1
    37    24    17   ar
    38    15     9    1
    39     6     1    1
    40    31    26   ar
    41    37    32   ar
@<TRIPOS>MOLECULE
*****
 37 41 0 0 0
SMALL
GASTEIGER

@<TRIPOS>ATOM
      1 N           5.8177   -1.1776   26.2376 N.3     1  UNL1       -0.2750
      2 C           4.6515   -1.2665   27.1767 C.3     1  UNL1        0.0737
      3 C           4.8648   -1.6919   28.5993 C.3     1  UNL1        0.0374
      4 C           6.2443   -2.0284   29.0826 C.3     1  UNL1        0.0800
      5 C           7.4105   -1.9396   28.1435 C.3     1  UNL1        0.0374
      6 C           7.1973   -1.5142   26.7210 C.3     1  UNL1        0.0737
      7 C           4.4336   -2.4945   20.8347 C.2     1  UNL1        0.2542
      8 O           4.1230   -3.9574   20.7185 O.2     1  UNL1       -0.2697
      9 N           4.8239   -1.9137   22.1615 N.am    1  UNL1       -0.2758
     10 C           4.9036   -2.7959   23.3722 C.3     1  UNL1        0.0951
     11 C           5.2938   -2.2151   24.6989 C.3     1  UNL1        0.0362
     12 C           5.6045   -0.7522   24.8151 C.3     1  UNL1        0.0487
     13 C           5.9892    0.5629   25.4254 C.3     1  UNL1        0.0161
     14 C           5.5248    0.1299   23.6046 C.3     1  UNL1        0.0362
     15 C           5.1345   -0.4509   22.2777 C.3     1  UNL1        0.0951
     16 C           1.8653   -1.0969   20.1634 C.3     1  UNL1        0.0316
     17 C           3.0698   -0.9136   19.2885 C.ar    1  UNL1       -0.0058
     18 C           2.9902   -0.0315   18.0779 C.ar    1  UNL1        0.0730
     19 C           4.1947    0.1518   17.2029 C.ar    1  UNL1        0.3010
     20 N           5.4789   -0.5470   17.5386 N.ar    1  UNL1       -0.1606
     21 O           6.6834   -0.3637   16.6636 O.co2   1  UNL1       -0.6190
     22 C           5.5585   -1.4291   18.7491 C.ar    1  UNL1        0.2180
     23 C           6.8426   -2.1279   19.0848 C.3     1  UNL1        0.1093
     24 C           4.3540   -1.6124   19.6241 C.ar    1  UNL1        0.1099
     25 N           6.4576   -2.4538   30.5051 N.pl3   1  UNL1       -0.2872
     26 C           7.3367   -3.6296   30.8127 C.ar    1  UNL1        0.0516
     27 C           8.6537   -3.4218   31.5000 C.ar    1  UNL1        0.0148
     28 C           9.5330   -4.5975   31.8076 C.ar    1  UNL1        0.0013
     29 C           9.0953   -5.9810   31.4278 C.ar    1  UNL1        0.0001
     30 C           7.7783   -6.1888   30.7405 C.ar    1  UNL1        0.0013
     31 C           6.8990   -5.0132   30.4329 C.ar    1  UNL1        0.0148
     32 C           5.7916   -1.7034   31.6202 C.ar    1  UNL1        0.0710
     33 C           4.9919   -2.4446   32.6503 C.ar    1  UNL1        0.0180
     34 C           4.3259   -1.6942   33.7654 C.ar    1  UNL1        0.0220
     35 C           4.4596   -0.2027   33.8504 C.ar    1  UNL1        0.0990
     36 N           5.2593    0.5386   32.8203 N.ar    1  UNL1       -0.2410
     37 C           5.9253   -0.2118   31.7052 C.ar    1  UNL1        0.1136
@<TRIPOS>UNITY_ATOM_ATTR
20 1
charge 1
21 1
charge -1
@<TRIPOS>BOND
     1    16    17    1
     2    17    18   ar
     3    18    19   ar
     4    19    20   ar
     5    20    21    1
     6    20    22   ar
     7    22    23    1
     8    22    24   ar
     9    24     7    1
    10     7     8    2
    11     7     9   am
    12     9    10    1
    13    10    11    1
    14    11    12    1
    15    12    13    1
    16    12     1    1
    17     1     2    1
    18     2     3    1
    19     3     4    1
    20     4    25    1
    21    25    26    1
    22    26    27   ar
    23    27    28   ar
    24    28    29   ar
    25    29    30   ar
    26    30    31   ar
    27    25    32    1
    28    32    33   ar
    29    33    34   ar
    30    34    35   ar
    31    35    36   ar
    32    36    37   ar
    33     4     5    1
    34     5     6    1
    35    12    14    1
    36    14    15    1
    37    24    17   ar
    38    15     9    1
    39     6     1    1
    40    31    26   ar
    41    37    32   ar
@<TRIPOS>MOLECULE
*****
 37 41 0 0 0
SMALL
GASTEIGER

@<TRIPOS>ATOM
      1 N           4.9069   -0.0955   33.4116 N.3     1  UNL1       -0.2750
      2 C           4.8468    1.3920   33.5950 C.3     1  UNL1        0.0737
      3 C           4.6587    1.9717   34.9657 C.3     1  UNL1        0.0374
      4 C           4.5307    1.0637   36.1528 C.3     1  UNL1        0.0800
      5 C           4.5909   -0.4237   35.9694 C.3     1  UNL1        0.0374
      6 C           4.7790   -1.0034   34.5988 C.3     1  UNL1        0.0737
      7 C           8.1471   -2.9659   29.6562 C.2     1  UNL1        0.2542
      8 O           9.4522   -3.3549   30.2849 O.2     1  UNL1       -0.2697
      9 N           7.1297   -2.2023   30.4511 N.am    1  UNL1       -0.2758
     10 C           7.4176   -1.8276   31.8748 C.3     1  UNL1        0.0951
     11 C           6.4002   -1.0641   32.6697 C.3     1  UNL1        0.0362
     12 C           5.0951   -0.6751   32.0410 C.3     1  UNL1        0.0487
     13 C           3.7246   -0.0849   31.8883 C.3     1  UNL1        0.0161
     14 C           4.8072   -1.0498   30.6173 C.3     1  UNL1        0.0362
     15 C           5.8246   -1.8134   29.8224 C.3     1  UNL1        0.0951
     16 C           6.7250   -5.5344   29.0391 C.3     1  UNL1        0.0316
     17 C           7.1483   -4.6248   27.9240 C.ar    1  UNL1       -0.0058
     18 C           6.8605   -4.9995   26.5003 C.ar    1  UNL1        0.0730
     19 C           7.2837   -4.0899   25.3852 C.ar    1  UNL1        0.3010
     20 N           7.9947   -2.8057   25.6937 N.ar    1  UNL1       -0.1606
     21 O           8.4180   -1.8961   24.5785 O.co2   1  UNL1       -0.6190
     22 C           8.2825   -2.4311   27.1173 C.ar    1  UNL1        0.2180
     23 C           8.9936   -1.1468   27.4259 C.3     1  UNL1        0.1093
     24 C           7.8593   -3.3406   28.2325 C.ar    1  UNL1        0.1099
     25 N           4.3426    1.6434   37.5235 N.pl3   1  UNL1       -0.2872
     26 C           5.5362    2.0441   38.3387 C.ar    1  UNL1        0.0516
     27 C           6.9167    1.6881   37.8723 C.ar    1  UNL1        0.0148
     28 C           8.1104    2.0888   38.6875 C.ar    1  UNL1        0.0013
     29 C           7.9236    2.8455   39.9691 C.ar    1  UNL1        0.0001
     30 C           6.5431    3.2015   40.4355 C.ar    1  UNL1        0.0013
     31 C           5.3494    2.8008   39.6203 C.ar    1  UNL1        0.0148
     32 C           2.9607    1.8223   38.0789 C.ar    1  UNL1        0.0710
     33 C           2.3768    0.7810   38.9870 C.ar    1  UNL1        0.0180
     34 C           0.9949    0.9600   39.5424 C.ar    1  UNL1        0.0220
     35 C           0.1970    2.1802   39.1898 C.ar    1  UNL1        0.0990
     36 N           0.7810    3.2215   38.2817 N.ar    1  UNL1       -0.2410
     37 C           2.1628    3.0426   37.7262 C.ar    1  UNL1        0.1136
@<TRIPOS>UNITY_ATOM_ATTR
20 1
charge 1
21 1
charge -1
@<TRIPOS>BOND
     1    16    17    1
     2    17    18   ar
     3    18    19   ar
     4    19    20   ar
     5    20    21    1
     6    20    22   ar
     7    22    23    1
     8    22    24   ar
     9    24     7    1
    10     7     8    2
    11     7     9   am
    12     9    10    1
    13    10    11    1
    14    11    12    1
    15    12    13    1
    16    12     1    1
    17     1     2    1
    18     2     3    1
    19     3     4    1
    20     4    25    1
    21    25    26    1
    22    26    27   ar
    23    27    28   ar
    24    28    29   ar
    25    29    30   ar
    26    30    31   ar
    27    25    32    1
    28    32    33   ar
    29    33    34   ar
    30    34    35   ar
    31    35    36   ar
    32    36    37   ar
    33     4     5    1
    34     5     6    1
    35    12    14    1
    36    14    15    1
    37    24    17   ar
    38    15     9    1
    39     6     1    1
    40    31    26   ar
    41    37    32   ar
@<TRIPOS>MOLECULE
*****
 37 41 0 0 0
SMALL
GASTEIGER

@<TRIPOS>ATOM
      1 N           4.8829   -0.1892   33.5453 N.3     1  UNL1       -0.2750
      2 C           4.6768    1.2909   33.6747 C.3     1  UNL1        0.0737
      3 C           4.4807    1.9053   35.0289 C.3     1  UNL1        0.0374
      4 C           4.4907    1.0395   36.2539 C.3     1  UNL1        0.0800
      5 C           4.6967   -0.4406   36.1245 C.3     1  UNL1        0.0374
      6 C           4.8928   -1.0550   34.7702 C.3     1  UNL1        0.0737
      7 C           8.2004   -3.0296   29.8349 C.2     1  UNL1        0.2542
      8 O           9.5302   -3.3387   30.4562 O.2     1  UNL1       -0.2697
      9 N           7.1599   -2.2876   30.6202 N.am    1  UNL1       -0.2758
     10 C           7.4493   -1.8546   32.0270 C.3     1  UNL1        0.0951
     11 C           6.4088   -1.1126   32.8123 C.3     1  UNL1        0.0362
     12 C           5.0790   -0.8035   32.1910 C.3     1  UNL1        0.0487
     13 C           3.6811   -0.2811   32.0400 C.3     1  UNL1        0.0161
     14 C           4.7896   -1.2365   30.7843 C.3     1  UNL1        0.0362
     15 C           5.8301   -1.9785   29.9989 C.3     1  UNL1        0.0951
     16 C           8.6907   -1.1435   27.5540 C.3     1  UNL1        0.0316
     17 C           8.1562   -2.5195   27.2877 C.ar    1  UNL1       -0.0058
     18 C           7.8669   -2.9525   25.8810 C.ar    1  UNL1        0.0730
     19 C           7.3324   -4.3286   25.6148 C.ar    1  UNL1        0.3010
     20 N           7.0873   -5.2716   26.7552 N.ar    1  UNL1       -0.1606
     21 O           6.5528   -6.6476   26.4889 O.co2   1  UNL1       -0.6190
     22 C           7.3766   -4.8386   28.1618 C.ar    1  UNL1        0.2180
     23 C           7.1314   -5.7816   29.3023 C.3     1  UNL1        0.1093
     24 C           7.9111   -3.4626   28.4281 C.ar    1  UNL1        0.1099
     25 N           4.2945    1.6539   37.6081 N.pl3   1  UNL1       -0.2872
     26 C           2.9135    1.7886   38.1778 C.ar    1  UNL1        0.0516
     27 C           2.1620    3.0778   38.0258 C.ar    1  UNL1        0.0148
     28 C           0.7810    3.2126   38.5954 C.ar    1  UNL1        0.0013
     29 C           0.1514    2.0582   39.3172 C.ar    1  UNL1        0.0001
     30 C           0.9029    0.7689   39.4692 C.ar    1  UNL1        0.0013
     31 C           2.2839    0.6341   38.8996 C.ar    1  UNL1        0.0148
     32 C           5.4796    2.1336   38.3928 C.ar    1  UNL1        0.0710
     33 C           5.2772    2.8363   39.7025 C.ar    1  UNL1        0.0180
     34 C           6.4622    3.3160   40.4871 C.ar    1  UNL1        0.0220
     35 C           7.8495    3.0931   39.9621 C.ar    1  UNL1        0.0990
     36 N           8.0518    2.3905   38.6524 N.ar    1  UNL1       -0.2410
     37 C           6.8668    1.9107   37.8677 C.ar    1  UNL1        0.1136
@<TRIPOS>UNITY_ATOM_ATTR
20 1
charge 1
21 1
charge -1
@<TRIPOS>BOND
     1    16    17    1
     2    17    18   ar
     3    18    19   ar
     4    19    20   ar
     5    20    21    1
     6    20    22   ar
     7    22    23    1
     8    22    24   ar
     9    24     7    1
    10     7     8    2
    11     7     9   am
    12     9    10    1
    13    10    11    1
    14    11    12    1
    15    12    13    1
    16    12     1    1
    17     1     2    1
    18     2     3    1
    19     3     4    1
    20     4    25    1
    21    25    26    1
    22    26    27   ar
    23    27    28   ar
    24    28    29   ar
    25    29    30   ar
    26    30    31   ar
    27    25    32    1
    28    32    33   ar
    29    33    34   ar
    30    34    35   ar
    31    35    36   ar
    32    36    37   ar
    33     4     5    1
    34     5     6    1
    35    12    14    1
    36    14    15    1
    37    24    17   ar
    38    15     9    1
    39     6     1    1
    40    31    26   ar
    41    37    32   ar
@<TRIPOS>MOLECULE
*****
 37 41 0 0 0
SMALL
GASTEIGER

@<TRIPOS>ATOM
      1 N           0.9461    2.7257   18.6778 N.3     1  UNL1       -0.2750
      2 C           0.9012    1.2788   18.2847 C.3     1  UNL1        0.0737
      3 C           2.1635    0.4689   18.2598 C.3     1  UNL1        0.0374
      4 C           3.4706    1.1058   18.6282 C.3     1  UNL1        0.0800
      5 C           3.5155    2.5526   19.0213 C.3     1  UNL1        0.0374
      6 C           2.2533    3.3626   19.0461 C.3     1  UNL1        0.0737
      7 C          -4.1819    3.8250   20.9878 C.2     1  UNL1        0.2542
      8 O          -4.4555    2.8815   22.1214 O.2     1  UNL1       -0.2697
      9 N          -2.8934    3.7286   20.2261 N.am    1  UNL1       -0.2758
     10 C          -1.8783    2.6886   20.5979 C.3     1  UNL1        0.0951
     11 C          -0.5897    2.5922   19.8362 C.3     1  UNL1        0.0362
     12 C          -0.3162    3.5356   18.7026 C.3     1  UNL1        0.0487
     13 C           0.3957    4.1978   17.5604 C.3     1  UNL1        0.0161
     14 C          -1.3312    4.5756   18.3307 C.3     1  UNL1        0.0362
     15 C          -2.6198    4.6720   19.0925 C.3     1  UNL1        0.0951
     16 C          -4.1362    6.5109   22.3235 C.3     1  UNL1        0.0316
     17 C          -5.1741    6.2079   21.2838 C.ar    1  UNL1       -0.0058
     18 C          -6.1892    7.2477   20.9119 C.ar    1  UNL1        0.0730
     19 C          -7.2271    6.9447   19.8723 C.ar    1  UNL1        0.3010
     20 N          -7.2499    5.6018   19.2044 N.ar    1  UNL1       -0.1606
     21 O          -8.2878    5.2988   18.1647 O.co2   1  UNL1       -0.6190
     22 C          -6.2349    4.5619   19.5763 C.ar    1  UNL1        0.2180
     23 C          -6.2577    3.2189   18.9084 C.3     1  UNL1        0.1093
     24 C          -5.1970    4.8650   20.6160 C.ar    1  UNL1        0.1099
     25 N           4.7329    0.2958   18.6033 N.pl3   1  UNL1       -0.2872
     26 C           5.9941    0.8892   18.0492 C.ar    1  UNL1        0.0516
     27 C           6.2156    0.9292   16.5661 C.ar    1  UNL1        0.0148
     28 C           7.4768    1.5225   16.0118 C.ar    1  UNL1        0.0013
     29 C           8.5166    2.0760   16.9406 C.ar    1  UNL1        0.0001
     30 C           8.2951    2.0361   18.4236 C.ar    1  UNL1        0.0013
     31 C           7.0339    1.4427   18.9779 C.ar    1  UNL1        0.0148
     32 C           4.7340   -1.1077   19.1328 C.ar    1  UNL1        0.0710
     33 C           4.9781   -2.2596   18.2035 C.ar    1  UNL1        0.0180
     34 C           4.9792   -3.6631   18.7329 C.ar    1  UNL1        0.0220
     35 C           4.7361   -3.9146   20.1915 C.ar    1  UNL1        0.0990
     36 N           4.4919   -2.7627   21.1208 N.ar    1  UNL1       -0.2410
     37 C           4.4908   -1.3592   20.5913 C.ar    1  UNL1        0.1136
@<TRIPOS>UNITY_ATOM_ATTR
20 1
charge 1
21 1
charge -1
@<TRIPOS>BOND
     1    16    17    1
     2    17    18   ar
     3    18    19   ar
     4    19    20   ar
     5    20    21    1
     6    20    22   ar
     7    22    23    1
     8    22    24   ar
     9    24     7    1
    10     7     8    2
    11     7     9   am
    12     9    10    1
    13    10    11    1
    14    11    12    1
    15    12    13    1
    16    12     1    1
    17     1     2    1
    18     2     3    1
    19     3     4    1
    20     4    25    1
    21    25    26    1
    22    26    27   ar
    23    27    28   ar
    24    28    29   ar
    25    29    30   ar
    26    30    31   ar
    27    25    32    1
    28    32    33   ar
    29    33    34   ar
    30    34    35   ar
    31    35    36   ar
    32    36    37   ar
    33     4     5    1
    34     5     6    1
    35    12    14    1
    36    14    15    1
    37    24    17   ar
    38    15     9    1
    39     6     1    1
    40    31    26   ar
    41    37    32   ar
@<TRIPOS>MOLECULE
*****
 37 41 0 0 0
SMALL
GASTEIGER

@<TRIPOS>ATOM
      1 N           5.8071   -1.1409   26.2132 N.3     1  UNL1       -0.2750
      2 C           7.1780   -1.0798   26.8189 C.3     1  UNL1        0.0737
      3 C           7.3883   -1.5017   28.2429 C.3     1  UNL1        0.0374
      4 C           6.2276   -1.9848   29.0612 C.3     1  UNL1        0.0800
      5 C           4.8567   -2.0459   28.4555 C.3     1  UNL1        0.0374
      6 C           4.6464   -1.6240   27.0315 C.3     1  UNL1        0.0737
      7 C           4.4233   -2.4688   20.8129 C.2     1  UNL1        0.2542
      8 O           4.1073   -3.9308   20.7008 O.2     1  UNL1       -0.2697
      9 N           4.8144   -1.8855   22.1383 N.am    1  UNL1       -0.2758
     10 C           4.8896   -2.7643   23.3517 C.3     1  UNL1        0.0951
     11 C           5.2808   -2.1810   24.6771 C.3     1  UNL1        0.0362
     12 C           5.5968   -0.7190   24.7892 C.3     1  UNL1        0.0487
     13 C           5.9858    0.5965   25.3959 C.3     1  UNL1        0.0161
     14 C           5.5216    0.1598   23.5759 C.3     1  UNL1        0.0362
     15 C           5.1304   -0.4235   22.2504 C.3     1  UNL1        0.0951
     16 C           1.8599   -1.0663   20.1331 C.3     1  UNL1        0.0316
     17 C           3.0664   -0.8888   19.2597 C.ar    1  UNL1       -0.0058
     18 C           2.9913   -0.0100   18.0464 C.ar    1  UNL1        0.0730
     19 C           4.1978    0.1675   17.1730 C.ar    1  UNL1        0.3010
     20 N           5.4794   -0.5338   17.5129 N.ar    1  UNL1       -0.1606
     21 O           6.6859   -0.3563   16.6394 O.co2   1  UNL1       -0.6190
     22 C           5.5546   -1.4125   18.7261 C.ar    1  UNL1        0.2180
     23 C           6.8363   -2.1138   19.0661 C.3     1  UNL1        0.1093
     24 C           4.3481   -1.5900   19.5996 C.ar    1  UNL1        0.1099
     25 N           6.4379   -2.4067   30.4851 N.pl3   1  UNL1       -0.2872
     26 C           5.7447   -1.6734   31.5949 C.ar    1  UNL1        0.0516
     27 C           4.9431   -2.4332   32.6099 C.ar    1  UNL1        0.0148
     28 C           4.2498   -1.7000   33.7197 C.ar    1  UNL1        0.0013
     29 C           4.3581   -0.2069   33.8146 C.ar    1  UNL1        0.0001
     30 C           5.1597    0.5529   32.7996 C.ar    1  UNL1        0.0013
     31 C           5.8529   -0.1803   31.6898 C.ar    1  UNL1        0.0148
     32 C           7.3415   -3.5621   30.7994 C.ar    1  UNL1        0.0710
     33 C           6.9548   -4.9509   30.3851 C.ar    1  UNL1        0.0180
     34 C           7.8584   -6.1063   30.6993 C.ar    1  UNL1        0.0220
     35 C           9.1486   -5.8728   31.4278 C.ar    1  UNL1        0.0990
     36 N           9.5353   -4.4840   31.8421 N.ar    1  UNL1       -0.2410
     37 C           8.6317   -3.3286   31.5279 C.ar    1  UNL1        0.1136
@<TRIPOS>UNITY_ATOM_ATTR
20 1
charge 1
21 1
charge -1
@<TRIPOS>BOND
     1    16    17    1
     2    17    18   ar
     3    18    19   ar
     4    19    20   ar
     5    20    21    1
     6    20    22   ar
     7    22    23    1
     8    22    24   ar
     9    24     7    1
    10     7     8    2
    11     7     9   am
    12     9    10    1
    13    10    11    1
    14    11    12    1
    15    12    13    1
    16    12     1    1
    17     1     2    1
    18     2     3    1
    19     3     4    1
    20     4    25    1
    21    25    26    1
    22    26    27   ar
    23    27    28   ar
    24    28    29   ar
    25    29    30   ar
    26    30    31   ar
    27    25    32    1
    28    32    33   ar
    29    33    34   ar
    30    34    35   ar
    31    35    36   ar
    32    36    37   ar
    33     4     5    1
    34     5     6    1
    35    12    14    1
    36    14    15    1
    37    24    17   ar
    38    15     9    1
    39     6     1    1
    40    31    26   ar
    41    37    32   ar
@<TRIPOS>MOLECULE
*****
 37 41 0 0 0
SMALL
GASTEIGER

@<TRIPOS>ATOM
      1 N           1.4457    0.7481   29.7449 N.3     1  UNL1       -0.2750
      2 C           1.5676    1.4748   31.0513 C.3     1  UNL1        0.0737
      3 C           2.6605    1.1118   32.0124 C.3     1  UNL1        0.0374
      4 C           3.6316    0.0220   31.6669 C.3     1  UNL1        0.0800
      5 C           3.5097   -0.7048   30.3604 C.3     1  UNL1        0.0374
      6 C           2.4168   -0.3417   29.3994 C.3     1  UNL1        0.0737
      7 C          -0.9438    4.5395   26.1732 C.2     1  UNL1        0.2542
      8 O          -0.1335    5.8012   26.1348 O.2     1  UNL1       -0.2697
      9 N          -0.5117    3.3967   27.0434 N.am    1  UNL1       -0.2758
     10 C           0.7309    3.5156   27.8752 C.3     1  UNL1        0.0951
     11 C           1.1631    2.3728   28.7454 C.3     1  UNL1        0.0362
     12 C           0.3527    1.1112   28.7838 C.3     1  UNL1        0.0487
     13 C          -0.0780   -0.2766   29.1559 C.3     1  UNL1        0.0161
     14 C          -0.8898    0.9922   27.9520 C.3     1  UNL1        0.0362
     15 C          -1.3220    2.1351   27.0818 C.3     1  UNL1        0.0951
     16 C          -3.5781    5.4647   27.2709 C.3     1  UNL1        0.0316
     17 C          -3.5035    4.8832   25.8902 C.ar    1  UNL1       -0.0058
     18 C          -4.7460    4.7644   25.0583 C.ar    1  UNL1        0.0730
     19 C          -4.6714    4.1829   23.6776 C.ar    1  UNL1        0.3010
     20 N          -3.3543    3.7203   23.1288 N.ar    1  UNL1       -0.1606
     21 O          -3.2798    3.1388   21.7481 O.co2   1  UNL1       -0.6190
     22 C          -2.1118    3.8391   23.9607 C.ar    1  UNL1        0.2180
     23 C          -0.7947    3.3765   23.4118 C.3     1  UNL1        0.1093
     24 C          -2.1864    4.4206   25.3413 C.ar    1  UNL1        0.1099
     25 N           4.7246   -0.3411   32.6280 N.pl3   1  UNL1       -0.2872
     26 C           5.7548   -1.3606   32.2419 C.ar    1  UNL1        0.0516
     27 C           5.5369   -2.8082   32.5692 C.ar    1  UNL1        0.0148
     28 C           6.5671   -3.8278   32.1832 C.ar    1  UNL1        0.0013
     29 C           7.8153   -3.3999   31.4698 C.ar    1  UNL1        0.0001
     30 C           8.0332   -1.9523   31.1425 C.ar    1  UNL1        0.0013
     31 C           7.0030   -0.9327   31.5285 C.ar    1  UNL1        0.0148
     32 C           4.7873    0.3154   33.9752 C.ar    1  UNL1        0.0710
     33 C           4.4457   -0.4680   35.2079 C.ar    1  UNL1        0.0180
     34 C           4.5084    0.1885   36.5552 C.ar    1  UNL1        0.0220
     35 C           4.9126    1.6284   36.6697 C.ar    1  UNL1        0.0990
     36 N           5.2541    2.4119   35.4371 N.ar    1  UNL1       -0.2410
     37 C           5.1914    1.7554   34.0898 C.ar    1  UNL1        0.1136
@<TRIPOS>UNITY_ATOM_ATTR
20 1
charge 1
21 1
charge -1
@<TRIPOS>BOND
     1    16    17    1
     2    17    18   ar
     3    18    19   ar
     4    19    20   ar
     5    20    21    1
     6    20    22   ar
     7    22    23    1
     8    22    24   ar
     9    24     7    1
    10     7     8    2
    11     7     9   am
    12     9    10    1
    13    10    11    1
    14    11    12    1
    15    12    13    1
    16    12     1    1
    17     1     2    1
    18     2     3    1
    19     3     4    1
    20     4    25    1
    21    25    26    1
    22    26    27   ar
    23    27    28   ar
    24    28    29   ar
    25    29    30   ar
    26    30    31   ar
    27    25    32    1
    28    32    33   ar
    29    33    34   ar
    30    34    35   ar
    31    35    36   ar
    32    36    37   ar
    33     4     5    1
    34     5     6    1
    35    12    14    1
    36    14    15    1
    37    24    17   ar
    38    15     9    1
    39     6     1    1
    40    31    26   ar
    41    37    32   ar
