@<TRIPOS>MOLECULE
*****
 37 41 0 0 0
SMALL
GASTEIGER

@<TRIPOS>ATOM
      1 C           5.5814   -3.0382   21.4274 C.3     1  UNL1        0.0342
      2 C           4.8579   -2.3250   22.5310 C.ar    1  UNL1        0.0151
      3 C           3.8153   -1.2978   22.2030 C.ar    1  UNL1        0.0990
      4 N           3.0917   -0.5846   23.3066 N.ar    1  UNL1       -0.2123
      5 C           3.1686   -0.6600   24.8446 C.ar    1  UNL1        0.2207
      6 N           4.1173   -1.5950   24.1550 N.ar    1  UNL1       -0.2139
      7 C           5.1770   -2.6392   23.9626 C.ar    1  UNL1        0.0817
      8 C           6.2196   -3.6665   24.2906 C.ar    1  UNL1        0.0172
      9 C           6.9432   -4.3796   23.1870 C.ar    1  UNL1        0.0015
     10 C           7.9858   -5.4069   23.5151 C.ar    1  UNL1       -0.0002
     11 C           8.3049   -5.7210   24.9467 C.ar    1  UNL1       -0.0019
     12 C           7.5814   -5.0079   26.0502 C.ar    1  UNL1        0.0073
     13 C           6.5387   -3.9806   25.7222 C.ar    1  UNL1       -0.0004
     14 C           8.0872   -5.5060   27.7232 C.3     1  UNL1        0.1691
     15 O           8.0383   -5.4575   29.2216 O.3     1  UNL1       -0.3443
     16 C           7.6273   -5.0523   30.6061 C.3     1  UNL1        0.1686
     17 C           6.9038   -4.3391   31.7097 C.2     1  UNL1        0.0036
     18 C           5.9550   -3.4041   32.3993 C.2     1  UNL1        0.0036
     19 C           4.8954   -2.3600   32.5917 C.3     1  UNL1        0.1686
     20 O           3.8527   -1.3328   32.2636 O.3     1  UNL1       -0.3442
     21 C           2.9528   -0.4462   31.4548 C.3     1  UNL1        0.1721
     22 C           2.3042    0.1927   30.2627 C.ar    1  UNL1        0.0425
     23 C           1.9851    0.5068   28.8311 C.ar    1  UNL1        0.0158
     24 C           2.0340    0.4583   27.3327 C.ar    1  UNL1        0.0504
     25 C           1.0070    1.4704   27.8784 C.ar    1  UNL1        0.0178
     26 C           0.5960    1.8757   29.2630 C.ar    1  UNL1        0.0379
     27 C           1.2445    1.2368   30.4551 C.ar    1  UNL1        0.1370
     28 N           2.4450    0.0531   25.9482 N.pl3   1  UNL1       -0.2825
     29 H           1.8544    0.6349   25.4173 H       1  UNL1        0.1551
     30 O           0.8336    1.6420   31.8396 O.3     1  UNL1       -0.4742
     31 C           1.6915    2.5845   32.6309 C.3     1  UNL1        0.2226
     32 C           2.3674    2.1111   33.8834 C.3     1  UNL1        0.1200
     33 N           2.2114    2.8857   35.1584 N.3     1  UNL1       -0.2696
     34 C           2.6163    2.4228   36.5266 C.3     1  UNL1        0.0722
     35 C           2.2783    3.5103   37.5028 C.3     1  UNL1        0.0188
     36 C           1.6644    4.6454   36.7381 C.3     1  UNL1        0.0188
     37 C           1.6231    4.2594   35.2892 C.3     1  UNL1        0.0722
@<TRIPOS>BOND
     1     1     2    1
     2     2     3   ar
     3     3     4   ar
     4     4     5   ar
     5     5     6   ar
     6     6     7   ar
     7     7     8    1
     8     8     9   ar
     9     9    10   ar
    10    10    11   ar
    11    11    12   ar
    12    12    13   ar
    13    12    14    1
    14    14    15    1
    15    15    16    1
    16    16    17    1
    17    17    18    2
    18    18    19    1
    19    19    20    1
    20    20    21    1
    21    21    22    1
    22    22    23   ar
    23    23    24   ar
    24    24    25   ar
    25    25    26   ar
    26    26    27   ar
    27    27    30    1
    28    30    31    1
    29    31    32    1
    30    32    33    1
    31    33    34    1
    32    34    35    1
    33    35    36    1
    34    36    37    1
    35    24    28    1
    36     7     2   ar
    37    13     8   ar
    38    27    22   ar
    39    37    33    1
    40    28     5    1
    41    28    29    1
@<TRIPOS>MOLECULE
*****
 37 41 0 0 0
SMALL
GASTEIGER

@<TRIPOS>ATOM
      1 C           1.8950    1.7217   32.0623 C.3     1  UNL1        0.0342
      2 C           2.1336    1.3055   30.6411 C.ar    1  UNL1        0.0151
      3 C           1.4325    2.0183   29.5230 C.ar    1  UNL1        0.0990
      4 N           1.6711    1.6021   28.1017 N.ar    1  UNL1       -0.2123
      5 C           2.5475    0.5137   27.4504 C.ar    1  UNL1        0.2207
      6 N           2.6472    0.5411   28.9468 N.ar    1  UNL1       -0.2139
      7 C           3.0734    0.1764   30.3380 C.ar    1  UNL1        0.0817
      8 C           3.7746   -0.5365   31.4562 C.ar    1  UNL1        0.0172
      9 C           3.5360   -0.1203   32.8773 C.ar    1  UNL1        0.0015
     10 C           4.2371   -0.8331   33.9954 C.ar    1  UNL1       -0.0002
     11 C           5.1770   -1.9622   33.6923 C.ar    1  UNL1       -0.0019
     12 C           5.4156   -2.3785   32.2712 C.ar    1  UNL1        0.0073
     13 C           4.7144   -1.6656   31.1531 C.ar    1  UNL1       -0.0004
     14 C           6.5805   -3.7602   32.0799 C.3     1  UNL1        0.1691
     15 O           7.3723   -4.7626   31.2936 O.3     1  UNL1       -0.3443
     16 C           7.9206   -5.5175   30.1191 C.3     1  UNL1        0.1686
     17 C           8.1592   -5.9338   28.6979 C.2     1  UNL1        0.0036
     18 C           8.0594   -5.9612   27.2015 C.2     1  UNL1        0.0036
     19 C           7.6332   -5.5965   25.8103 C.3     1  UNL1        0.1686
     20 O           6.9321   -4.8836   24.6922 O.3     1  UNL1       -0.3442
     21 C           6.0404   -3.9086   23.9820 C.3     1  UNL1        0.1721
     22 C           5.0660   -2.7890   23.7654 C.ar    1  UNL1        0.0425
     23 C           4.1262   -1.6599   24.0685 C.ar    1  UNL1        0.0158
     24 C           3.3344   -0.6575   24.8547 C.ar    1  UNL1        0.0504
     25 C           3.1170   -0.5498   23.3322 C.ar    1  UNL1        0.0178
     26 C           3.6653   -1.3047   22.1576 C.ar    1  UNL1        0.0379
     27 C           4.6398   -2.4243   22.3742 C.ar    1  UNL1        0.1370
     28 N           2.7861    0.0974   26.0293 N.pl3   1  UNL1       -0.2825
     29 H           2.2009    0.7373   25.5631 H       1  UNL1        0.1551
     30 O           5.1881   -3.1792   21.1997 O.3     1  UNL1       -0.4742
     31 C           4.2860   -4.0600   20.3869 C.3     1  UNL1        0.2226
     32 C           3.5347   -3.4909   19.2200 C.3     1  UNL1        0.1200
     33 N           3.9668   -2.1892   18.6127 N.3     1  UNL1       -0.2696
     34 C           5.2802   -1.9238   17.9384 C.3     1  UNL1        0.0722
     35 C           5.2864   -0.4949   17.4820 C.3     1  UNL1        0.0188
     36 C           3.9770    0.1228   17.8742 C.3     1  UNL1        0.0188
     37 C           3.1614   -0.9243   18.5730 C.3     1  UNL1        0.0722
@<TRIPOS>BOND
     1     1     2    1
     2     2     3   ar
     3     3     4   ar
     4     4     5   ar
     5     5     6   ar
     6     6     7   ar
     7     7     8    1
     8     8     9   ar
     9     9    10   ar
    10    10    11   ar
    11    11    12   ar
    12    12    13   ar
    13    12    14    1
    14    14    15    1
    15    15    16    1
    16    16    17    1
    17    17    18    2
    18    18    19    1
    19    19    20    1
    20    20    21    1
    21    21    22    1
    22    22    23   ar
    23    23    24   ar
    24    24    25   ar
    25    25    26   ar
    26    26    27   ar
    27    27    30    1
    28    30    31    1
    29    31    32    1
    30    32    33    1
    31    33    34    1
    32    34    35    1
    33    35    36    1
    34    36    37    1
    35    24    28    1
    36     7     2   ar
    37    13     8   ar
    38    27    22   ar
    39    37    33    1
    40    28     5    1
    41    28    29    1
@<TRIPOS>MOLECULE
*****
 37 41 0 0 0
SMALL
GASTEIGER

@<TRIPOS>ATOM
      1 C           9.5357   -7.9913   28.1820 C.3     1  UNL1        0.0342
      2 C           8.7736   -6.9963   29.0062 C.ar    1  UNL1        0.0151
      3 C           8.8608   -7.0387   30.5031 C.ar    1  UNL1        0.0990
      4 N           8.0987   -6.0437   31.3273 N.ar    1  UNL1       -0.2123
      5 C           7.1569   -4.8756   30.9729 C.ar    1  UNL1        0.2207
      6 N           7.6881   -5.5974   29.7701 N.ar    1  UNL1       -0.2139
      7 C           7.9243   -5.9588   28.3335 C.ar    1  UNL1        0.0817
      8 C           7.8371   -5.9164   26.8366 C.ar    1  UNL1        0.0172
      9 C           8.5992   -6.9114   26.0125 C.ar    1  UNL1        0.0015
     10 C           8.5119   -6.8690   24.5157 C.ar    1  UNL1       -0.0002
     11 C           7.6626   -5.8316   23.8430 C.ar    1  UNL1       -0.0019
     12 C           6.9006   -4.8366   24.6671 C.ar    1  UNL1        0.0073
     13 C           6.9878   -4.8790   26.1639 C.ar    1  UNL1       -0.0004
     14 C           5.9229   -3.6511   23.6968 C.3     1  UNL1        0.1691
     15 O           4.9916   -2.4881   23.5231 O.3     1  UNL1       -0.3443
     16 C           4.0905   -1.3399   23.8691 C.3     1  UNL1        0.1686
     17 C           3.3284   -0.3449   24.6934 C.2     1  UNL1        0.0036
     18 C           2.7973    0.3768   25.8962 C.2     1  UNL1        0.0036
     19 C           2.5611    0.7383   27.3327 C.3     1  UNL1        0.1686
     20 O           2.6483    0.6958   28.8295 O.3     1  UNL1       -0.3442
     21 C           3.0484    0.2546   30.2063 C.3     1  UNL1        0.1721
     22 C           3.7132   -0.5321   31.2966 C.ar    1  UNL1        0.0425
     23 C           4.5625   -1.5695   31.9693 C.ar    1  UNL1        0.0158
     24 C           5.4938   -2.7324   32.1431 C.ar    1  UNL1        0.0504
     25 C           5.0429   -2.1056   33.4776 C.ar    1  UNL1        0.0178
     26 C           4.1418   -0.9574   33.8236 C.ar    1  UNL1        0.0379
     27 C           3.4770   -0.1707   32.7332 C.ar    1  UNL1        0.1370
     28 N           6.3949   -3.8807   31.7971 N.pl3   1  UNL1       -0.2825
     29 H           6.6575   -4.1702   32.7006 H       1  UNL1        0.1551
     30 O           2.5760    0.9775   33.0792 O.3     1  UNL1       -0.4742
     31 C           3.1402    2.2017   33.7374 C.3     1  UNL1        0.2226
     32 C           2.3067    2.9817   34.7104 C.3     1  UNL1        0.1200
     33 N           2.4057    2.6967   36.1797 N.3     1  UNL1       -0.2696
     34 C           1.9903    3.6196   37.2869 C.3     1  UNL1        0.0722
     35 C           2.2654    2.9319   38.5913 C.3     1  UNL1        0.0188
     36 C           2.8507    1.5840   38.2904 C.3     1  UNL1        0.0188
     37 C           2.9374    1.4386   36.8000 C.3     1  UNL1        0.0722
@<TRIPOS>BOND
     1     1     2    1
     2     2     3   ar
     3     3     4   ar
     4     4     5   ar
     5     5     6   ar
     6     6     7   ar
     7     7     8    1
     8     8     9   ar
     9     9    10   ar
    10    10    11   ar
    11    11    12   ar
    12    12    13   ar
    13    12    14    1
    14    14    15    1
    15    15    16    1
    16    16    17    1
    17    17    18    2
    18    18    19    1
    19    19    20    1
    20    20    21    1
    21    21    22    1
    22    22    23   ar
    23    23    24   ar
    24    24    25   ar
    25    25    26   ar
    26    26    27   ar
    27    27    30    1
    28    30    31    1
    29    31    32    1
    30    32    33    1
    31    33    34    1
    32    34    35    1
    33    35    36    1
    34    36    37    1
    35    24    28    1
    36     7     2   ar
    37    13     8   ar
    38    27    22   ar
    39    37    33    1
    40    28     5    1
    41    28    29    1
@<TRIPOS>MOLECULE
*****
 37 41 0 0 0
SMALL
GASTEIGER

@<TRIPOS>ATOM
      1 C           3.6989   -1.1547   17.0979 C.3     1  UNL1        0.0342
      2 C           4.3519   -1.7005   18.3332 C.ar    1  UNL1        0.0151
      3 C           5.4839   -2.6773   18.2139 C.ar    1  UNL1        0.0990
      4 N           6.1368   -3.2231   19.4492 N.ar    1  UNL1       -0.2123
      5 C           5.9025   -3.0008   20.9567 C.ar    1  UNL1        0.2207
      6 N           4.9708   -2.2100   20.0869 N.ar    1  UNL1       -0.2139
      7 C           3.8728   -1.2694   19.6876 C.ar    1  UNL1        0.0817
      8 C           2.7407   -0.2924   19.8068 C.ar    1  UNL1        0.0172
      9 C           2.0878    0.2533   18.5716 C.ar    1  UNL1        0.0015
     10 C           0.9558    1.2301   18.6908 C.ar    1  UNL1       -0.0002
     11 C           0.4767    1.6613   20.0453 C.ar    1  UNL1       -0.0019
     12 C           1.1296    1.1155   21.2805 C.ar    1  UNL1        0.0073
     13 C           2.2616    0.1387   21.1613 C.ar    1  UNL1       -0.0004
     14 C           0.4295    1.7398   22.8371 C.3     1  UNL1        0.1691
     15 O           0.3318    1.8442   24.3303 O.3     1  UNL1       -0.3443
     16 C           0.6271    1.6095   25.7820 C.3     1  UNL1        0.1686
     17 C           1.2801    1.0637   27.0173 C.2     1  UNL1        0.0036
     18 C           2.2118    0.2728   27.8871 C.2     1  UNL1        0.0036
     19 C           3.3099   -0.6678   28.2864 C.3     1  UNL1        0.1686
     20 O           4.4419   -1.6446   28.1671 O.3     1  UNL1       -0.3442
     21 C           5.4713   -2.5400   27.5437 C.3     1  UNL1        0.1721
     22 C           6.2740   -3.2457   26.4913 C.ar    1  UNL1        0.0425
     23 C           6.7531   -3.6769   25.1369 C.ar    1  UNL1        0.0158
     24 C           6.8508   -3.7813   23.6437 C.ar    1  UNL1        0.0504
     25 C           7.8794   -4.6574   24.3865 C.ar    1  UNL1        0.0178
     26 C           8.1748   -4.8922   25.8383 C.ar    1  UNL1        0.0379
     27 C           7.3721   -4.1864   26.8907 C.ar    1  UNL1        0.1370
     28 N           6.5554   -3.5465   22.1919 N.pl3   1  UNL1       -0.2825
     29 H           7.2311   -4.1342   21.7828 H       1  UNL1        0.1551
     30 O           7.6675   -4.4211   28.3424 O.3     1  UNL1       -0.4742
     31 C           6.9845   -5.5374   29.0758 C.3     1  UNL1        0.2226
     32 C           6.9655   -5.5482   30.5756 C.3     1  UNL1        0.1200
     33 N           7.2627   -4.2914   31.3384 N.3     1  UNL1       -0.2696
     34 C           8.6267   -3.7673   31.6774 C.3     1  UNL1        0.0722
     35 C           8.4549   -2.4899   32.4447 C.3     1  UNL1        0.0188
     36 C           6.9848   -2.2244   32.5799 C.3     1  UNL1        0.0188
     37 C           6.2479   -3.3377   31.8962 C.3     1  UNL1        0.0722
@<TRIPOS>BOND
     1     1     2    1
     2     2     3   ar
     3     3     4   ar
     4     4     5   ar
     5     5     6   ar
     6     6     7   ar
     7     7     8    1
     8     8     9   ar
     9     9    10   ar
    10    10    11   ar
    11    11    12   ar
    12    12    13   ar
    13    12    14    1
    14    14    15    1
    15    15    16    1
    16    16    17    1
    17    17    18    2
    18    18    19    1
    19    19    20    1
    20    20    21    1
    21    21    22    1
    22    22    23   ar
    23    23    24   ar
    24    24    25   ar
    25    25    26   ar
    26    26    27   ar
    27    27    30    1
    28    30    31    1
    29    31    32    1
    30    32    33    1
    31    33    34    1
    32    34    35    1
    33    35    36    1
    34    36    37    1
    35    24    28    1
    36     7     2   ar
    37    13     8   ar
    38    27    22   ar
    39    37    33    1
    40    28     5    1
    41    28    29    1
@<TRIPOS>MOLECULE
*****
 37 41 0 0 0
SMALL
GASTEIGER

@<TRIPOS>ATOM
      1 C           7.5727   -3.7779   31.8980 C.3     1  UNL1        0.0342
      2 C           7.0630   -3.4957   30.5156 C.ar    1  UNL1        0.0151
      3 C           7.6156   -4.2515   29.3437 C.ar    1  UNL1        0.0990
      4 N           7.1059   -3.9692   27.9614 N.ar    1  UNL1       -0.2123
      5 C           6.0497   -2.9961   27.4008 C.ar    1  UNL1        0.2207
      6 N           6.2097   -2.9071   28.8896 N.ar    1  UNL1       -0.2139
      7 C           6.0009   -2.4576   30.3053 C.ar    1  UNL1        0.0817
      8 C           5.4483   -1.7018   31.4773 C.ar    1  UNL1        0.0172
      9 C           5.9580   -1.9840   32.8595 C.ar    1  UNL1        0.0015
     10 C           5.4054   -1.2282   34.0314 C.ar    1  UNL1       -0.0002
     11 C           4.3433   -0.1901   33.8211 C.ar    1  UNL1       -0.0019
     12 C           3.8337    0.0921   32.4389 C.ar    1  UNL1        0.0073
     13 C           4.3862   -0.6637   31.2670 C.ar    1  UNL1       -0.0004
     14 C           2.5500    1.3762   32.3605 C.3     1  UNL1        0.1691
     15 O           1.5604    2.2581   31.6585 O.3     1  UNL1       -0.3443
     16 C           0.7627    2.8776   30.5495 C.3     1  UNL1        0.1686
     17 C           0.2530    3.1599   29.1672 C.2     1  UNL1        0.0036
     18 C           0.0930    3.0709   27.6785 C.2     1  UNL1        0.0036
     19 C           0.3018    2.6214   26.2627 C.3     1  UNL1        0.1686
     20 O           0.8544    1.8655   25.0908 O.3     1  UNL1       -0.3442
     21 C           1.6840    0.8946   24.3040 C.3     1  UNL1        0.1721
     22 C           2.6905   -0.1744   23.9973 C.ar    1  UNL1        0.0425
     23 C           3.7527   -1.2125   24.2076 C.ar    1  UNL1        0.0158
     24 C           4.7423   -2.0944   24.9096 C.ar    1  UNL1        0.0504
     25 C           4.7037   -2.3124   23.3838 C.ar    1  UNL1        0.0178
     26 C           3.9059   -1.6929   22.2748 C.ar    1  UNL1        0.0379
     27 C           2.8994   -0.6239   22.5815 C.ar    1  UNL1        0.1370
     28 N           5.5400   -2.7139   26.0186 N.pl3   1  UNL1       -0.2825
     29 H           6.0845   -3.3511   25.5022 H       1  UNL1        0.1551
     30 O           2.1016   -0.0044   21.4726 O.3     1  UNL1       -0.4742
     31 C           1.8405   -0.7778   20.2140 C.3     1  UNL1        0.2226
     32 C           2.7846   -0.6633   19.0540 C.3     1  UNL1        0.1200
     33 N           3.8091   -1.7320   18.8127 N.3     1  UNL1       -0.2696
     34 C           5.1978   -1.5196   18.2869 C.3     1  UNL1        0.0722
     35 C           5.8718   -2.8571   18.2041 C.3     1  UNL1        0.0188
     36 C           4.8997   -3.8962   18.6788 C.3     1  UNL1        0.0188
     37 C           3.6249   -3.2009   19.0549 C.3     1  UNL1        0.0722
@<TRIPOS>BOND
     1     1     2    1
     2     2     3   ar
     3     3     4   ar
     4     4     5   ar
     5     5     6   ar
     6     6     7   ar
     7     7     8    1
     8     8     9   ar
     9     9    10   ar
    10    10    11   ar
    11    11    12   ar
    12    12    13   ar
    13    12    14    1
    14    14    15    1
    15    15    16    1
    16    16    17    1
    17    17    18    2
    18    18    19    1
    19    19    20    1
    20    20    21    1
    21    21    22    1
    22    22    23   ar
    23    23    24   ar
    24    24    25   ar
    25    25    26   ar
    26    26    27   ar
    27    27    30    1
    28    30    31    1
    29    31    32    1
    30    32    33    1
    31    33    34    1
    32    34    35    1
    33    35    36    1
    34    36    37    1
    35    24    28    1
    36     7     2   ar
    37    13     8   ar
    38    27    22   ar
    39    37    33    1
    40    28     5    1
    41    28    29    1
@<TRIPOS>MOLECULE
*****
 37 41 0 0 0
SMALL
GASTEIGER

@<TRIPOS>ATOM
      1 C           9.5337   -7.9239   28.5263 C.3     1  UNL1        0.0342
      2 C           8.7403   -6.8852   29.2623 C.ar    1  UNL1        0.0151
      3 C           8.7773   -6.8357   30.7610 C.ar    1  UNL1        0.0990
      4 N           7.9839   -5.7970   31.4970 N.ar    1  UNL1       -0.2123
      5 C           7.0498   -4.6585   31.0407 C.ar    1  UNL1        0.2207
      6 N           7.6240   -5.4491   29.9026 N.ar    1  UNL1       -0.2139
      7 C           7.9099   -5.8960   28.4995 C.ar    1  UNL1        0.0817
      8 C           7.8728   -5.9455   27.0007 C.ar    1  UNL1        0.0172
      9 C           8.6662   -6.9842   26.2648 C.ar    1  UNL1        0.0015
     10 C           8.6292   -7.0337   24.7661 C.ar    1  UNL1       -0.0002
     11 C           7.7988   -6.0445   24.0033 C.ar    1  UNL1       -0.0019
     12 C           7.0054   -5.0058   24.7393 C.ar    1  UNL1        0.0073
     13 C           7.0424   -4.9563   26.2379 C.ar    1  UNL1       -0.0004
     14 C           6.0560   -3.8877   23.6663 C.3     1  UNL1        0.1691
     15 O           5.1263   -2.7432   23.3908 O.3     1  UNL1       -0.3443
     16 C           4.2095   -1.5816   23.6357 C.3     1  UNL1        0.1686
     17 C           3.4160   -0.5429   24.3717 C.2     1  UNL1        0.0036
     18 C           2.8418    0.2476   25.5098 C.2     1  UNL1        0.0036
     19 C           2.5559    0.6946   26.9129 C.3     1  UNL1        0.1686
     20 O           2.5930    0.7441   28.4116 O.3     1  UNL1       -0.3442
     21 C           2.9485    0.3901   29.8252 C.3     1  UNL1        0.1721
     22 C           3.5794   -0.3246   30.9832 C.ar    1  UNL1        0.0425
     23 C           4.4099   -1.3138   31.7460 C.ar    1  UNL1        0.0158
     24 C           5.3395   -2.4582   32.0216 C.ar    1  UNL1        0.0504
     25 C           4.8414   -1.7539   33.2994 C.ar    1  UNL1        0.0178
     26 C           3.9246   -0.5923   33.5444 C.ar    1  UNL1        0.0379
     27 C           3.2936    0.1224   32.3864 C.ar    1  UNL1        0.1370
     28 N           6.2564   -3.6198   31.7766 N.pl3   1  UNL1       -0.2825
     29 H           6.4897   -3.8521   32.7044 H       1  UNL1        0.1551
     30 O           2.3767    1.2840   32.6313 O.3     1  UNL1       -0.4742
     31 C           2.3578    1.9547   33.9730 C.3     1  UNL1        0.2226
     32 C           2.4874    3.4460   34.0678 C.3     1  UNL1        0.1200
     33 N           1.2904    4.3191   33.8338 N.3     1  UNL1       -0.2696
     34 C           0.3134    4.1914   32.7027 C.3     1  UNL1        0.0722
     35 C          -0.7206    5.2667   32.8597 C.3     1  UNL1        0.0188
     36 C          -0.3827    6.0590   34.0877 C.3     1  UNL1        0.0188
     37 C           0.8601    5.4734   34.6898 C.3     1  UNL1        0.0722
@<TRIPOS>BOND
     1     1     2    1
     2     2     3   ar
     3     3     4   ar
     4     4     5   ar
     5     5     6   ar
     6     6     7   ar
     7     7     8    1
     8     8     9   ar
     9     9    10   ar
    10    10    11   ar
    11    11    12   ar
    12    12    13   ar
    13    12    14    1
    14    14    15    1
    15    15    16    1
    16    16    17    1
    17    17    18    2
    18    18    19    1
    19    19    20    1
    20    20    21    1
    21    21    22    1
    22    22    23   ar
    23    23    24   ar
    24    24    25   ar
    25    25    26   ar
    26    26    27   ar
    27    27    30    1
    28    30    31    1
    29    31    32    1
    30    32    33    1
    31    33    34    1
    32    34    35    1
    33    35    36    1
    34    36    37    1
    35    24    28    1
    36     7     2   ar
    37    13     8   ar
    38    27    22   ar
    39    37    33    1
    40    28     5    1
    41    28    29    1
@<TRIPOS>MOLECULE
*****
 37 41 0 0 0
SMALL
GASTEIGER

@<TRIPOS>ATOM
      1 C           7.3188   -4.0856   24.8552 C.3     1  UNL1        0.0342
      2 C           6.2339   -3.1410   25.2805 C.ar    1  UNL1        0.0151
      3 C           5.9780   -2.9006   26.7388 C.ar    1  UNL1        0.0990
      4 N           4.8931   -1.9561   27.1642 N.ar    1  UNL1       -0.2123
      5 C           3.8803   -1.0894   26.3896 C.ar    1  UNL1        0.2207
      6 N           4.7866   -1.8854   25.4980 N.ar    1  UNL1       -0.2139
      7 C           5.4050   -2.4368   24.2476 C.ar    1  UNL1        0.0817
      8 C           5.6610   -2.6772   22.7892 C.ar    1  UNL1        0.0172
      9 C           6.7459   -3.6217   22.3639 C.ar    1  UNL1        0.0015
     10 C           7.0018   -3.8620   20.9056 C.ar    1  UNL1       -0.0002
     11 C           6.1729   -3.1578   19.8726 C.ar    1  UNL1       -0.0019
     12 C           5.0881   -2.2133   20.2979 C.ar    1  UNL1        0.0073
     13 C           4.8322   -1.9730   21.7562 C.ar    1  UNL1       -0.0004
     14 C           4.1807   -1.4455   18.9232 C.3     1  UNL1        0.1691
     15 O           3.1370   -0.5498   18.3246 O.3     1  UNL1       -0.3443
     16 C           2.0044    0.4294   18.2322 C.3     1  UNL1        0.1686
     17 C           0.9196    1.3740   18.6576 C.2     1  UNL1        0.0036
     18 C           0.0132    2.1700   19.5492 C.2     1  UNL1        0.0036
     19 C          -0.6052    2.7214   20.7996 C.3     1  UNL1        0.1686
     20 O          -0.8611    2.9617   22.2579 O.3     1  UNL1       -0.3442
     21 C          -0.7237    2.8620   23.7483 C.3     1  UNL1        0.1721
     22 C          -0.2096    2.4342   25.0909 C.ar    1  UNL1        0.0425
     23 C           0.6193    1.7300   26.1239 C.ar    1  UNL1        0.0158
     24 C           1.6629    0.8344   26.7226 C.ar    1  UNL1        0.0504
     25 C           0.8186    1.5787   27.7762 C.ar    1  UNL1        0.0178
     26 C          -0.3140    2.5580   27.6840 C.ar    1  UNL1        0.0379
     27 C          -0.8281    2.9857   26.3414 C.ar    1  UNL1        0.1370
     28 N           2.7955   -0.1448   26.8149 N.pl3   1  UNL1       -0.2825
     29 H           2.8856   -0.2103   27.7931 H       1  UNL1        0.1551
     30 O          -1.9606    3.9649   26.2490 O.3     1  UNL1       -0.4742
     31 C          -3.3224    3.5860   26.7512 C.3     1  UNL1        0.2226
     32 C          -4.5261    4.3692   26.3182 C.3     1  UNL1        0.1200
     33 N          -5.1244    4.1364   24.9625 N.3     1  UNL1       -0.2696
     34 C          -4.5343    3.2931   23.8713 C.3     1  UNL1        0.0722
     35 C          -5.4630    3.3416   22.6944 C.3     1  UNL1        0.0188
     36 C          -6.6272    4.2148   23.0582 C.3     1  UNL1        0.0188
     37 C          -6.4179    4.7060   24.4599 C.3     1  UNL1        0.0722
@<TRIPOS>BOND
     1     1     2    1
     2     2     3   ar
     3     3     4   ar
     4     4     5   ar
     5     5     6   ar
     6     6     7   ar
     7     7     8    1
     8     8     9   ar
     9     9    10   ar
    10    10    11   ar
    11    11    12   ar
    12    12    13   ar
    13    12    14    1
    14    14    15    1
    15    15    16    1
    16    16    17    1
    17    17    18    2
    18    18    19    1
    19    19    20    1
    20    20    21    1
    21    21    22    1
    22    22    23   ar
    23    23    24   ar
    24    24    25   ar
    25    25    26   ar
    26    26    27   ar
    27    27    30    1
    28    30    31    1
    29    31    32    1
    30    32    33    1
    31    33    34    1
    32    34    35    1
    33    35    36    1
    34    36    37    1
    35    24    28    1
    36     7     2   ar
    37    13     8   ar
    38    27    22   ar
    39    37    33    1
    40    28     5    1
    41    28    29    1
@<TRIPOS>MOLECULE
*****
 37 41 0 0 0
SMALL
GASTEIGER

@<TRIPOS>ATOM
      1 C           5.0073    0.2897   31.4406 C.3     1  UNL1        0.0342
      2 C           5.1555    0.2279   29.9491 C.ar    1  UNL1        0.0151
      3 C           4.7736    1.4095   29.1079 C.ar    1  UNL1        0.0990
      4 N           4.9218    1.3477   27.6164 N.ar    1  UNL1       -0.2123
      5 C           5.4197    0.2576   26.6465 C.ar    1  UNL1        0.2207
      6 N           5.4606   -0.1631   28.0857 N.ar    1  UNL1       -0.2139
      7 C           5.6855   -1.0157   29.2991 C.ar    1  UNL1        0.0817
      8 C           6.0673   -2.1974   30.1405 C.ar    1  UNL1        0.0172
      9 C           5.9191   -2.1355   31.6318 C.ar    1  UNL1        0.0015
     10 C           6.3010   -3.3172   32.4731 C.ar    1  UNL1       -0.0002
     11 C           6.8310   -4.5608   31.8230 C.ar    1  UNL1       -0.0019
     12 C           6.9791   -4.6227   30.3317 C.ar    1  UNL1        0.0073
     13 C           6.5973   -3.4410   29.4904 C.ar    1  UNL1       -0.0004
     14 C           7.6342   -6.1989   29.7079 C.3     1  UNL1        0.1691
     15 O           8.0861   -7.1464   28.6364 O.3     1  UNL1       -0.3443
     16 C           8.4054   -7.6835   27.2727 C.3     1  UNL1        0.1686
     17 C           8.5535   -7.7454   25.7813 C.2     1  UNL1        0.0036
     18 C           8.5127   -7.3247   24.3421 C.2     1  UNL1        0.0036
     19 C           8.2878   -6.4720   23.1287 C.3     1  UNL1        0.1686
     20 O           7.9060   -5.2903   22.2874 O.3     1  UNL1       -0.3442
     21 C           7.4133   -3.9221   21.9197 C.3     1  UNL1        0.1721
     22 C           6.8691   -2.5324   22.0699 C.ar    1  UNL1        0.0425
     23 C           6.3391   -1.2888   22.7200 C.ar    1  UNL1        0.0158
     24 C           5.8872   -0.3414   23.7914 C.ar    1  UNL1        0.0504
     25 C           5.7807    0.2470   22.3703 C.ar    1  UNL1        0.0178
     26 C           6.1000   -0.2901   21.0066 C.ar    1  UNL1        0.0379
     27 C           6.6442   -1.6797   20.8564 C.ar    1  UNL1        0.1370
     28 N           5.5679    0.1957   25.1551 N.pl3   1  UNL1       -0.2825
     29 H           5.2445    1.0937   24.9138 H       1  UNL1        0.1551
     30 O           6.9635   -2.2169   19.4928 O.3     1  UNL1       -0.4742
     31 C           5.8606   -2.7118   18.6046 C.3     1  UNL1        0.2226
     32 C           4.9682   -1.7330   17.9007 C.3     1  UNL1        0.1200
     33 N           3.7266   -1.2304   18.5759 N.3     1  UNL1       -0.2696
     34 C           2.9342   -0.0208   18.1770 C.3     1  UNL1        0.0722
     35 C           1.7773    0.1081   19.1231 C.3     1  UNL1        0.0188
     36 C           1.8548   -1.0218   20.1067 C.3     1  UNL1        0.0188
     37 C           3.0595   -1.8490   19.7685 C.3     1  UNL1        0.0722
@<TRIPOS>BOND
     1     1     2    1
     2     2     3   ar
     3     3     4   ar
     4     4     5   ar
     5     5     6   ar
     6     6     7   ar
     7     7     8    1
     8     8     9   ar
     9     9    10   ar
    10    10    11   ar
    11    11    12   ar
    12    12    13   ar
    13    12    14    1
    14    14    15    1
    15    15    16    1
    16    16    17    1
    17    17    18    2
    18    18    19    1
    19    19    20    1
    20    20    21    1
    21    21    22    1
    22    22    23   ar
    23    23    24   ar
    24    24    25   ar
    25    25    26   ar
    26    26    27   ar
    27    27    30    1
    28    30    31    1
    29    31    32    1
    30    32    33    1
    31    33    34    1
    32    34    35    1
    33    35    36    1
    34    36    37    1
    35    24    28    1
    36     7     2   ar
    37    13     8   ar
    38    27    22   ar
    39    37    33    1
    40    28     5    1
    41    28    29    1
@<TRIPOS>MOLECULE
*****
 37 41 0 0 0
SMALL
GASTEIGER

@<TRIPOS>ATOM
      1 C          -5.1840    5.1221   22.0989 C.3     1  UNL1        0.0342
      2 C          -4.0103    4.3927   21.5153 C.ar    1  UNL1        0.0151
      3 C          -3.8397    4.3155   20.0271 C.ar    1  UNL1        0.0990
      4 N          -2.6660    3.5861   19.4435 N.ar    1  UNL1       -0.2123
      5 C          -1.4786    2.8233   20.0641 C.ar    1  UNL1        0.2207
      6 N          -2.4171    3.3952   21.0850 N.ar    1  UNL1       -0.2139
      7 C          -3.0073    3.7405   22.4201 C.ar    1  UNL1        0.0817
      8 C          -3.1779    3.8177   23.9084 C.ar    1  UNL1        0.0172
      9 C          -4.3516    4.5471   24.4919 C.ar    1  UNL1        0.0015
     10 C          -4.5222    4.6243   25.9801 C.ar    1  UNL1       -0.0002
     11 C          -3.5191    3.9721   26.8849 C.ar    1  UNL1       -0.0019
     12 C          -2.3455    3.2427   26.3014 C.ar    1  UNL1        0.0073
     13 C          -2.1749    3.1656   24.8131 C.ar    1  UNL1       -0.0004
     14 C          -1.2283    2.5117   27.5343 C.3     1  UNL1        0.1691
     15 O          -0.0203    1.7396   27.9753 O.3     1  UNL1       -0.3443
     16 C           1.2470    0.9406   27.8996 C.3     1  UNL1        0.1686
     17 C           2.4207    0.2112   27.3160 C.2     1  UNL1        0.0036
     18 C           3.3592   -0.3606   26.2952 C.2     1  UNL1        0.0036
     19 C           3.9493   -0.7060   24.9601 C.3     1  UNL1        0.1686
     20 O           4.1199   -0.7832   23.4719 O.3     1  UNL1       -0.3442
     21 C           3.8504   -0.5829   22.0099 C.3     1  UNL1        0.1721
     22 C           3.1733   -0.1293   20.7506 C.ar    1  UNL1        0.0425
     23 C           2.1703    0.5229   19.8459 C.ar    1  UNL1        0.0158
     24 C           0.9623    1.2950   19.4048 C.ar    1  UNL1        0.0504
     25 C           1.8191    0.7778   18.2320 C.ar    1  UNL1        0.0178
     26 C           3.0864   -0.0211   18.1562 C.ar    1  UNL1        0.0379
     27 C           3.7635   -0.4747   19.4155 C.ar    1  UNL1        0.1370
     28 N          -0.3050    2.0939   19.4806 N.pl3   1  UNL1       -0.2825
     29 H          -0.4819    2.2254   18.5211 H       1  UNL1        0.1551
     30 O           5.0307   -1.2736   19.3398 O.3     1  UNL1       -0.4742
     31 C           5.0378   -2.6049   18.6484 C.3     1  UNL1        0.2226
     32 C           5.0153   -3.8691   19.4553 C.3     1  UNL1        0.1200
     33 N           5.5915   -3.8852   20.8402 N.3     1  UNL1       -0.2696
     34 C           4.8097   -3.9074   22.1202 C.3     1  UNL1        0.0722
     35 C           5.7857   -3.9178   23.2592 C.3     1  UNL1        0.0188
     36 C           7.1706   -3.9019   22.6833 C.3     1  UNL1        0.0188
     37 C           7.0506   -3.8818   21.1882 C.3     1  UNL1        0.0722
@<TRIPOS>BOND
     1     1     2    1
     2     2     3   ar
     3     3     4   ar
     4     4     5   ar
     5     5     6   ar
     6     6     7   ar
     7     7     8    1
     8     8     9   ar
     9     9    10   ar
    10    10    11   ar
    11    11    12   ar
    12    12    13   ar
    13    12    14    1
    14    14    15    1
    15    15    16    1
    16    16    17    1
    17    17    18    2
    18    18    19    1
    19    19    20    1
    20    20    21    1
    21    21    22    1
    22    22    23   ar
    23    23    24   ar
    24    24    25   ar
    25    25    26   ar
    26    26    27   ar
    27    27    30    1
    28    30    31    1
    29    31    32    1
    30    32    33    1
    31    33    34    1
    32    34    35    1
    33    35    36    1
    34    36    37    1
    35    24    28    1
    36     7     2   ar
    37    13     8   ar
    38    27    22   ar
    39    37    33    1
    40    28     5    1
    41    28    29    1
