@<TRIPOS>MOLECULE
*****
 29 32 0 0 0
SMALL
GASTEIGER

@<TRIPOS>ATOM
      1 C          -6.6527  -16.5695   23.9265 C.3     1  UNL1        0.0844
      2 C          -7.7723  -16.0109   24.7537 C.3     1  UNL1        0.0243
      3 C          -9.1966  -16.2771   24.3655 C.3     1  UNL1        0.0450
      4 C          -9.5011  -17.1019   23.1502 C.ar    1  UNL1        0.0349
      5 C          -8.3814  -17.6604   22.3230 C.ar    1  UNL1       -0.0062
      6 C          -8.9846  -18.4321   21.1869 C.ar    1  UNL1        0.0314
      7 C          -8.3677  -19.1985   20.0547 C.ar    1  UNL1        0.0043
      8 C          -9.2432  -19.8833   19.0476 C.ar    1  UNL1        0.0208
      9 C         -10.7358  -19.8016   19.1726 C.ar    1  UNL1        0.1005
     10 N         -11.3528  -19.0352   20.3048 N.ar    1  UNL1       -0.2268
     11 C         -10.4772  -18.3504   21.3119 C.ar    1  UNL1        0.1435
     12 N         -10.7963  -17.5283   22.5253 N.ar    1  UNL1       -0.3113
     13 C          -6.9572  -17.3943   22.7112 C.3     1  UNL1        0.0453
     14 C          -4.9200  -15.6275   25.6178 C.3     1  UNL1        0.1149
     15 N          -5.2283  -16.3033   24.3147 N.3     1  UNL1       -0.1551
     16 S          -4.1125  -16.7129   23.3997 S.O2    1  UNL1        0.0633
     17 O          -4.1230  -18.0867   24.0019 O.2     1  UNL1       -0.1528
     18 O          -4.1021  -15.3391   22.7975 O.2     1  UNL1       -0.1528
     19 C          -2.9968  -17.1224   22.4847 C.ar    1  UNL1        0.1223
     20 C          -2.7243  -18.5767   22.2383 C.ar    1  UNL1        0.0222
     21 C          -1.6085  -18.9862   21.3232 C.ar    1  UNL1        0.0310
     22 C          -0.7651  -17.9414   20.6545 C.ar    1  UNL1        0.1402
     23 F           0.3507  -18.3508   19.7395 F       1  UNL1       -0.2042
     24 C          -1.0376  -16.4870   20.9010 C.ar    1  UNL1        0.0310
     25 C          -2.1535  -16.0776   21.8160 C.ar    1  UNL1        0.0222
     26 C         -12.1697  -17.1917   23.0259 C.3     1  UNL1        0.1488
     27 C         -12.8449  -18.0865   24.0225 C.2     1  UNL1        0.0732
     28 O         -12.0246  -18.9811   24.9039 O.co2   1  UNL1       -0.5472
     29 O         -14.3405  -18.0867   24.1380 O.co2   1  UNL1       -0.5472
@<TRIPOS>UNITY_ATOM_ATTR
28 1
charge -1
@<TRIPOS>BOND
     1    14    15    1
     2     1    15    1
     3     1     2    1
     4     2     3    1
     5     3     4    1
     6     4     5   ar
     7     5     6   ar
     8     6     7   ar
     9     7     8   ar
    10     8     9   ar
    11     9    10   ar
    12    10    11   ar
    13    11    12   ar
    14    12    26    1
    15    26    27    1
    16    27    28   ar
    17    27    29   ar
    18     5    13    1
    19    15    16    1
    20    16    17    2
    21    16    18    2
    22    16    19    1
    23    19    20   ar
    24    20    21   ar
    25    21    22   ar
    26    22    23    1
    27    22    24   ar
    28    24    25   ar
    29    13     1    1
    30    25    19   ar
    31    12     4   ar
    32    11     6   ar
@<TRIPOS>MOLECULE
*****
 29 32 0 0 0
SMALL
GASTEIGER

@<TRIPOS>ATOM
      1 C          -6.8593  -19.1724   21.0137 C.3     1  UNL1        0.0844
      2 C          -8.2092  -19.1487   20.3600 C.3     1  UNL1        0.0243
      3 C          -9.3235  -18.3503   20.9690 C.3     1  UNL1        0.0450
      4 C          -9.0879  -17.5756   22.2317 C.ar    1  UNL1        0.0349
      5 C          -7.7381  -17.5994   22.8854 C.ar    1  UNL1       -0.0062
      6 C          -7.8035  -16.7429   24.1152 C.ar    1  UNL1        0.0314
      7 C          -6.7767  -16.3952   25.1519 C.ar    1  UNL1        0.0043
      8 C          -7.1402  -15.4945   26.2949 C.ar    1  UNL1        0.0208
      9 C          -8.5304  -14.9415   26.4012 C.ar    1  UNL1        0.1005
     10 N          -9.5572  -15.2892   25.3645 N.ar    1  UNL1       -0.2268
     11 C          -9.1937  -16.1899   24.2215 C.ar    1  UNL1        0.1435
     12 N          -9.9875  -16.7046   23.0574 N.ar    1  UNL1       -0.3113
     13 C          -6.6238  -18.3977   22.2764 C.3     1  UNL1        0.0453
     14 C          -6.0075  -21.3565   19.8939 C.3     1  UNL1        0.1149
     15 N          -5.7449  -19.9708   20.4047 N.3     1  UNL1       -0.1551
     16 S          -4.3682  -19.3835   20.3066 S.O2    1  UNL1        0.0633
     17 O          -4.8454  -18.4433   19.2396 O.2     1  UNL1       -0.1528
     18 O          -3.8911  -20.3238   21.3736 O.2     1  UNL1       -0.1528
     19 C          -2.9915  -18.7963   20.2085 C.ar    1  UNL1        0.1223
     20 C          -2.4457  -18.3831   18.8738 C.ar    1  UNL1        0.0222
     21 C          -1.0689  -17.7958   18.7758 C.ar    1  UNL1        0.0310
     22 C          -0.2379  -17.6217   20.0124 C.ar    1  UNL1        0.1402
     23 F           1.1389  -17.0344   19.9144 F       1  UNL1       -0.2042
     24 C          -0.7838  -18.0349   21.3471 C.ar    1  UNL1        0.0310
     25 C          -2.1606  -18.6222   21.4451 C.ar    1  UNL1        0.0222
     26 C         -11.4281  -16.4013   22.7697 C.3     1  UNL1        0.1488
     27 C         -12.4125  -17.5214   22.6078 C.2     1  UNL1        0.0732
     28 O         -12.9893  -17.8235   21.2564 O.co2   1  UNL1       -0.5472
     29 O         -12.8203  -18.3394   23.7972 O.co2   1  UNL1       -0.5472
@<TRIPOS>UNITY_ATOM_ATTR
28 1
charge -1
@<TRIPOS>BOND
     1    14    15    1
     2     1    15    1
     3     1     2    1
     4     2     3    1
     5     3     4    1
     6     4     5   ar
     7     5     6   ar
     8     6     7   ar
     9     7     8   ar
    10     8     9   ar
    11     9    10   ar
    12    10    11   ar
    13    11    12   ar
    14    12    26    1
    15    26    27    1
    16    27    28   ar
    17    27    29   ar
    18     5    13    1
    19    15    16    1
    20    16    17    2
    21    16    18    2
    22    16    19    1
    23    19    20   ar
    24    20    21   ar
    25    21    22   ar
    26    22    23    1
    27    22    24   ar
    28    24    25   ar
    29    13     1    1
    30    25    19   ar
    31    12     4   ar
    32    11     6   ar
@<TRIPOS>MOLECULE
*****
 29 32 0 0 0
SMALL
GASTEIGER

@<TRIPOS>ATOM
      1 C           0.6167    2.2472   19.9772 C.3     1  UNL1        0.0844
      2 C           0.8370    1.6921   18.6012 C.3     1  UNL1        0.0243
      3 C           1.6921    0.4744   18.4117 C.3     1  UNL1        0.0450
      4 C           2.3268   -0.1884   19.5983 C.ar    1  UNL1        0.0349
      5 C           2.1065    0.3667   20.9743 C.ar    1  UNL1       -0.0062
      6 C           2.8565   -0.4944   21.9470 C.ar    1  UNL1        0.0314
      7 C           3.0051   -0.4289   23.4382 C.ar    1  UNL1        0.0043
      8 C           3.8374   -1.4506   24.1545 C.ar    1  UNL1        0.0208
      9 C           4.5212   -2.5378   23.3797 C.ar    1  UNL1        0.1005
     10 N           4.3727   -2.6033   21.8885 N.ar    1  UNL1       -0.2268
     11 C           3.5403   -1.5816   21.1722 C.ar    1  UNL1        0.1435
     12 N           3.2129   -1.3925   19.7206 N.ar    1  UNL1       -0.3113
     13 C           1.2515    1.5844   21.1637 C.3     1  UNL1        0.0453
     14 C          -0.0479    4.6603   19.2806 C.3     1  UNL1        0.1149
     15 N          -0.2383    3.4650   20.1667 N.3     1  UNL1       -0.1551
     16 S          -1.2837    3.4875   21.2421 S.O2    1  UNL1        0.0633
     17 O          -2.0561    2.4280   20.5135 O.2     1  UNL1       -0.1528
     18 O          -0.5113    4.5470   21.9708 O.2     1  UNL1       -0.1528
     19 C          -2.3290    3.5100   22.3176 C.ar    1  UNL1        0.1223
     20 C          -3.7814    3.4200   21.9539 C.ar    1  UNL1        0.0222
     21 C          -4.8267    3.4425   23.0294 C.ar    1  UNL1        0.0310
     22 C          -4.4197    3.5551   24.4688 C.ar    1  UNL1        0.1402
     23 F          -5.4650    3.5776   25.5443 F       1  UNL1       -0.2042
     24 C          -2.9672    3.6452   24.8325 C.ar    1  UNL1        0.0310
     25 C          -1.9219    3.6226   23.7569 C.ar    1  UNL1        0.0222
     26 C           3.6883   -2.2559   18.5899 C.3     1  UNL1        0.1488
     27 C           4.5783   -1.6796   17.5290 C.2     1  UNL1        0.0732
     28 O           6.0682   -1.8058   17.6500 O.co2   1  UNL1       -0.5472
     29 O           3.9788   -0.9770   16.3471 O.co2   1  UNL1       -0.5472
@<TRIPOS>UNITY_ATOM_ATTR
28 1
charge -1
@<TRIPOS>BOND
     1    14    15    1
     2     1    15    1
     3     1     2    1
     4     2     3    1
     5     3     4    1
     6     4     5   ar
     7     5     6   ar
     8     6     7   ar
     9     7     8   ar
    10     8     9   ar
    11     9    10   ar
    12    10    11   ar
    13    11    12   ar
    14    12    26    1
    15    26    27    1
    16    27    28   ar
    17    27    29   ar
    18     5    13    1
    19    15    16    1
    20    16    17    2
    21    16    18    2
    22    16    19    1
    23    19    20   ar
    24    20    21   ar
    25    21    22   ar
    26    22    23    1
    27    22    24   ar
    28    24    25   ar
    29    13     1    1
    30    25    19   ar
    31    12     4   ar
    32    11     6   ar
@<TRIPOS>MOLECULE
*****
 29 32 0 0 0
SMALL
GASTEIGER

@<TRIPOS>ATOM
      1 C          -6.0347  -18.6940   21.6880 C.3     1  UNL1        0.0844
      2 C          -5.5790  -17.8393   22.8334 C.3     1  UNL1        0.0243
      3 C          -6.5825  -17.0718   23.6420 C.3     1  UNL1        0.0450
      4 C          -8.0416  -17.1589   23.3052 C.ar    1  UNL1        0.0349
      5 C          -8.4973  -18.0135   22.1598 C.ar    1  UNL1       -0.0062
      6 C          -9.9903  -17.9040   22.0650 C.ar    1  UNL1        0.0314
      7 C         -10.9848  -18.5250   21.1294 C.ar    1  UNL1        0.0043
      8 C         -12.4463  -18.2236   21.2806 C.ar    1  UNL1        0.0208
      9 C         -12.9134  -17.3013   22.3674 C.ar    1  UNL1        0.1005
     10 N         -11.9189  -16.6803   23.3030 N.ar    1  UNL1       -0.2268
     11 C         -10.4574  -16.9816   23.1517 C.ar    1  UNL1        0.1435
     12 N          -9.2530  -16.5211   23.9183 N.ar    1  UNL1       -0.3113
     13 C          -7.4938  -18.7811   21.3512 C.3     1  UNL1        0.0453
     14 C          -5.4067  -20.7827   20.2763 C.3     1  UNL1        0.1149
     15 N          -5.0312  -19.4616   20.8793 N.3     1  UNL1       -0.1551
     16 S          -3.6523  -18.9080   20.6737 S.O2    1  UNL1        0.0633
     17 O          -3.1442  -19.7543   21.8031 O.2     1  UNL1       -0.1528
     18 O          -4.1606  -18.0617   19.5442 O.2     1  UNL1       -0.1528
     19 C          -2.2736  -18.3544   20.4680 C.ar    1  UNL1        0.1223
     20 C          -1.1890  -19.2296   19.9132 C.ar    1  UNL1        0.0222
     21 C           0.1898  -18.6759   19.7076 C.ar    1  UNL1        0.0310
     22 C           0.4842  -17.2471   20.0566 C.ar    1  UNL1        0.1402
     23 F           1.8630  -16.6934   19.8510 F       1  UNL1       -0.2042
     24 C          -0.6005  -16.3719   20.6115 C.ar    1  UNL1        0.0310
     25 C          -1.9793  -16.9256   20.8171 C.ar    1  UNL1        0.0222
     26 C          -9.2591  -15.5869   25.0918 C.3     1  UNL1        0.1488
     27 C          -8.4396  -15.9042   26.3073 C.2     1  UNL1        0.0732
     28 O          -8.7970  -17.0807   27.1666 O.co2   1  UNL1       -0.5472
     29 O          -7.2628  -15.0452   26.6638 O.co2   1  UNL1       -0.5472
@<TRIPOS>UNITY_ATOM_ATTR
28 1
charge -1
@<TRIPOS>BOND
     1    14    15    1
     2     1    15    1
     3     1     2    1
     4     2     3    1
     5     3     4    1
     6     4     5   ar
     7     5     6   ar
     8     6     7   ar
     9     7     8   ar
    10     8     9   ar
    11     9    10   ar
    12    10    11   ar
    13    11    12   ar
    14    12    26    1
    15    26    27    1
    16    27    28   ar
    17    27    29   ar
    18     5    13    1
    19    15    16    1
    20    16    17    2
    21    16    18    2
    22    16    19    1
    23    19    20   ar
    24    20    21   ar
    25    21    22   ar
    26    22    23    1
    27    22    24   ar
    28    24    25   ar
    29    13     1    1
    30    25    19   ar
    31    12     4   ar
    32    11     6   ar
@<TRIPOS>MOLECULE
*****
 29 32 0 0 0
SMALL
GASTEIGER

@<TRIPOS>ATOM
      1 C           0.7519    2.3108   20.0896 C.3     1  UNL1        0.0844
      2 C           0.9325    1.7749   18.7003 C.3     1  UNL1        0.0243
      3 C           1.7498    0.5377   18.4740 C.3     1  UNL1        0.0450
      4 C           2.3865   -0.1636   19.6370 C.ar    1  UNL1        0.0349
      5 C           2.2060    0.3722   21.0263 C.ar    1  UNL1       -0.0062
      6 C           2.9486   -0.5266   21.9701 C.ar    1  UNL1        0.0314
      7 C           3.1251   -0.4922   23.4592 C.ar    1  UNL1        0.0043
      8 C           3.9412   -1.5493   24.1423 C.ar    1  UNL1        0.0208
      9 C           4.5807   -2.6408   23.3362 C.ar    1  UNL1        0.1005
     10 N           4.4042   -2.6751   21.8471 N.ar    1  UNL1       -0.2268
     11 C           3.5882   -1.6180   21.1640 C.ar    1  UNL1        0.1435
     12 N           3.2408   -1.3937   19.7221 N.ar    1  UNL1       -0.3113
     13 C           1.3887    1.6095   21.2526 C.3     1  UNL1        0.0453
     14 C           0.5744    4.7733   20.8986 C.3     1  UNL1        0.1149
     15 N          -0.0654    3.5481   20.3159 N.3     1  UNL1       -0.1551
     16 S          -1.5224    3.5601   19.9595 S.O2    1  UNL1        0.0633
     17 O          -1.2565    4.5954   18.9071 O.2     1  UNL1       -0.1528
     18 O          -1.7883    2.5248   21.0119 O.2     1  UNL1       -0.1528
     19 C          -2.9794    3.5721   19.6032 C.ar    1  UNL1        0.1223
     20 C          -3.4037    3.8424   18.1901 C.ar    1  UNL1        0.0222
     21 C          -4.8608    3.8544   17.8339 C.ar    1  UNL1        0.0310
     22 C          -5.8935    3.5959   18.8906 C.ar    1  UNL1        0.1402
     23 F          -7.3505    3.6078   18.5343 F       1  UNL1       -0.2042
     24 C          -5.4691    3.3255   20.3037 C.ar    1  UNL1        0.0310
     25 C          -4.0120    3.3136   20.6600 C.ar    1  UNL1        0.0222
     26 C           3.6719   -2.2493   18.5679 C.3     1  UNL1        0.1488
     27 C           4.5592   -1.6787   17.5016 C.2     1  UNL1        0.0732
     28 O           6.0501   -1.7791   17.6334 O.co2   1  UNL1       -0.5472
     29 O           3.9557   -1.0077   16.3035 O.co2   1  UNL1       -0.5472
@<TRIPOS>UNITY_ATOM_ATTR
28 1
charge -1
@<TRIPOS>BOND
     1    14    15    1
     2     1    15    1
     3     1     2    1
     4     2     3    1
     5     3     4    1
     6     4     5   ar
     7     5     6   ar
     8     6     7   ar
     9     7     8   ar
    10     8     9   ar
    11     9    10   ar
    12    10    11   ar
    13    11    12   ar
    14    12    26    1
    15    26    27    1
    16    27    28   ar
    17    27    29   ar
    18     5    13    1
    19    15    16    1
    20    16    17    2
    21    16    18    2
    22    16    19    1
    23    19    20   ar
    24    20    21   ar
    25    21    22   ar
    26    22    23    1
    27    22    24   ar
    28    24    25   ar
    29    13     1    1
    30    25    19   ar
    31    12     4   ar
    32    11     6   ar
@<TRIPOS>MOLECULE
*****
 29 32 0 0 0
SMALL
GASTEIGER

@<TRIPOS>ATOM
      1 C           2.4304    0.1520   19.2236 C.3     1  UNL1        0.0844
      2 C           1.6714    0.9793   18.2289 C.3     1  UNL1        0.0243
      3 C           0.6079    1.9274   18.6981 C.3     1  UNL1        0.0450
      4 C           0.3035    2.0482   20.1619 C.ar    1  UNL1        0.0349
      5 C           1.0626    1.2209   21.1566 C.ar    1  UNL1       -0.0062
      6 C           0.5460    1.5521   22.5254 C.ar    1  UNL1        0.0314
      7 C           0.9183    1.0473   23.8879 C.ar    1  UNL1        0.0043
      8 C           0.2122    1.5746   25.1017 C.ar    1  UNL1        0.0208
      9 C          -0.8661    2.6066   24.9530 C.ar    1  UNL1        0.1005
     10 N          -1.2383    3.1114   23.5905 N.ar    1  UNL1       -0.2268
     11 C          -0.5323    2.5842   22.3766 C.ar    1  UNL1        0.1435
     12 N          -0.6821    2.8907   20.9160 N.ar    1  UNL1       -0.3113
     13 C           2.1260    0.2728   20.6875 C.3     1  UNL1        0.0453
     14 C           3.8120   -0.9024   17.2924 C.3     1  UNL1        0.1149
     15 N           3.4940   -0.7962   18.7545 N.3     1  UNL1       -0.1551
     16 S           4.2394   -1.6379   19.7474 S.O2    1  UNL1        0.0633
     17 O           5.2756   -0.5617   19.8818 O.2     1  UNL1       -0.1528
     18 O           3.2031   -2.7141   19.6129 O.2     1  UNL1       -0.1528
     19 C           4.9847   -2.4797   20.7402 C.ar    1  UNL1        0.1223
     20 C           6.3025   -3.0907   20.3660 C.ar    1  UNL1        0.0222
     21 C           7.0478   -3.9325   21.3590 C.ar    1  UNL1        0.0310
     22 C           6.4753   -4.1633   22.7261 C.ar    1  UNL1        0.1402
     23 F           7.2206   -5.0051   23.7191 F       1  UNL1       -0.2042
     24 C           5.1574   -3.5523   23.1003 C.ar    1  UNL1        0.0310
     25 C           4.4122   -2.7105   22.1073 C.ar    1  UNL1        0.0222
     26 C          -1.6481    3.8683   20.3149 C.3     1  UNL1        0.1488
     27 C          -3.0821    3.4777   20.1125 C.2     1  UNL1        0.0732
     28 O          -3.7492    3.7303   18.7929 O.co2   1  UNL1       -0.5472
     29 O          -3.8492    2.8346   21.2297 O.co2   1  UNL1       -0.5472
@<TRIPOS>UNITY_ATOM_ATTR
28 1
charge -1
@<TRIPOS>BOND
     1    14    15    1
     2     1    15    1
     3     1     2    1
     4     2     3    1
     5     3     4    1
     6     4     5   ar
     7     5     6   ar
     8     6     7   ar
     9     7     8   ar
    10     8     9   ar
    11     9    10   ar
    12    10    11   ar
    13    11    12   ar
    14    12    26    1
    15    26    27    1
    16    27    28   ar
    17    27    29   ar
    18     5    13    1
    19    15    16    1
    20    16    17    2
    21    16    18    2
    22    16    19    1
    23    19    20   ar
    24    20    21   ar
    25    21    22   ar
    26    22    23    1
    27    22    24   ar
    28    24    25   ar
    29    13     1    1
    30    25    19   ar
    31    12     4   ar
    32    11     6   ar
@<TRIPOS>MOLECULE
*****
 29 32 0 0 0
SMALL
GASTEIGER

@<TRIPOS>ATOM
      1 C           7.3257   -4.2924   22.8587 C.3     1  UNL1        0.0844
      2 C           6.4644   -3.3529   23.6496 C.3     1  UNL1        0.0243
      3 C           6.2600   -3.5792   25.1182 C.3     1  UNL1        0.0450
      4 C           6.9168   -4.7451   25.7960 C.ar    1  UNL1        0.0349
      5 C           7.7781   -5.6846   25.0051 C.ar    1  UNL1       -0.0062
      6 C           8.2927   -6.7394   25.9392 C.ar    1  UNL1        0.0314
      7 C           9.1858   -7.9246   25.7207 C.ar    1  UNL1        0.0043
      8 C           9.5355   -8.8221   26.8705 C.ar    1  UNL1        0.0208
      9 C           8.9923   -8.5346   28.2387 C.ar    1  UNL1        0.1005
     10 N           8.0992   -7.3494   28.4573 N.ar    1  UNL1       -0.2268
     11 C           7.7494   -6.4518   27.3075 C.ar    1  UNL1        0.1435
     12 N           6.8991   -5.2193   27.2189 N.ar    1  UNL1       -0.3113
     13 C           7.9826   -5.4582   23.5365 C.3     1  UNL1        0.0453
     14 C           8.7358   -4.6370   20.7039 C.3     1  UNL1        0.1149
     15 N           7.5302   -4.0660   21.3900 N.3     1  UNL1       -0.1551
     16 S           6.5292   -3.2687   20.6075 S.O2    1  UNL1        0.0633
     17 O           7.4379   -2.0764   20.6599 O.2     1  UNL1       -0.1528
     18 O           5.6205   -4.4610   20.5551 O.2     1  UNL1       -0.1528
     19 C           5.5282   -2.4715   19.8250 C.ar    1  UNL1        0.1223
     20 C           5.9056   -1.8936   18.4933 C.ar    1  UNL1        0.0222
     21 C           4.9045   -1.0963   17.7108 C.ar    1  UNL1        0.0310
     22 C           3.5260   -0.8770   18.2601 C.ar    1  UNL1        0.1402
     23 F           2.5249   -0.0797   17.4776 F       1  UNL1       -0.2042
     24 C           3.1487   -1.4549   19.5919 C.ar    1  UNL1        0.0310
     25 C           4.1497   -2.2522   20.3743 C.ar    1  UNL1        0.0222
     26 C           6.1607   -4.5742   28.3541 C.3     1  UNL1        0.1488
     27 C           6.9218   -3.9124   29.4642 C.2     1  UNL1        0.0732
     28 O           6.8874   -4.4925   30.8471 O.co2   1  UNL1       -0.5472
     29 O           7.7175   -2.6703   29.1917 O.co2   1  UNL1       -0.5472
@<TRIPOS>UNITY_ATOM_ATTR
28 1
charge -1
@<TRIPOS>BOND
     1    14    15    1
     2     1    15    1
     3     1     2    1
     4     2     3    1
     5     3     4    1
     6     4     5   ar
     7     5     6   ar
     8     6     7   ar
     9     7     8   ar
    10     8     9   ar
    11     9    10   ar
    12    10    11   ar
    13    11    12   ar
    14    12    26    1
    15    26    27    1
    16    27    28   ar
    17    27    29   ar
    18     5    13    1
    19    15    16    1
    20    16    17    2
    21    16    18    2
    22    16    19    1
    23    19    20   ar
    24    20    21   ar
    25    21    22   ar
    26    22    23    1
    27    22    24   ar
    28    24    25   ar
    29    13     1    1
    30    25    19   ar
    31    12     4   ar
    32    11     6   ar
@<TRIPOS>MOLECULE
*****
 29 32 0 0 0
SMALL
GASTEIGER

@<TRIPOS>ATOM
      1 C           3.1904    0.8310   32.2845 C.3     1  UNL1        0.0844
      2 C           3.9169    0.2820   33.4765 C.3     1  UNL1        0.0243
      3 C           3.7935    0.9611   34.8082 C.3     1  UNL1        0.0450
      4 C           2.9435    2.1891   34.9481 C.ar    1  UNL1        0.0349
      5 C           2.2170    2.7381   33.7561 C.ar    1  UNL1       -0.0062
      6 C           1.4580    3.9549   34.1958 C.ar    1  UNL1        0.0314
      7 C           0.5658    4.9043   33.4524 C.ar    1  UNL1        0.0043
      8 C          -0.0691    6.0566   34.1728 C.ar    1  UNL1        0.0208
      9 C           0.1884    6.2597   35.6365 C.ar    1  UNL1        0.1005
     10 N           1.0806    5.3104   36.3799 N.ar    1  UNL1       -0.2268
     11 C           1.7154    4.1580   35.6595 C.ar    1  UNL1        0.1435
     12 N           2.6335    3.0667   36.1244 N.ar    1  UNL1       -0.3113
     13 C           2.3404    2.0591   32.4243 C.3     1  UNL1        0.0453
     14 C           4.3652   -0.8965   30.7401 C.3     1  UNL1        0.1149
     15 N           3.3138    0.1520   30.9527 N.3     1  UNL1       -0.1551
     16 S           2.3859    0.5215   29.8335 S.O2    1  UNL1        0.0633
     17 O           1.3743   -0.4590   30.3485 O.2     1  UNL1       -0.1528
     18 O           3.3976    1.5021   29.3186 O.2     1  UNL1       -0.1528
     19 C           1.4581    0.8910   28.7145 C.ar    1  UNL1        0.1223
     20 C           2.0040    1.1463   27.3409 C.ar    1  UNL1        0.0222
     21 C           1.0761    1.5159   26.2218 C.ar    1  UNL1        0.0310
     22 C          -0.3978    1.6302   26.4762 C.ar    1  UNL1        0.1402
     23 F          -1.3257    1.9997   25.3571 F       1  UNL1       -0.2042
     24 C          -0.9437    1.3749   27.8499 C.ar    1  UNL1        0.0310
     25 C          -0.0158    1.0053   28.9690 C.ar    1  UNL1        0.0222
     26 C           3.1508    2.8848   37.5206 C.3     1  UNL1        0.1488
     27 C           2.4902    1.9040   38.4434 C.2     1  UNL1        0.0732
     28 O           0.9941    1.8055   38.4869 O.co2   1  UNL1       -0.5472
     29 O           3.3257    1.0216   39.3228 O.co2   1  UNL1       -0.5472
@<TRIPOS>UNITY_ATOM_ATTR
28 1
charge -1
@<TRIPOS>BOND
     1    14    15    1
     2     1    15    1
     3     1     2    1
     4     2     3    1
     5     3     4    1
     6     4     5   ar
     7     5     6   ar
     8     6     7   ar
     9     7     8   ar
    10     8     9   ar
    11     9    10   ar
    12    10    11   ar
    13    11    12   ar
    14    12    26    1
    15    26    27    1
    16    27    28   ar
    17    27    29   ar
    18     5    13    1
    19    15    16    1
    20    16    17    2
    21    16    18    2
    22    16    19    1
    23    19    20   ar
    24    20    21   ar
    25    21    22   ar
    26    22    23    1
    27    22    24   ar
    28    24    25   ar
    29    13     1    1
    30    25    19   ar
    31    12     4   ar
    32    11     6   ar
@<TRIPOS>MOLECULE
*****
 29 32 0 0 0
SMALL
GASTEIGER

@<TRIPOS>ATOM
      1 C           7.0137   -4.4414   24.0513 C.3     1  UNL1        0.0844
      2 C           7.5409   -5.7624   24.5280 C.3     1  UNL1        0.0243
      3 C           7.6234   -6.0506   25.9977 C.3     1  UNL1        0.0450
      4 C           7.1788   -5.0180   26.9907 C.ar    1  UNL1        0.0349
      5 C           6.6516   -3.6970   26.5140 C.ar    1  UNL1       -0.0062
      6 C           6.2899   -2.8801   27.7189 C.ar    1  UNL1        0.0314
      7 C           5.7233   -1.4986   27.8616 C.ar    1  UNL1        0.0043
      8 C           5.4603   -0.9332   29.2258 C.ar    1  UNL1        0.0208
      9 C           5.7639   -1.7492   30.4472 C.ar    1  UNL1        0.1005
     10 N           6.3305   -3.1307   30.3045 N.ar    1  UNL1       -0.2268
     11 C           6.5935   -3.6961   28.9403 C.ar    1  UNL1        0.1435
     12 N           7.1429   -5.0174   28.4903 N.ar    1  UNL1       -0.3113
     13 C           6.5691   -3.4088   25.0443 C.3     1  UNL1        0.0453
     14 C           8.0128   -4.6353   21.6608 C.3     1  UNL1        0.1149
     15 N           6.9312   -4.1531   22.5815 N.3     1  UNL1       -0.1551
     16 S           5.7671   -3.3827   22.0326 S.O2    1  UNL1        0.0633
     17 O           6.6605   -2.2012   21.7962 O.2     1  UNL1       -0.1528
     18 O           4.8737   -4.5643   22.2690 O.2     1  UNL1       -0.1528
     19 C           4.6030   -2.6124   21.4836 C.ar    1  UNL1        0.1223
     20 C           4.1753   -2.8127   20.0599 C.ar    1  UNL1        0.0222
     21 C           3.0112   -2.0424   19.5111 C.ar    1  UNL1        0.0310
     22 C           2.2746   -1.0716   20.3858 C.ar    1  UNL1        0.1402
     23 F           1.1105   -0.3013   19.8370 F       1  UNL1       -0.2042
     24 C           2.7023   -0.8713   21.8096 C.ar    1  UNL1        0.0310
     25 C           3.8665   -1.6417   22.3585 C.ar    1  UNL1        0.0222
     26 C           7.5796   -6.1408   29.3831 C.3     1  UNL1        0.1488
     27 C           7.8221   -5.8888   30.8417 C.2     1  UNL1        0.0732
     28 O           6.7676   -6.2404   31.8490 O.co2   1  UNL1       -0.5472
     29 O           9.1189   -5.2852   31.2932 O.co2   1  UNL1       -0.5472
@<TRIPOS>UNITY_ATOM_ATTR
28 1
charge -1
@<TRIPOS>BOND
     1    14    15    1
     2     1    15    1
     3     1     2    1
     4     2     3    1
     5     3     4    1
     6     4     5   ar
     7     5     6   ar
     8     6     7   ar
     9     7     8   ar
    10     8     9   ar
    11     9    10   ar
    12    10    11   ar
    13    11    12   ar
    14    12    26    1
    15    26    27    1
    16    27    28   ar
    17    27    29   ar
    18     5    13    1
    19    15    16    1
    20    16    17    2
    21    16    18    2
    22    16    19    1
    23    19    20   ar
    24    20    21   ar
    25    21    22   ar
    26    22    23    1
    27    22    24   ar
    28    24    25   ar
    29    13     1    1
    30    25    19   ar
    31    12     4   ar
    32    11     6   ar
