@<TRIPOS>MOLECULE
*****
 29 32 0 0 0
SMALL
GASTEIGER

@<TRIPOS>ATOM
      1 N         -10.0219  -15.8404   23.7667 N.3     1  UNL1       -0.3206
      2 C          -9.3385  -17.0910   23.2988 C.3     1  UNL1        0.0750
      3 C          -7.8656  -17.0796   23.0152 C.3     1  UNL1        0.1079
      4 N          -7.1822  -18.3301   22.5472 N.pl3   1  UNL1       -0.2905
      5 C          -7.9717  -19.5922   22.3628 C.3     1  UNL1        0.0926
      6 C          -9.4446  -19.6036   22.6464 C.3     1  UNL1        0.0273
      7 C         -10.1280  -18.3530   23.1144 C.3     1  UNL1        0.0422
      8 H          -9.3393  -15.0856   23.8361 H       1  UNL1        0.1189
      9 H         -10.4416  -16.0044   24.6818 H       1  UNL1        0.1189
     10 C          -5.7092  -18.3187   22.2636 C.ar    1  UNL1        0.1520
     11 C          -4.7312  -18.1235   23.3840 C.ar    1  UNL1        0.0392
     12 C          -3.2584  -18.1121   23.1003 C.ar    1  UNL1        0.0418
     13 C          -2.7635  -18.2960   21.6963 C.ar    1  UNL1        0.1672
     14 N          -1.2906  -18.2846   21.4127 N.ar    1  UNL1       -0.1887
     15 C          -0.7957  -18.4684   20.0086 C.ar    1  UNL1        0.2822
     16 O           0.6771  -18.4570   19.7250 O.2     1  UNL1       -0.2651
     17 C          -1.7738  -18.6636   18.8882 C.ar    1  UNL1        0.0832
     18 C          -3.2467  -18.6750   19.1719 C.ar    1  UNL1        0.1071
     19 N          -3.7415  -18.4912   20.5759 N.ar    1  UNL1       -0.2094
     20 N          -5.2144  -18.5026   20.8596 N.ar    1  UNL1       -0.1487
     21 C         -11.6009  -18.3644   23.3980 C.ar    1  UNL1        0.0087
     22 C         -12.0929  -18.5603   24.8014 C.ar    1  UNL1        0.0300
     23 C         -13.5659  -18.5718   25.0850 C.ar    1  UNL1        0.1672
     24 F         -14.0579  -18.7677   26.4884 F       1  UNL1       -0.2018
     25 C         -14.5467  -18.3873   23.9652 C.ar    1  UNL1        0.1696
     26 F         -16.0196  -18.3988   24.2488 F       1  UNL1       -0.2017
     27 C         -14.0546  -18.1914   22.5618 C.ar    1  UNL1        0.0612
     28 C         -12.5817  -18.1800   22.2782 C.ar    1  UNL1        0.1386
     29 F         -12.0897  -17.9841   20.8749 F       1  UNL1       -0.2044
@<TRIPOS>BOND
     1     2     1    1
     2     2     3    1
     3     3     4    1
     4     4    10    1
     5    10    11   ar
     6    11    12   ar
     7    12    13   ar
     8    13    14   ar
     9    14    15   ar
    10    15    16    2
    11    15    17   ar
    12    17    18   ar
    13    18    19   ar
    14    19    20   ar
    15     4     5    1
    16     5     6    1
    17     6     7    1
    18     7    21    1
    19    21    22   ar
    20    22    23   ar
    21    23    24    1
    22    23    25   ar
    23    25    26    1
    24    25    27   ar
    25    27    28   ar
    26    28    29    1
    27     7     2    1
    28    28    21   ar
    29    20    10   ar
    30    19    13   ar
    31     1     8    1
    32     1     9    1
@<TRIPOS>MOLECULE
*****
 29 32 0 0 0
SMALL
GASTEIGER

@<TRIPOS>ATOM
      1 N          -9.6058  -16.0473   22.4621 N.3     1  UNL1       -0.3206
      2 C          -8.8950  -17.3679   22.4360 C.3     1  UNL1        0.0750
      3 C          -7.4556  -17.4368   22.0193 C.3     1  UNL1        0.1079
      4 N          -6.7448  -18.7574   21.9932 N.pl3   1  UNL1       -0.2905
      5 C          -7.4732  -20.0091   22.3838 C.3     1  UNL1        0.0926
      6 C          -8.9125  -19.9402   22.8006 C.3     1  UNL1        0.0273
      7 C          -9.6234  -18.6196   22.8267 C.3     1  UNL1        0.0422
      8 H          -8.9646  -15.3102   22.1692 H       1  UNL1        0.1189
      9 H          -9.9337  -15.8563   23.4089 H       1  UNL1        0.1189
     10 C          -5.3054  -18.8263   21.5764 C.ar    1  UNL1        0.1520
     11 C          -4.7498  -20.0975   21.0060 C.ar    1  UNL1        0.0392
     12 C          -3.3106  -20.1663   20.5893 C.ar    1  UNL1        0.0418
     13 C          -2.4269  -18.9640   20.7429 C.ar    1  UNL1        0.1672
     14 N          -0.9876  -19.0329   20.3261 N.ar    1  UNL1       -0.1887
     15 C          -0.1039  -17.8306   20.4798 C.ar    1  UNL1        0.2822
     16 O           1.3354  -17.8995   20.0630 O.2     1  UNL1       -0.2651
     17 C          -0.6596  -16.5594   21.0502 C.ar    1  UNL1        0.0832
     18 C          -2.0989  -16.4905   21.4669 C.ar    1  UNL1        0.1071
     19 N          -2.9825  -17.6929   21.3133 N.ar    1  UNL1       -0.2094
     20 N          -4.4218  -17.6240   21.7300 N.ar    1  UNL1       -0.1487
     21 C         -11.0627  -18.5507   23.2434 C.ar    1  UNL1        0.0087
     22 C         -12.1317  -18.3313   22.2144 C.ar    1  UNL1        0.0300
     23 C         -13.5711  -18.2624   22.6312 C.ar    1  UNL1        0.1672
     24 F         -14.6401  -18.0430   21.6021 F       1  UNL1       -0.2018
     25 C         -13.9413  -18.4130   24.0769 C.ar    1  UNL1        0.1696
     26 F         -15.3805  -18.3441   24.4937 F       1  UNL1       -0.2017
     27 C         -12.8721  -18.6324   25.1060 C.ar    1  UNL1        0.0612
     28 C         -11.4329  -18.7013   24.6892 C.ar    1  UNL1        0.1386
     29 F         -10.3638  -18.9207   25.7182 F       1  UNL1       -0.2044
@<TRIPOS>BOND
     1     2     1    1
     2     2     3    1
     3     3     4    1
     4     4    10    1
     5    10    11   ar
     6    11    12   ar
     7    12    13   ar
     8    13    14   ar
     9    14    15   ar
    10    15    16    2
    11    15    17   ar
    12    17    18   ar
    13    18    19   ar
    14    19    20   ar
    15     4     5    1
    16     5     6    1
    17     6     7    1
    18     7    21    1
    19    21    22   ar
    20    22    23   ar
    21    23    24    1
    22    23    25   ar
    23    25    26    1
    24    25    27   ar
    25    27    28   ar
    26    28    29    1
    27     7     2    1
    28    28    21   ar
    29    20    10   ar
    30    19    13   ar
    31     1     8    1
    32     1     9    1
@<TRIPOS>MOLECULE
*****
 29 32 0 0 0
SMALL
GASTEIGER

@<TRIPOS>ATOM
      1 N           6.5326   -5.1712   32.4324 N.3     1  UNL1       -0.3206
      2 C           6.2215   -3.7927   31.9297 C.3     1  UNL1        0.0750
      3 C           5.5379   -2.8037   32.8267 C.3     1  UNL1        0.1079
      4 N           5.2268   -1.4251   32.3240 N.pl3   1  UNL1       -0.2905
      5 C           5.5993   -1.0355   30.9242 C.3     1  UNL1        0.0926
      6 C           6.2829   -2.0244   30.0272 C.3     1  UNL1        0.0273
      7 C           6.5940   -3.4030   30.5299 C.3     1  UNL1        0.0422
      8 H           6.2122   -5.2619   33.3965 H       1  UNL1        0.1189
      9 H           7.5396   -5.3285   32.3925 H       1  UNL1        0.1189
     10 C           4.5432   -0.4362   33.2211 C.ar    1  UNL1        0.1520
     11 C           3.6002    0.5758   32.6410 C.ar    1  UNL1        0.0392
     12 C           2.9167    1.5647   33.5380 C.ar    1  UNL1        0.0418
     13 C           3.1761    1.5416   35.0153 C.ar    1  UNL1        0.1672
     14 N           2.4925    2.5306   35.9123 N.ar    1  UNL1       -0.1887
     15 C           2.7519    2.5075   37.3895 C.ar    1  UNL1        0.2822
     16 O           2.0684    3.4964   38.2866 O.2     1  UNL1       -0.2651
     17 C           3.6950    1.4955   37.9697 C.ar    1  UNL1        0.0832
     18 C           4.3785    0.5066   37.0726 C.ar    1  UNL1        0.1071
     19 N           4.1191    0.5296   35.5954 N.ar    1  UNL1       -0.2094
     20 N           4.8027   -0.4593   34.6983 N.ar    1  UNL1       -0.1487
     21 C           7.2776   -4.3919   29.6328 C.ar    1  UNL1        0.0087
     22 C           6.4959   -5.1060   28.5703 C.ar    1  UNL1        0.0300
     23 C           7.1794   -6.0949   27.6732 C.ar    1  UNL1        0.1672
     24 F           6.3977   -6.8090   26.6107 F       1  UNL1       -0.2018
     25 C           8.6447   -6.3697   27.8386 C.ar    1  UNL1        0.1696
     26 F           9.3283   -7.3586   26.9415 F       1  UNL1       -0.2017
     27 C           9.4265   -5.6556   28.9012 C.ar    1  UNL1        0.0612
     28 C           8.7429   -4.6667   29.7982 C.ar    1  UNL1        0.1386
     29 F           9.5246   -3.9526   30.8607 F       1  UNL1       -0.2044
@<TRIPOS>BOND
     1     2     1    1
     2     2     3    1
     3     3     4    1
     4     4    10    1
     5    10    11   ar
     6    11    12   ar
     7    12    13   ar
     8    13    14   ar
     9    14    15   ar
    10    15    16    2
    11    15    17   ar
    12    17    18   ar
    13    18    19   ar
    14    19    20   ar
    15     4     5    1
    16     5     6    1
    17     6     7    1
    18     7    21    1
    19    21    22   ar
    20    22    23   ar
    21    23    24    1
    22    23    25   ar
    23    25    26    1
    24    25    27   ar
    25    27    28   ar
    26    28    29    1
    27     7     2    1
    28    28    21   ar
    29    20    10   ar
    30    19    13   ar
    31     1     8    1
    32     1     9    1
@<TRIPOS>MOLECULE
*****
 29 32 0 0 0
SMALL
GASTEIGER

@<TRIPOS>ATOM
      1 N           3.5254    0.0424   17.5072 N.3     1  UNL1       -0.3206
      2 C           2.5607    0.2179   18.6422 C.3     1  UNL1        0.0750
      3 C           1.4716    1.2452   18.5489 C.3     1  UNL1        0.1079
      4 N           0.5068    1.4207   19.6839 N.pl3   1  UNL1       -0.2905
      5 C           0.6311    0.5690   20.9124 C.3     1  UNL1        0.0926
      6 C           1.7201   -0.4582   21.0058 C.3     1  UNL1        0.0273
      7 C           2.6849   -0.6338   19.8707 C.3     1  UNL1        0.0422
      8 H           3.2949    0.6981   16.7606 H       1  UNL1        0.1189
      9 H           3.4633   -0.9120   17.1526 H       1  UNL1        0.1189
     10 C          -0.5823    2.4480   19.5906 C.ar    1  UNL1        0.1520
     11 C          -0.5665    3.4591   18.4828 C.ar    1  UNL1        0.0392
     12 C          -1.6556    4.4863   18.3894 C.ar    1  UNL1        0.0418
     13 C          -2.7604    4.5024   19.4039 C.ar    1  UNL1        0.1672
     14 N          -3.8495    5.5297   19.3106 N.ar    1  UNL1       -0.1887
     15 C          -4.9543    5.5458   20.3251 C.ar    1  UNL1        0.2822
     16 O          -6.0433    6.5730   20.2318 O.2     1  UNL1       -0.2651
     17 C          -4.9699    4.5345   21.4329 C.ar    1  UNL1        0.0832
     18 C          -3.8809    3.5073   21.5263 C.ar    1  UNL1        0.1071
     19 N          -2.7761    3.4913   20.5118 N.ar    1  UNL1       -0.2094
     20 N          -1.6870    2.4641   20.6051 N.ar    1  UNL1       -0.1487
     21 C           3.7740   -1.6610   19.9641 C.ar    1  UNL1        0.0087
     22 C           3.5757   -3.0210   19.3631 C.ar    1  UNL1        0.0300
     23 C           4.6647   -4.0483   19.4565 C.ar    1  UNL1        0.1672
     24 F           4.4664   -5.4082   18.8555 F       1  UNL1       -0.2018
     25 C           5.9520   -3.7156   20.1509 C.ar    1  UNL1        0.1696
     26 F           7.0411   -4.7428   20.2443 F       1  UNL1       -0.2017
     27 C           6.1503   -2.3556   20.7519 C.ar    1  UNL1        0.0612
     28 C           5.0613   -1.3283   20.6585 C.ar    1  UNL1        0.1386
     29 F           5.2596    0.0316   21.2595 F       1  UNL1       -0.2044
@<TRIPOS>BOND
     1     2     1    1
     2     2     3    1
     3     3     4    1
     4     4    10    1
     5    10    11   ar
     6    11    12   ar
     7    12    13   ar
     8    13    14   ar
     9    14    15   ar
    10    15    16    2
    11    15    17   ar
    12    17    18   ar
    13    18    19   ar
    14    19    20   ar
    15     4     5    1
    16     5     6    1
    17     6     7    1
    18     7    21    1
    19    21    22   ar
    20    22    23   ar
    21    23    24    1
    22    23    25   ar
    23    25    26    1
    24    25    27   ar
    25    27    28   ar
    26    28    29    1
    27     7     2    1
    28    28    21   ar
    29    20    10   ar
    30    19    13   ar
    31     1     8    1
    32     1     9    1
@<TRIPOS>MOLECULE
*****
 29 32 0 0 0
SMALL
GASTEIGER

@<TRIPOS>ATOM
      1 N           7.1700    0.9260   33.7471 N.3     1  UNL1       -0.3206
      2 C           6.3548   -0.3099   33.5067 C.3     1  UNL1        0.0750
      3 C           6.7853   -1.3020   32.4671 C.3     1  UNL1        0.1079
      4 N           5.9701   -2.5379   32.2268 N.pl3   1  UNL1       -0.2905
      5 C           4.7244   -2.7819   33.0259 C.3     1  UNL1        0.0926
      6 C           4.2939   -1.7900   34.0654 C.3     1  UNL1        0.0273
      7 C           5.1091   -0.5539   34.3058 C.3     1  UNL1        0.0422
      8 H           7.9753    0.9293   33.1210 H       1  UNL1        0.1189
      9 H           7.4918    0.9382   34.7149 H       1  UNL1        0.1189
     10 C           6.4006   -3.5300   31.1872 C.ar    1  UNL1        0.1520
     11 C           6.9547   -4.8601   31.6038 C.ar    1  UNL1        0.0392
     12 C           7.3851   -5.8521   30.5643 C.ar    1  UNL1        0.0418
     13 C           7.2616   -5.5139   29.1081 C.ar    1  UNL1        0.1672
     14 N           7.6921   -6.5059   28.0686 N.ar    1  UNL1       -0.1887
     15 C           7.5685   -6.1676   26.6124 C.ar    1  UNL1        0.2822
     16 O           7.9990   -7.1596   25.5729 O.2     1  UNL1       -0.2651
     17 C           7.0144   -4.8374   26.1959 C.ar    1  UNL1        0.0832
     18 C           6.5840   -3.8454   27.2354 C.ar    1  UNL1        0.1071
     19 N           6.7075   -4.1837   28.6915 N.ar    1  UNL1       -0.2094
     20 N           6.2771   -3.1917   29.7311 N.ar    1  UNL1       -0.1487
     21 C           4.6786    0.4380   35.3453 C.ar    1  UNL1        0.0087
     22 C           3.6247    1.4549   35.0207 C.ar    1  UNL1        0.0300
     23 C           3.1942    2.4469   36.0603 C.ar    1  UNL1        0.1672
     24 F           2.1404    3.4637   35.7356 F       1  UNL1       -0.2018
     25 C           3.8175    2.4220   37.4244 C.ar    1  UNL1        0.1696
     26 F           3.3869    3.4139   38.4639 F       1  UNL1       -0.2017
     27 C           4.8713    1.4051   37.7490 C.ar    1  UNL1        0.0612
     28 C           5.3019    0.4131   36.7095 C.ar    1  UNL1        0.1386
     29 F           6.3557   -0.6037   37.0341 F       1  UNL1       -0.2044
@<TRIPOS>BOND
     1     2     1    1
     2     2     3    1
     3     3     4    1
     4     4    10    1
     5    10    11   ar
     6    11    12   ar
     7    12    13   ar
     8    13    14   ar
     9    14    15   ar
    10    15    16    2
    11    15    17   ar
    12    17    18   ar
    13    18    19   ar
    14    19    20   ar
    15     4     5    1
    16     5     6    1
    17     6     7    1
    18     7    21    1
    19    21    22   ar
    20    22    23   ar
    21    23    24    1
    22    23    25   ar
    23    25    26    1
    24    25    27   ar
    25    27    28   ar
    26    28    29    1
    27     7     2    1
    28    28    21   ar
    29    20    10   ar
    30    19    13   ar
    31     1     8    1
    32     1     9    1
@<TRIPOS>MOLECULE
*****
 29 32 0 0 0
SMALL
GASTEIGER

@<TRIPOS>ATOM
      1 N           0.3052    4.7122   28.0291 N.3     1  UNL1       -0.3206
      2 C           0.2967    3.2479   28.3545 C.3     1  UNL1        0.0750
      3 C           1.1733    2.7180   29.4504 C.3     1  UNL1        0.1079
      4 N           1.1647    1.2538   29.7758 N.pl3   1  UNL1       -0.2905
      5 C           0.2796    0.3194   29.0054 C.3     1  UNL1        0.0926
      6 C          -0.5969    0.8493   27.9096 C.3     1  UNL1        0.0273
      7 C          -0.5884    2.3136   27.5842 C.3     1  UNL1        0.0422
      8 H           0.9593    5.1938   28.6461 H       1  UNL1        0.1189
      9 H          -0.6310    5.0951   28.1605 H       1  UNL1        0.1189
     10 C           2.0413    0.7239   30.8717 C.ar    1  UNL1        0.1520
     11 C           2.7579   -0.5818   30.6938 C.ar    1  UNL1        0.0392
     12 C           3.6344   -1.1116   31.7896 C.ar    1  UNL1        0.0418
     13 C           3.7944   -0.3358   33.0634 C.ar    1  UNL1        0.1672
     14 N           4.6710   -0.8657   34.1592 N.ar    1  UNL1       -0.1887
     15 C           4.8309   -0.0899   35.4330 C.ar    1  UNL1        0.2822
     16 O           5.7075   -0.6197   36.5289 O.2     1  UNL1       -0.2651
     17 C           4.1143    1.2158   35.6109 C.ar    1  UNL1        0.0832
     18 C           3.2378    1.7457   34.5151 C.ar    1  UNL1        0.1071
     19 N           3.0778    0.9699   33.2413 N.ar    1  UNL1       -0.2094
     20 N           2.2013    1.4997   32.1455 N.ar    1  UNL1       -0.1487
     21 C          -1.4650    2.8434   26.4883 C.ar    1  UNL1        0.0087
     22 C          -2.8464    3.3349   26.8045 C.ar    1  UNL1        0.0300
     23 C          -3.7231    3.8648   25.7086 C.ar    1  UNL1        0.1672
     24 F          -5.1045    4.3563   26.0248 F       1  UNL1       -0.2018
     25 C          -3.2182    3.9031   24.2967 C.ar    1  UNL1        0.1696
     26 F          -4.0948    4.4330   23.2009 F       1  UNL1       -0.2017
     27 C          -1.8367    3.4116   23.9806 C.ar    1  UNL1        0.0612
     28 C          -0.9601    2.8817   25.0764 C.ar    1  UNL1        0.1386
     29 F           0.4213    2.3902   24.7602 F       1  UNL1       -0.2044
@<TRIPOS>BOND
     1     2     1    1
     2     2     3    1
     3     3     4    1
     4     4    10    1
     5    10    11   ar
     6    11    12   ar
     7    12    13   ar
     8    13    14   ar
     9    14    15   ar
    10    15    16    2
    11    15    17   ar
    12    17    18   ar
    13    18    19   ar
    14    19    20   ar
    15     4     5    1
    16     5     6    1
    17     6     7    1
    18     7    21    1
    19    21    22   ar
    20    22    23   ar
    21    23    24    1
    22    23    25   ar
    23    25    26    1
    24    25    27   ar
    25    27    28   ar
    26    28    29    1
    27     7     2    1
    28    28    21   ar
    29    20    10   ar
    30    19    13   ar
    31     1     8    1
    32     1     9    1
@<TRIPOS>MOLECULE
*****
 29 32 0 0 0
SMALL
GASTEIGER

@<TRIPOS>ATOM
      1 N           1.6698    0.8483   21.3375 N.3     1  UNL1       -0.3206
      2 C           0.7689    1.6399   20.4366 C.3     1  UNL1        0.0750
      3 C          -0.5925    2.0529   20.9121 C.3     1  UNL1        0.1079
      4 N          -1.4934    2.8446   20.0112 N.pl3   1  UNL1       -0.2905
      5 C          -1.0328    3.2233   18.6348 C.3     1  UNL1        0.0926
      6 C           0.3285    2.8104   18.1593 C.3     1  UNL1        0.0273
      7 C           1.2295    2.0187   19.0602 C.3     1  UNL1        0.0422
      8 H           1.1996    0.6815   22.2272 H       1  UNL1        0.1189
      9 H           2.5311    1.3698   21.5007 H       1  UNL1        0.1189
     10 C          -2.8548    3.2576   20.4866 C.ar    1  UNL1        0.1520
     11 C          -3.9072    3.6549   19.4944 C.ar    1  UNL1        0.0392
     12 C          -5.2685    4.0679   19.9699 C.ar    1  UNL1        0.0418
     13 C          -5.5775    4.0834   21.4376 C.ar    1  UNL1        0.1672
     14 N          -6.9390    4.4964   21.9131 N.ar    1  UNL1       -0.1887
     15 C          -7.2480    4.5120   23.3808 C.ar    1  UNL1        0.2822
     16 O          -8.6093    4.9249   23.8563 O.2     1  UNL1       -0.2651
     17 C          -6.1955    4.1146   24.3731 C.ar    1  UNL1        0.0832
     18 C          -4.8342    3.7017   23.8976 C.ar    1  UNL1        0.1071
     19 N          -4.5252    3.6861   22.4299 N.ar    1  UNL1       -0.2094
     20 N          -3.1638    3.2731   21.9544 N.ar    1  UNL1       -0.1487
     21 C           2.5908    1.6058   18.5847 C.ar    1  UNL1        0.0087
     22 C           2.8189    0.2104   18.0838 C.ar    1  UNL1        0.0300
     23 C           4.1804   -0.2026   17.6083 C.ar    1  UNL1        0.1672
     24 F           4.4085   -1.5979   17.1074 F       1  UNL1       -0.2018
     25 C           5.3136    0.7798   17.6337 C.ar    1  UNL1        0.1696
     26 F           6.6750    0.3669   17.1582 F       1  UNL1       -0.2017
     27 C           5.0854    2.1752   18.1347 C.ar    1  UNL1        0.0612
     28 C           3.7241    2.5882   18.6102 C.ar    1  UNL1        0.1386
     29 F           3.4959    3.9835   19.1111 F       1  UNL1       -0.2044
@<TRIPOS>BOND
     1     2     1    1
     2     2     3    1
     3     3     4    1
     4     4    10    1
     5    10    11   ar
     6    11    12   ar
     7    12    13   ar
     8    13    14   ar
     9    14    15   ar
    10    15    16    2
    11    15    17   ar
    12    17    18   ar
    13    18    19   ar
    14    19    20   ar
    15     4     5    1
    16     5     6    1
    17     6     7    1
    18     7    21    1
    19    21    22   ar
    20    22    23   ar
    21    23    24    1
    22    23    25   ar
    23    25    26    1
    24    25    27   ar
    25    27    28   ar
    26    28    29    1
    27     7     2    1
    28    28    21   ar
    29    20    10   ar
    30    19    13   ar
    31     1     8    1
    32     1     9    1
@<TRIPOS>MOLECULE
*****
 29 32 0 0 0
SMALL
GASTEIGER

@<TRIPOS>ATOM
      1 N          -0.5324   -0.5824   29.5264 N.3     1  UNL1       -0.3206
      2 C          -0.2825    0.7659   28.9187 C.3     1  UNL1        0.0750
      3 C          -1.1512    1.2564   27.7985 C.3     1  UNL1        0.1079
      4 N          -0.9013    2.6048   27.1908 N.pl3   1  UNL1       -0.2905
      5 C           0.2173    3.4628   27.7032 C.3     1  UNL1        0.0926
      6 C           1.0860    2.9724   28.8234 C.3     1  UNL1        0.0273
      7 C           0.8361    1.6239   29.4312 C.3     1  UNL1        0.0422
      8 H          -1.3246   -1.0241   29.0598 H       1  UNL1        0.1189
      9 H          -0.7395   -0.4748   30.5194 H       1  UNL1        0.1189
     10 C          -1.7700    3.0953   26.0705 C.ar    1  UNL1        0.1520
     11 C          -1.2190    3.1850   24.6783 C.ar    1  UNL1        0.0392
     12 C          -2.0877    3.6755   23.5581 C.ar    1  UNL1        0.0418
     13 C          -3.5074    4.0761   23.8302 C.ar    1  UNL1        0.1672
     14 N          -4.3761    4.5666   22.7100 N.ar    1  UNL1       -0.1887
     15 C          -5.7958    4.9673   22.9820 C.ar    1  UNL1        0.2822
     16 O          -6.6645    5.4577   21.8619 O.2     1  UNL1       -0.2651
     17 C          -6.3467    4.8774   24.3743 C.ar    1  UNL1        0.0832
     18 C          -5.4780    4.3870   25.4945 C.ar    1  UNL1        0.1071
     19 N          -4.0584    3.9863   25.2224 N.ar    1  UNL1       -0.2094
     20 N          -3.1897    3.4959   26.3426 N.ar    1  UNL1       -0.1487
     21 C           1.7048    1.1335   30.5514 C.ar    1  UNL1        0.0087
     22 C           1.6608    1.8138   31.8875 C.ar    1  UNL1        0.0300
     23 C           2.5295    1.3234   33.0078 C.ar    1  UNL1        0.1672
     24 F           2.4855    2.0036   34.3439 F       1  UNL1       -0.2018
     25 C           3.4422    0.1528   32.7918 C.ar    1  UNL1        0.1696
     26 F           4.3109   -0.3376   33.9120 F       1  UNL1       -0.2017
     27 C           3.4862   -0.5275   31.4556 C.ar    1  UNL1        0.0612
     28 C           2.6175   -0.0371   30.3354 C.ar    1  UNL1        0.1386
     29 F           2.6615   -0.7173   28.9993 F       1  UNL1       -0.2044
@<TRIPOS>BOND
     1     2     1    1
     2     2     3    1
     3     3     4    1
     4     4    10    1
     5    10    11   ar
     6    11    12   ar
     7    12    13   ar
     8    13    14   ar
     9    14    15   ar
    10    15    16    2
    11    15    17   ar
    12    17    18   ar
    13    18    19   ar
    14    19    20   ar
    15     4     5    1
    16     5     6    1
    17     6     7    1
    18     7    21    1
    19    21    22   ar
    20    22    23   ar
    21    23    24    1
    22    23    25   ar
    23    25    26    1
    24    25    27   ar
    25    27    28   ar
    26    28    29    1
    27     7     2    1
    28    28    21   ar
    29    20    10   ar
    30    19    13   ar
    31     1     8    1
    32     1     9    1
@<TRIPOS>MOLECULE
*****
 29 32 0 0 0
SMALL
GASTEIGER

@<TRIPOS>ATOM
      1 N           1.6310   -0.6307   30.3307 N.3     1  UNL1       -0.3206
      2 C           2.8512   -0.7088   29.4618 C.3     1  UNL1        0.0750
      3 C           2.7057   -0.8347   27.9742 C.3     1  UNL1        0.1079
      4 N           3.9259   -0.9128   27.1053 N.pl3   1  UNL1       -0.2905
      5 C           5.2915   -0.8650   27.7239 C.3     1  UNL1        0.0926
      6 C           5.4370   -0.7391   29.2115 C.3     1  UNL1        0.0273
      7 C           4.2168   -0.6610   30.0805 C.3     1  UNL1        0.0422
      8 H           0.7951   -0.6773   29.7481 H       1  UNL1        0.1189
      9 H           1.6370    0.2490   30.8470 H       1  UNL1        0.1189
     10 C           3.7805   -1.0387   25.6176 C.ar    1  UNL1        0.1520
     11 C           2.9467   -0.0491   24.8591 C.ar    1  UNL1        0.0392
     12 C           2.8013   -0.1750   23.3715 C.ar    1  UNL1        0.0418
     13 C           3.4897   -1.2906   22.6424 C.ar    1  UNL1        0.1672
     14 N           3.3442   -1.4165   21.1548 N.ar    1  UNL1       -0.1887
     15 C           4.0326   -2.5321   20.4257 C.ar    1  UNL1        0.2822
     16 O           3.8872   -2.6581   18.9381 O.2     1  UNL1       -0.2651
     17 C           4.8665   -3.5218   21.1842 C.ar    1  UNL1        0.0832
     18 C           5.0118   -3.3958   22.6718 C.ar    1  UNL1        0.1071
     19 N           4.3235   -2.2802   23.4009 N.ar    1  UNL1       -0.2094
     20 N           4.4689   -2.1543   24.8885 N.ar    1  UNL1       -0.1487
     21 C           4.3623   -0.5350   31.5681 C.ar    1  UNL1        0.0087
     22 C           3.9699    0.7395   32.2548 C.ar    1  UNL1        0.0300
     23 C           4.1154    0.8654   33.7424 C.ar    1  UNL1        0.1672
     24 F           3.7230    2.1400   34.4291 F       1  UNL1       -0.2018
     25 C           4.6532   -0.2832   34.5433 C.ar    1  UNL1        0.1696
     26 F           4.7987   -0.1573   36.0309 F       1  UNL1       -0.2017
     27 C           5.0456   -1.5577   33.8565 C.ar    1  UNL1        0.0612
     28 C           4.9001   -1.6837   32.3690 C.ar    1  UNL1        0.1386
     29 F           5.2925   -2.9582   31.6823 F       1  UNL1       -0.2044
@<TRIPOS>BOND
     1     2     1    1
     2     2     3    1
     3     3     4    1
     4     4    10    1
     5    10    11   ar
     6    11    12   ar
     7    12    13   ar
     8    13    14   ar
     9    14    15   ar
    10    15    16    2
    11    15    17   ar
    12    17    18   ar
    13    18    19   ar
    14    19    20   ar
    15     4     5    1
    16     5     6    1
    17     6     7    1
    18     7    21    1
    19    21    22   ar
    20    22    23   ar
    21    23    24    1
    22    23    25   ar
    23    25    26    1
    24    25    27   ar
    25    27    28   ar
    26    28    29    1
    27     7     2    1
    28    28    21   ar
    29    20    10   ar
    30    19    13   ar
    31     1     8    1
    32     1     9    1
