@<TRIPOS>MOLECULE
*****
 29 32 0 0 0
SMALL
GASTEIGER

@<TRIPOS>ATOM
      1 C          -8.4844  -16.8762   23.4048 C.3     1  UNL1        0.1139
      2 C          -7.6940  -16.2610   24.5213 C.ar    1  UNL1       -0.0029
      3 C          -6.2646  -15.8644   24.2986 C.ar    1  UNL1       -0.0026
      4 C          -5.4742  -15.2492   25.4152 C.ar    1  UNL1       -0.0003
      5 C          -6.1131  -15.0307   26.7545 C.ar    1  UNL1       -0.0000
      6 C          -7.5425  -15.4272   26.9774 C.ar    1  UNL1       -0.0003
      7 C          -8.3329  -16.0424   25.8608 C.ar    1  UNL1       -0.0026
      8 C         -10.4539  -18.2353   24.4167 C.3     1  UNL1        0.1153
      9 N          -9.1869  -18.1847   23.6154 N.am    1  UNL1       -0.2714
     10 C          -8.6222  -19.4426   23.0248 C.2     1  UNL1        0.2661
     11 O          -9.3246  -20.7511   23.2355 O.2     1  UNL1       -0.2710
     12 C          -7.3551  -19.3920   22.2236 C.3     1  UNL1        0.2415
     13 C          -7.3752  -19.7436   20.7655 C.3     1  UNL1        0.0579
     14 C          -6.1082  -19.6930   19.9642 C.3     1  UNL1        0.0337
     15 C          -4.8210  -19.2907   20.6210 C.ar    1  UNL1        0.0119
     16 C          -3.5540  -19.2401   19.8198 C.ar    1  UNL1       -0.0013
     17 C          -2.2668  -18.8379   20.4766 C.ar    1  UNL1       -0.0001
     18 C          -2.2467  -18.4863   21.9346 C.ar    1  UNL1        0.0031
     19 C          -3.5137  -18.5369   22.7359 C.ar    1  UNL1        0.0366
     20 C          -4.8009  -18.9392   22.0791 C.ar    1  UNL1        0.1350
     21 O          -6.0680  -18.9898   22.8804 O.3     1  UNL1       -0.4703
     22 C          -8.5724  -16.1828   22.0775 C.3     1  UNL1        0.0968
     23 N          -9.7586  -16.4125   21.1886 N.3     1  UNL1       -0.2689
     24 C         -10.3128  -17.7467   20.7850 C.3     1  UNL1        0.0748
     25 C         -11.4956  -17.5071   19.8941 C.3     1  UNL1        0.0480
     26 C         -11.6724  -16.0247   19.7471 C.3     1  UNL1        0.1278
     27 O         -12.7359  -15.3393   18.9415 O.3     1  UNL1       -0.3830
     28 C         -10.5989  -15.3483   20.5471 C.3     1  UNL1        0.1017
     29 H         -13.3031  -16.0049   18.5218 H       1  UNL1        0.2104
@<TRIPOS>BOND
     1     8     9    1
     2     9    10   am
     3    10    11    2
     4    12    10    1
     5    12    13    1
     6    13    14    1
     7    14    15    1
     8    15    16   ar
     9    16    17   ar
    10    17    18   ar
    11    18    19   ar
    12    19    20   ar
    13    20    21    1
    14     9     1    1
    15     1    22    1
    16    22    23    1
    17    23    24    1
    18    24    25    1
    19    25    26    1
    20    26    27    1
    21    26    28    1
    22     1     2    1
    23     2     3   ar
    24     3     4   ar
    25     4     5   ar
    26     5     6   ar
    27     6     7   ar
    28    21    12    1
    29    28    23    1
    30     7     2   ar
    31    20    15   ar
    32    27    29    1
@<TRIPOS>MOLECULE
*****
 29 32 0 0 0
SMALL
GASTEIGER

@<TRIPOS>ATOM
      1 C          -9.4635  -18.9082   21.5631 C.3     1  UNL1        0.1139
      2 C          -8.0147  -19.2224   21.3347 C.ar    1  UNL1       -0.0029
      3 C          -7.0228  -19.0355   22.4442 C.ar    1  UNL1       -0.0026
      4 C          -5.5739  -19.3497   22.2159 C.ar    1  UNL1       -0.0003
      5 C          -5.1170  -19.8508   20.8779 C.ar    1  UNL1       -0.0000
      6 C          -6.1090  -20.0378   19.7683 C.ar    1  UNL1       -0.0003
      7 C          -7.5578  -19.7236   19.9967 C.ar    1  UNL1       -0.0026
      8 C         -10.9858  -18.0460   19.6423 C.3     1  UNL1        0.1153
      9 N         -10.1093  -17.7712   20.8281 N.am    1  UNL1       -0.2714
     10 C          -9.8785  -16.3593   21.2790 C.2     1  UNL1        0.2661
     11 O         -10.5243  -15.2223   20.5441 O.2     1  UNL1       -0.2710
     12 C          -9.0020  -16.0845   22.4649 C.3     1  UNL1        0.2415
     13 C          -7.7004  -15.3613   22.2839 C.3     1  UNL1        0.0579
     14 C          -6.8239  -15.0864   23.4697 C.3     1  UNL1        0.0337
     15 C          -7.2490  -15.5348   24.8366 C.ar    1  UNL1        0.0119
     16 C          -6.3725  -15.2600   26.0224 C.ar    1  UNL1       -0.0013
     17 C          -6.7976  -15.7083   27.3892 C.ar    1  UNL1       -0.0001
     18 C          -8.0992  -16.4315   27.5702 C.ar    1  UNL1        0.0031
     19 C          -8.9757  -16.7064   26.3844 C.ar    1  UNL1        0.0366
     20 C          -8.5506  -16.2580   25.0176 C.ar    1  UNL1        0.1350
     21 O          -9.4271  -16.5328   23.8317 O.3     1  UNL1       -0.4703
     22 C         -10.2666  -19.7311   22.5264 C.3     1  UNL1        0.0968
     23 N         -11.4890  -19.1491   23.1724 N.3     1  UNL1       -0.2689
     24 C         -12.4682  -18.2151   22.5252 C.3     1  UNL1        0.0748
     25 C         -13.5312  -17.8877   23.5316 C.3     1  UNL1        0.0480
     26 C         -13.2089  -18.6194   24.8008 C.3     1  UNL1        0.1278
     27 O         -14.0084  -18.5786   26.0694 O.3     1  UNL1       -0.3830
     28 C         -11.9468  -19.3989   24.5788 C.3     1  UNL1        0.1017
     29 H         -14.7777  -18.0004   25.9482 H       1  UNL1        0.2104
@<TRIPOS>BOND
     1     8     9    1
     2     9    10   am
     3    10    11    2
     4    12    10    1
     5    12    13    1
     6    13    14    1
     7    14    15    1
     8    15    16   ar
     9    16    17   ar
    10    17    18   ar
    11    18    19   ar
    12    19    20   ar
    13    20    21    1
    14     9     1    1
    15     1    22    1
    16    22    23    1
    17    23    24    1
    18    24    25    1
    19    25    26    1
    20    26    27    1
    21    26    28    1
    22     1     2    1
    23     2     3   ar
    24     3     4   ar
    25     4     5   ar
    26     5     6   ar
    27     6     7   ar
    28    21    12    1
    29    28    23    1
    30     7     2   ar
    31    20    15   ar
    32    27    29    1
@<TRIPOS>MOLECULE
*****
 29 32 0 0 0
SMALL
GASTEIGER

@<TRIPOS>ATOM
      1 C          -7.8643  -18.1141   22.4545 C.3     1  UNL1        0.1139
      2 C          -7.6416  -17.0628   23.5009 C.ar    1  UNL1       -0.0029
      3 C          -6.3066  -16.3883   23.6142 C.ar    1  UNL1       -0.0026
      4 C          -6.0839  -15.3369   24.6606 C.ar    1  UNL1       -0.0003
      5 C          -7.1961  -14.9601   25.5938 C.ar    1  UNL1       -0.0000
      6 C          -8.5312  -15.6346   25.4805 C.ar    1  UNL1       -0.0003
      7 C          -8.7539  -16.6859   24.4341 C.ar    1  UNL1       -0.0026
      8 C          -9.0335  -20.1576   23.5533 C.3     1  UNL1        0.1153
      9 N          -7.8573  -19.5650   22.8355 N.am    1  UNL1       -0.2714
     10 C          -6.6739  -20.4231   22.4988 C.2     1  UNL1        0.2661
     11 O          -6.6669  -21.8738   22.8799 O.2     1  UNL1       -0.2710
     12 C          -5.4977  -19.8304   21.7810 C.3     1  UNL1        0.2415
     13 C          -5.1039  -20.3499   20.4301 C.3     1  UNL1        0.0579
     14 C          -3.9277  -19.7573   19.7123 C.3     1  UNL1        0.0337
     15 C          -3.1452  -18.6450   20.3454 C.ar    1  UNL1        0.0119
     16 C          -1.9690  -18.0524   19.6277 C.ar    1  UNL1       -0.0013
     17 C          -1.1866  -16.9402   20.2608 C.ar    1  UNL1       -0.0001
     18 C          -1.5804  -16.4207   21.6117 C.ar    1  UNL1        0.0031
     19 C          -2.7566  -17.0134   22.3295 C.ar    1  UNL1        0.0366
     20 C          -3.5390  -18.1255   21.6964 C.ar    1  UNL1        0.1350
     21 O          -4.7153  -18.7182   22.4142 O.3     1  UNL1       -0.4703
     22 C          -8.0941  -17.7147   21.0270 C.3     1  UNL1        0.0968
     23 N          -8.8035  -18.6487   20.0918 N.3     1  UNL1       -0.2689
     24 C         -10.2888  -18.7565   19.9120 C.3     1  UNL1        0.0748
     25 C         -10.5555  -19.8131   18.8813 C.3     1  UNL1        0.0480
     26 C          -9.2349  -20.3583   18.4240 C.3     1  UNL1        0.1278
     27 O          -9.0327  -21.4342   17.3985 O.3     1  UNL1       -0.3830
     28 C          -8.1522  -19.6386   19.1721 C.3     1  UNL1        0.1017
     29 H          -9.8946  -21.7319   17.0679 H       1  UNL1        0.2104
@<TRIPOS>BOND
     1     8     9    1
     2     9    10   am
     3    10    11    2
     4    12    10    1
     5    12    13    1
     6    13    14    1
     7    14    15    1
     8    15    16   ar
     9    16    17   ar
    10    17    18   ar
    11    18    19   ar
    12    19    20   ar
    13    20    21    1
    14     9     1    1
    15     1    22    1
    16    22    23    1
    17    23    24    1
    18    24    25    1
    19    25    26    1
    20    26    27    1
    21    26    28    1
    22     1     2    1
    23     2     3   ar
    24     3     4   ar
    25     4     5   ar
    26     5     6   ar
    27     6     7   ar
    28    21    12    1
    29    28    23    1
    30     7     2   ar
    31    20    15   ar
    32    27    29    1
