@<TRIPOS>MOLECULE
*****
 33 37 0 0 0
SMALL
GASTEIGER

@<TRIPOS>ATOM
      1 N          -9.1227  -17.2480   21.8781 N.ar    1  UNL1       -0.2954
      2 C          -8.7839  -18.6344   21.4166 C.ar    1  UNL1        0.2014
      3 N         -10.0665  -19.3948   21.2532 N.ar    1  UNL1       -0.2136
      4 C         -11.1979  -18.4784   21.6138 C.ar    1  UNL1        0.0999
      5 C         -12.6839  -18.6808   21.6404 C.ar    1  UNL1        0.0207
      6 C         -13.5866  -17.5562   22.0532 C.ar    1  UNL1        0.0016
      7 C         -13.0033  -16.2293   22.4394 C.ar    1  UNL1        0.0016
      8 C         -11.5173  -16.0270   22.4128 C.ar    1  UNL1        0.0188
      9 C         -10.6146  -17.1516   22.0001 C.ar    1  UNL1        0.0801
     10 N          -7.4047  -19.1669   21.1629 N.pl3   1  UNL1       -0.2794
     11 C          -6.7037  -19.9675   22.2200 C.3     1  UNL1        0.0949
     12 C          -5.3245  -20.4999   21.9664 C.3     1  UNL1        0.0373
     13 C          -4.6464  -20.2318   20.6556 C.3     1  UNL1        0.0574
     14 C          -5.3474  -19.4312   19.5985 C.3     1  UNL1        0.0373
     15 C          -6.7266  -18.8987   19.8521 C.3     1  UNL1        0.0949
     16 N          -3.2672  -20.7643   20.4019 N.3     1  UNL1       -0.2984
     17 H          -3.0842  -20.6451   19.4056 H       1  UNL1        0.1232
     18 C          -2.0926  -20.1818   21.1306 C.3     1  UNL1        0.0686
     19 C          -1.9577  -18.6942   21.2680 C.3     1  UNL1        0.0207
     20 C          -2.7194  -17.9677   22.3367 C.3     1  UNL1        0.0335
     21 C          -2.5845  -16.4801   22.4742 C.3     1  UNL1        0.1422
     22 O          -1.6880  -15.7191   21.5429 O.3     1  UNL1       -0.3538
     23 C          -0.9263  -16.4456   20.4743 C.3     1  UNL1        0.1422
     24 C          -1.0612  -17.9332   20.3369 C.3     1  UNL1        0.0335
     25 C          -8.1417  -16.1506   22.1671 C.3     1  UNL1        0.1354
     26 C          -6.9175  -15.2862   26.4102 C.ar    1  UNL1        0.1387
     27 C          -5.8891  -15.2871   25.3183 C.ar    1  UNL1        0.0366
     28 C          -6.2972  -15.5753   23.9039 C.ar    1  UNL1        0.0007
     29 C          -7.7337  -15.8624   23.5814 C.ar    1  UNL1        0.0007
     30 C          -8.7621  -15.8615   24.6734 C.ar    1  UNL1        0.0007
     31 C          -8.3540  -15.5733   26.0877 C.ar    1  UNL1        0.0366
     32 C          -6.8727  -13.6876   28.4579 C.3     1  UNL1        0.2525
     33 O          -6.5094  -14.9980   27.8245 O.3     1  UNL1       -0.4714
@<TRIPOS>BOND
     1    32    33    1
     2    33    26    1
     3    26    27   ar
     4    27    28   ar
     5    28    29   ar
     6    29    25    1
     7    25     1    1
     8     1     2   ar
     9     2    10    1
    10    10    11    1
    11    11    12    1
    12    12    13    1
    13    13    16    1
    14    16    18    1
    15    18    19    1
    16    19    20    1
    17    20    21    1
    18    21    22    1
    19    22    23    1
    20    23    24    1
    21    13    14    1
    22    14    15    1
    23     2     3   ar
    24     3     4   ar
    25     4     5   ar
    26     5     6   ar
    27     6     7   ar
    28     7     8   ar
    29     8     9   ar
    30    29    30   ar
    31    30    31   ar
    32    31    26   ar
    33     9     1   ar
    34    15    10    1
    35     9     4   ar
    36    24    19    1
    37    16    17    1
@<TRIPOS>MOLECULE
*****
 33 37 0 0 0
SMALL
GASTEIGER

@<TRIPOS>ATOM
      1 N         -13.9599   -1.4077   18.1371 N.ar    1  UNL1       -0.2954
      2 C         -14.7259   -2.4659   18.8743 C.ar    1  UNL1        0.2014
      3 N         -15.7760   -1.7860   19.7020 N.ar    1  UNL1       -0.2136
      4 C         -15.6589   -0.3077   19.4764 C.ar    1  UNL1        0.0999
      5 C         -16.4294    0.8557   20.0266 C.ar    1  UNL1        0.0207
      6 C         -16.0773    2.2529   19.6097 C.ar    1  UNL1        0.0016
      7 C         -14.9549    2.4867   18.6425 C.ar    1  UNL1        0.0016
      8 C         -14.1844    1.3233   18.0923 C.ar    1  UNL1        0.0188
      9 C         -14.5365   -0.0739   18.5092 C.ar    1  UNL1        0.0801
     10 N         -14.4844   -3.9443   18.7973 N.pl3   1  UNL1       -0.2794
     11 C         -15.0356   -4.7355   17.6484 C.3     1  UNL1        0.0949
     12 C         -14.7941   -6.2139   17.5714 C.3     1  UNL1        0.0373
     13 C         -14.0012   -6.9011   18.6433 C.3     1  UNL1        0.0574
     14 C         -13.4499   -6.1099   19.7922 C.3     1  UNL1        0.0373
     15 C         -13.6915   -4.6315   19.8692 C.3     1  UNL1        0.0949
     16 N         -13.7596   -8.3795   18.5663 N.3     1  UNL1       -0.2984
     17 H         -13.4590   -8.6775   19.4944 H       1  UNL1        0.1232
     18 C         -14.8696   -9.3004   18.1544 C.3     1  UNL1        0.0686
     19 C         -16.2826   -8.9995   18.5582 C.3     1  UNL1        0.0207
     20 C         -16.6073   -8.7124   19.9942 C.3     1  UNL1        0.0335
     21 C         -18.0202   -8.4115   20.3980 C.3     1  UNL1        0.1422
     22 O         -19.1085   -8.3977   19.3657 O.3     1  UNL1       -0.3538
     23 C         -18.7838   -8.6849   17.9297 C.3     1  UNL1        0.1422
     24 C         -17.3708   -8.9858   17.5260 C.3     1  UNL1        0.0335
     25 C         -12.8177   -1.6422   17.1935 C.3     1  UNL1        0.1354
     26 C         -10.1444   -5.2204   17.7414 C.ar    1  UNL1        0.1387
     27 C         -11.0730   -5.1510   16.5654 C.ar    1  UNL1        0.0366
     28 C         -11.9641   -3.9583   16.3828 C.ar    1  UNL1        0.0007
     29 C         -11.9266   -2.8349   17.3761 C.ar    1  UNL1        0.0007
     30 C         -10.9980   -2.9043   18.5521 C.ar    1  UNL1        0.0007
     31 C         -10.1069   -4.0970   18.7347 C.ar    1  UNL1        0.0366
     32 C          -9.6101   -7.4693   18.9277 C.3     1  UNL1        0.2525
     33 O          -9.2533   -6.4131   17.9240 O.3     1  UNL1       -0.4714
@<TRIPOS>BOND
     1    32    33    1
     2    33    26    1
     3    26    27   ar
     4    27    28   ar
     5    28    29   ar
     6    29    25    1
     7    25     1    1
     8     1     2   ar
     9     2    10    1
    10    10    11    1
    11    11    12    1
    12    12    13    1
    13    13    16    1
    14    16    18    1
    15    18    19    1
    16    19    20    1
    17    20    21    1
    18    21    22    1
    19    22    23    1
    20    23    24    1
    21    13    14    1
    22    14    15    1
    23     2     3   ar
    24     3     4   ar
    25     4     5   ar
    26     5     6   ar
    27     6     7   ar
    28     7     8   ar
    29     8     9   ar
    30    29    30   ar
    31    30    31   ar
    32    31    26   ar
    33     9     1   ar
    34    15    10    1
    35     9     4   ar
    36    24    19    1
    37    16    17    1
@<TRIPOS>MOLECULE
*****
 33 37 0 0 0
SMALL
GASTEIGER

@<TRIPOS>ATOM
      1 N          -3.4819  -18.1174   22.2011 N.ar    1  UNL1       -0.2954
      2 C          -3.4208  -16.7802   22.8779 C.ar    1  UNL1        0.2014
      3 N          -2.2900  -16.0043   22.2703 N.ar    1  UNL1       -0.2136
      4 C          -1.6521  -16.8620   21.2179 C.ar    1  UNL1        0.0999
      5 C          -0.4957  -16.6226   20.2931 C.ar    1  UNL1        0.0207
      6 C          -0.0760  -17.6891   19.3255 C.ar    1  UNL1        0.0016
      7 C          -0.8127  -18.9951   19.2827 C.ar    1  UNL1        0.0016
      8 C          -1.9691  -19.2345   20.2075 C.ar    1  UNL1        0.0188
      9 C          -2.3888  -18.1680   21.1751 C.ar    1  UNL1        0.0801
     10 N          -4.3308  -16.3026   23.9706 N.pl3   1  UNL1       -0.2794
     11 C          -4.1968  -16.8615   25.3561 C.3     1  UNL1        0.0949
     12 C          -5.1068  -16.3840   26.4487 C.3     1  UNL1        0.0373
     13 C          -6.1508  -15.3475   26.1559 C.3     1  UNL1        0.0574
     14 C          -6.2848  -14.7886   24.7704 C.3     1  UNL1        0.0373
     15 C          -5.3748  -15.2662   23.6777 C.3     1  UNL1        0.0949
     16 N          -7.0608  -14.8700   27.2485 N.3     1  UNL1       -0.2984
     17 H          -7.1278  -13.8566   27.1540 H       1  UNL1        0.1232
     18 C          -8.4649  -15.3904   27.3362 C.3     1  UNL1        0.0686
     19 C          -9.0247  -16.2291   26.2257 C.3     1  UNL1        0.0207
     20 C          -9.2379  -17.6997   26.4307 C.3     1  UNL1        0.0335
     21 C          -9.7977  -18.5383   25.3201 C.3     1  UNL1        0.1422
     22 O         -10.1442  -17.9063   24.0045 O.3     1  UNL1       -0.3538
     23 C          -9.9310  -16.4358   23.7996 C.3     1  UNL1        0.1422
     24 C          -9.3712  -15.5972   24.9102 C.3     1  UNL1        0.0335
     25 C          -4.4637  -19.2118   22.4981 C.3     1  UNL1        0.1354
     26 C          -8.3407  -19.4348   20.2246 C.ar    1  UNL1        0.1387
     27 C          -7.1690  -20.2657   19.7923 C.ar    1  UNL1        0.0366
     28 C          -5.8767  -20.1913   20.5502 C.ar    1  UNL1        0.0007
     29 C          -5.7560  -19.2861   21.7403 C.ar    1  UNL1        0.0007
     30 C          -6.9277  -18.4553   22.1724 C.ar    1  UNL1        0.0007
     31 C          -8.2201  -18.5297   21.4146 C.ar    1  UNL1        0.0366
     32 C         -10.7221  -18.5149   19.7418 C.3     1  UNL1        0.2525
     33 O          -9.6330  -19.5092   19.4667 O.3     1  UNL1       -0.4714
@<TRIPOS>BOND
     1    32    33    1
     2    33    26    1
     3    26    27   ar
     4    27    28   ar
     5    28    29   ar
     6    29    25    1
     7    25     1    1
     8     1     2   ar
     9     2    10    1
    10    10    11    1
    11    11    12    1
    12    12    13    1
    13    13    16    1
    14    16    18    1
    15    18    19    1
    16    19    20    1
    17    20    21    1
    18    21    22    1
    19    22    23    1
    20    23    24    1
    21    13    14    1
    22    14    15    1
    23     2     3   ar
    24     3     4   ar
    25     4     5   ar
    26     5     6   ar
    27     6     7   ar
    28     7     8   ar
    29     8     9   ar
    30    29    30   ar
    31    30    31   ar
    32    31    26   ar
    33     9     1   ar
    34    15    10    1
    35     9     4   ar
    36    24    19    1
    37    16    17    1
@<TRIPOS>MOLECULE
*****
 33 37 0 0 0
SMALL
GASTEIGER

@<TRIPOS>ATOM
      1 N           6.1664   -2.1387   30.4709 N.ar    1  UNL1       -0.2954
      2 C           6.2971   -2.4821   31.9252 C.ar    1  UNL1        0.2014
      3 N           6.7402   -3.9117   32.0258 N.ar    1  UNL1       -0.2136
      4 C           6.8833   -4.4517   30.6338 C.ar    1  UNL1        0.0999
      5 C           7.2908   -5.7997   30.1171 C.ar    1  UNL1        0.0207
      6 C           7.3435   -6.0518   28.6394 C.ar    1  UNL1        0.0016
      7 C           6.9888   -4.9561   27.6784 C.ar    1  UNL1        0.0016
      8 C           6.5814   -3.6081   28.1951 C.ar    1  UNL1        0.0188
      9 C           6.5287   -3.3559   29.6728 C.ar    1  UNL1        0.0801
     10 N           6.0315   -1.5583   33.0767 N.pl3   1  UNL1       -0.2794
     11 C           7.0728   -0.5633   33.4957 C.3     1  UNL1        0.0949
     12 C           6.8071    0.3605   34.6472 C.3     1  UNL1        0.0373
     13 C           5.5001    0.2894   35.3797 C.3     1  UNL1        0.0574
     14 C           4.4587   -0.7055   34.9607 C.3     1  UNL1        0.0373
     15 C           4.7244   -1.6294   33.8092 C.3     1  UNL1        0.0949
     16 N           5.2344    1.2133   36.5311 N.3     1  UNL1       -0.2984
     17 H           4.7693    2.0359   36.1474 H       1  UNL1        0.1232
     18 C           4.4040    0.7476   37.6902 C.3     1  UNL1        0.0686
     19 C           3.1057    1.4298   38.0047 C.3     1  UNL1        0.0207
     20 C           2.1259    0.7836   38.9388 C.3     1  UNL1        0.0335
     21 C           0.8276    1.4658   39.2533 C.3     1  UNL1        0.1422
     22 O           0.5091    2.7943   38.6338 O.3     1  UNL1       -0.3538
     23 C           1.4889    3.4405   37.6998 C.3     1  UNL1        0.1422
     24 C           2.7872    2.7583   37.3853 C.3     1  UNL1        0.0335
     25 C           5.7470   -0.8111   29.9128 C.3     1  UNL1        0.1354
     26 C           1.3824    0.2640   29.7024 C.ar    1  UNL1        0.1387
     27 C           2.0140   -0.5274   28.5957 C.ar    1  UNL1        0.0366
     28 C           3.4689   -0.8857   28.6658 C.ar    1  UNL1        0.0007
     29 C           4.2922   -0.4527   29.8427 C.ar    1  UNL1        0.0007
     30 C           3.6604    0.3387   30.9493 C.ar    1  UNL1        0.0007
     31 C           2.2056    0.6970   30.8792 C.ar    1  UNL1        0.0366
     32 C          -1.0191   -0.2354   28.8458 C.3     1  UNL1        0.2525
     33 O          -0.0725    0.6224   29.6322 O.3     1  UNL1       -0.4714
@<TRIPOS>BOND
     1    32    33    1
     2    33    26    1
     3    26    27   ar
     4    27    28   ar
     5    28    29   ar
     6    29    25    1
     7    25     1    1
     8     1     2   ar
     9     2    10    1
    10    10    11    1
    11    11    12    1
    12    12    13    1
    13    13    16    1
    14    16    18    1
    15    18    19    1
    16    19    20    1
    17    20    21    1
    18    21    22    1
    19    22    23    1
    20    23    24    1
    21    13    14    1
    22    14    15    1
    23     2     3   ar
    24     3     4   ar
    25     4     5   ar
    26     5     6   ar
    27     6     7   ar
    28     7     8   ar
    29     8     9   ar
    30    29    30   ar
    31    30    31   ar
    32    31    26   ar
    33     9     1   ar
    34    15    10    1
    35     9     4   ar
    36    24    19    1
    37    16    17    1
@<TRIPOS>MOLECULE
*****
 33 37 0 0 0
SMALL
GASTEIGER

@<TRIPOS>ATOM
      1 N         -13.0945   -5.0486   18.0686 N.ar    1  UNL1       -0.2954
      2 C         -12.7553   -3.7269   18.6915 C.ar    1  UNL1        0.2014
      3 N         -11.3466   -3.8026   19.2011 N.ar    1  UNL1       -0.2136
      4 C         -10.8151   -5.1711   18.8931 C.ar    1  UNL1        0.0999
      5 C          -9.4871   -5.8154   19.1596 C.ar    1  UNL1        0.0207
      6 C          -9.2393   -7.2299   18.7261 C.ar    1  UNL1        0.0016
      7 C         -10.3197   -8.0000   18.0262 C.ar    1  UNL1        0.0016
      8 C         -11.6477   -7.3556   17.7597 C.ar    1  UNL1        0.0188
      9 C         -11.8954   -5.9412   18.1932 C.ar    1  UNL1        0.0801
     10 N         -13.6651   -2.5382   18.7879 N.pl3   1  UNL1       -0.2794
     11 C         -14.7167   -2.4833   19.8562 C.3     1  UNL1        0.0949
     12 C         -15.6265   -1.2946   19.9526 C.3     1  UNL1        0.0373
     13 C         -15.4847   -0.1609   18.9808 C.3     1  UNL1        0.0574
     14 C         -14.4332   -0.2158   17.9125 C.3     1  UNL1        0.0373
     15 C         -13.5234   -1.4045   17.8161 C.3     1  UNL1        0.0949
     16 N         -16.3945    1.0278   19.0772 N.3     1  UNL1       -0.2984
     17 H         -17.0212    0.9850   18.2735 H       1  UNL1        0.1232
     18 C         -17.2575    1.2154   20.2896 C.3     1  UNL1        0.0686
     19 C         -16.9174    2.2746   21.2958 C.3     1  UNL1        0.0207
     20 C         -17.4122    2.1552   22.7069 C.3     1  UNL1        0.0335
     21 C         -17.0720    3.2144   23.7130 C.3     1  UNL1        0.1422
     22 O         -16.2370    4.3930   23.3081 O.3     1  UNL1       -0.3538
     23 C         -15.7423    4.5123   21.8972 C.3     1  UNL1        0.1422
     24 C         -16.0824    3.4531   20.8910 C.3     1  UNL1        0.0335
     25 C         -14.4031   -5.4137   17.4327 C.3     1  UNL1        0.1354
     26 C         -17.5744   -7.5006   19.8489 C.ar    1  UNL1        0.1387
     27 C         -17.7897   -6.0893   19.3884 C.ar    1  UNL1        0.0366
     28 C         -16.7326   -5.3937   18.5830 C.ar    1  UNL1        0.0007
     29 C         -15.4601   -6.1093   18.2381 C.ar    1  UNL1        0.0007
     30 C         -15.2449   -7.5206   18.6987 C.ar    1  UNL1        0.0007
     31 C         -16.3020   -8.2161   19.5041 C.ar    1  UNL1        0.0366
     32 C         -20.0572   -7.7360   20.5774 C.3     1  UNL1        0.2525
     33 O         -18.6315   -8.1962   20.6543 O.3     1  UNL1       -0.4714
@<TRIPOS>BOND
     1    32    33    1
     2    33    26    1
     3    26    27   ar
     4    27    28   ar
     5    28    29   ar
     6    29    25    1
     7    25     1    1
     8     1     2   ar
     9     2    10    1
    10    10    11    1
    11    11    12    1
    12    12    13    1
    13    13    16    1
    14    16    18    1
    15    18    19    1
    16    19    20    1
    17    20    21    1
    18    21    22    1
    19    22    23    1
    20    23    24    1
    21    13    14    1
    22    14    15    1
    23     2     3   ar
    24     3     4   ar
    25     4     5   ar
    26     5     6   ar
    27     6     7   ar
    28     7     8   ar
    29     8     9   ar
    30    29    30   ar
    31    30    31   ar
    32    31    26   ar
    33     9     1   ar
    34    15    10    1
    35     9     4   ar
    36    24    19    1
    37    16    17    1
@<TRIPOS>MOLECULE
*****
 33 37 0 0 0
SMALL
GASTEIGER

@<TRIPOS>ATOM
      1 N           0.6022    1.7536   19.6841 N.ar    1  UNL1       -0.2954
      2 C           1.7184    2.1197   18.7513 C.ar    1  UNL1        0.2014
      3 N           1.4458    3.4957   18.2200 N.ar    1  UNL1       -0.2136
      4 C           0.1613    3.9801   18.8245 C.ar    1  UNL1        0.0999
      5 C          -0.6010    5.2624   18.6678 C.ar    1  UNL1        0.0207
      6 C          -1.8847    5.4679   19.4160 C.ar    1  UNL1        0.0016
      7 C          -2.4061    4.3912   20.3209 C.ar    1  UNL1        0.0016
      8 C          -1.6438    3.1089   20.4776 C.ar    1  UNL1        0.0188
      9 C          -0.3601    2.9033   19.7294 C.ar    1  UNL1        0.0801
     10 N           2.8996    1.2607   18.4098 N.pl3   1  UNL1       -0.2794
     11 C           2.7240    0.0604   17.5275 C.3     1  UNL1        0.0949
     12 C           3.9053   -0.7986   17.1859 C.3     1  UNL1        0.0373
     13 C           5.2622   -0.4574   17.7267 C.3     1  UNL1        0.0574
     14 C           5.4378    0.7428   18.6090 C.3     1  UNL1        0.0373
     15 C           4.2565    1.6019   18.9505 C.3     1  UNL1        0.0949
     16 N           6.4434   -1.3165   17.3851 N.3     1  UNL1       -0.2984
     17 H           7.2091   -0.6846   17.1509 H       1  UNL1        0.1232
     18 C           6.9786   -2.2906   18.3924 C.3     1  UNL1        0.0686
     19 C           6.0329   -3.0806   19.2477 C.3     1  UNL1        0.0207
     20 C           5.0294   -3.9946   18.6093 C.3     1  UNL1        0.0335
     21 C           4.0837   -4.7846   19.4647 C.3     1  UNL1        0.1422
     22 O           4.1415   -4.6605   20.9585 O.3     1  UNL1       -0.3538
     23 C           5.1450   -3.7465   21.5968 C.3     1  UNL1        0.1422
     24 C           6.0907   -2.9565   20.7414 C.3     1  UNL1        0.0335
     25 C           0.4714    0.4642   20.4392 C.3     1  UNL1        0.1354
     26 C           3.0636   -0.3108   24.0350 C.ar    1  UNL1        0.1387
     27 C           1.8940    0.6224   24.1408 C.ar    1  UNL1        0.0366
     28 C           1.0300    0.8807   22.9421 C.ar    1  UNL1        0.0007
     29 C           1.3354    0.2058   21.6378 C.ar    1  UNL1        0.0007
     30 C           2.5050   -0.7274   21.5321 C.ar    1  UNL1        0.0007
     31 C           3.3691   -0.9857   22.7308 C.ar    1  UNL1        0.0366
     32 C           4.8191   -1.7751   25.2698 C.3     1  UNL1        0.2525
     33 O           3.9276   -0.5692   25.2336 O.3     1  UNL1       -0.4714
@<TRIPOS>BOND
     1    32    33    1
     2    33    26    1
     3    26    27   ar
     4    27    28   ar
     5    28    29   ar
     6    29    25    1
     7    25     1    1
     8     1     2   ar
     9     2    10    1
    10    10    11    1
    11    11    12    1
    12    12    13    1
    13    13    16    1
    14    16    18    1
    15    18    19    1
    16    19    20    1
    17    20    21    1
    18    21    22    1
    19    22    23    1
    20    23    24    1
    21    13    14    1
    22    14    15    1
    23     2     3   ar
    24     3     4   ar
    25     4     5   ar
    26     5     6   ar
    27     6     7   ar
    28     7     8   ar
    29     8     9   ar
    30    29    30   ar
    31    30    31   ar
    32    31    26   ar
    33     9     1   ar
    34    15    10    1
    35     9     4   ar
    36    24    19    1
    37    16    17    1
@<TRIPOS>MOLECULE
*****
 33 37 0 0 0
SMALL
GASTEIGER

@<TRIPOS>ATOM
      1 N         -15.0349   -0.0547   18.5531 N.ar    1  UNL1       -0.2954
      2 C         -15.6035   -1.0574   19.5129 C.ar    1  UNL1        0.2014
      3 N         -16.4563   -0.3201   20.5024 N.ar    1  UNL1       -0.2136
      4 C         -16.4147    1.1384   20.1542 C.ar    1  UNL1        0.0999
      5 C         -17.0632    2.3382   20.7784 C.ar    1  UNL1        0.0207
      6 C         -16.8333    3.7020   20.1979 C.ar    1  UNL1        0.0016
      7 C         -15.9549    3.8660   18.9932 C.ar    1  UNL1        0.0016
      8 C         -15.3063    2.6662   18.3689 C.ar    1  UNL1        0.0188
      9 C         -15.5362    1.3024   18.9494 C.ar    1  UNL1        0.0801
     10 N         -15.3618   -2.5376   19.4877 N.pl3   1  UNL1       -0.2794
     11 C         -16.1397   -3.4086   18.5463 C.3     1  UNL1        0.0949
     12 C         -15.8980   -4.8888   18.5211 C.3     1  UNL1        0.0373
     13 C         -14.8784   -5.4980   19.4371 C.3     1  UNL1        0.0574
     14 C         -14.1005   -4.6270   20.3785 C.3     1  UNL1        0.0373
     15 C         -14.3422   -3.1468   20.4037 C.3     1  UNL1        0.0949
     16 N         -14.6367   -6.9782   19.4119 N.3     1  UNL1       -0.2984
     17 H         -15.2674   -7.3913   20.0989 H       1  UNL1        0.1232
     18 C         -14.8217   -7.7467   18.1371 C.3     1  UNL1        0.0686
     19 C         -16.0683   -8.5527   17.9214 C.3     1  UNL1        0.0207
     20 C         -16.2355   -9.8743   18.6108 C.3     1  UNL1        0.0335
     21 C         -17.4820  -10.6803   18.3951 C.3     1  UNL1        0.1422
     22 O         -18.5614  -10.1646   17.4900 O.3     1  UNL1       -0.3538
     23 C         -18.3941   -8.8430   16.8006 C.3     1  UNL1        0.1422
     24 C         -17.1476   -8.0370   17.0163 C.3     1  UNL1        0.0335
     25 C         -14.1248   -0.3561   17.3995 C.3     1  UNL1        0.1354
     26 C         -10.7555   -3.2968   17.9002 C.ar    1  UNL1        0.1387
     27 C         -10.7844   -2.0422   18.7220 C.ar    1  UNL1        0.0366
     28 C         -11.9075   -1.0620   18.5551 C.ar    1  UNL1        0.0007
     29 C         -13.0017   -1.3363   17.5664 C.ar    1  UNL1        0.0007
     30 C         -12.9728   -2.5908   16.7446 C.ar    1  UNL1        0.0007
     31 C         -11.8497   -3.5710   16.9115 C.ar    1  UNL1        0.0366
     32 C          -9.7244   -5.3528   19.1084 C.3     1  UNL1        0.2525
     33 O          -9.6325   -4.2770   18.0671 O.3     1  UNL1       -0.4714
@<TRIPOS>BOND
     1    32    33    1
     2    33    26    1
     3    26    27   ar
     4    27    28   ar
     5    28    29   ar
     6    29    25    1
     7    25     1    1
     8     1     2   ar
     9     2    10    1
    10    10    11    1
    11    11    12    1
    12    12    13    1
    13    13    16    1
    14    16    18    1
    15    18    19    1
    16    19    20    1
    17    20    21    1
    18    21    22    1
    19    22    23    1
    20    23    24    1
    21    13    14    1
    22    14    15    1
    23     2     3   ar
    24     3     4   ar
    25     4     5   ar
    26     5     6   ar
    27     6     7   ar
    28     7     8   ar
    29     8     9   ar
    30    29    30   ar
    31    30    31   ar
    32    31    26   ar
    33     9     1   ar
    34    15    10    1
    35     9     4   ar
    36    24    19    1
    37    16    17    1
@<TRIPOS>MOLECULE
*****
 33 37 0 0 0
SMALL
GASTEIGER

@<TRIPOS>ATOM
      1 N         -12.7216   -4.2080   19.1250 N.ar    1  UNL1       -0.2954
      2 C         -13.9826   -4.8504   18.6278 C.ar    1  UNL1        0.2014
      3 N         -13.6356   -6.2165   18.1145 N.ar    1  UNL1       -0.2136
      4 C         -12.1602   -6.4183   18.2945 C.ar    1  UNL1        0.0999
      5 C         -11.2581   -7.5721   17.9703 C.ar    1  UNL1        0.0207
      6 C          -9.7912   -7.4845   18.2707 C.ar    1  UNL1        0.0016
      7 C          -9.2263   -6.2432   18.8953 C.ar    1  UNL1        0.0016
      8 C         -10.1283   -5.0895   19.2194 C.ar    1  UNL1        0.0188
      9 C         -11.5953   -5.1770   18.9190 C.ar    1  UNL1        0.0801
     10 N         -15.3504   -4.2349   18.6416 N.pl3   1  UNL1       -0.2794
     11 C         -16.1769   -4.2716   19.8927 C.3     1  UNL1        0.0949
     12 C         -17.5447   -3.6561   19.9065 C.3     1  UNL1        0.0373
     13 C         -18.0861   -3.0037   18.6690 C.3     1  UNL1        0.0574
     14 C         -17.2596   -2.9670   17.4178 C.3     1  UNL1        0.0373
     15 C         -15.8918   -3.5825   17.4041 C.3     1  UNL1        0.0949
     16 N         -19.4539   -2.3882   18.6827 N.3     1  UNL1       -0.2984
     17 H         -20.0626   -3.0346   19.1847 H       1  UNL1        0.1232
     18 C         -19.6610   -1.0345   19.2947 C.3     1  UNL1        0.0686
     19 C         -18.5642   -0.0125   19.2438 C.3     1  UNL1        0.0207
     20 C         -17.7551    0.2812   20.4723 C.3     1  UNL1        0.0335
     21 C         -16.6583    1.3031   20.4213 C.3     1  UNL1        0.1422
     22 O         -16.3706    2.0314   19.1419 O.3     1  UNL1       -0.3538
     23 C         -17.1797    1.7377   17.9135 C.3     1  UNL1        0.1422
     24 C         -18.2765    0.7157   17.9644 C.3     1  UNL1        0.0335
     25 C         -12.6070   -2.8373   19.7232 C.3     1  UNL1        0.1354
     26 C         -12.2568    0.7636   17.0473 C.ar    1  UNL1        0.1387
     27 C         -11.0732   -0.1342   17.2553 C.ar    1  UNL1        0.0366
     28 C         -11.1900   -1.3345   18.1473 C.ar    1  UNL1        0.0007
     29 C         -12.4903   -1.6370   18.8313 C.ar    1  UNL1        0.0007
     30 C         -13.6738   -0.7392   18.6232 C.ar    1  UNL1        0.0007
     31 C         -13.5570    0.4611   17.7312 C.ar    1  UNL1        0.0366
     32 C         -12.9049    3.2139   16.4758 C.3     1  UNL1        0.2525
     33 O         -12.1400    1.9639   16.1553 O.3     1  UNL1       -0.4714
@<TRIPOS>BOND
     1    32    33    1
     2    33    26    1
     3    26    27   ar
     4    27    28   ar
     5    28    29   ar
     6    29    25    1
     7    25     1    1
     8     1     2   ar
     9     2    10    1
    10    10    11    1
    11    11    12    1
    12    12    13    1
    13    13    16    1
    14    16    18    1
    15    18    19    1
    16    19    20    1
    17    20    21    1
    18    21    22    1
    19    22    23    1
    20    23    24    1
    21    13    14    1
    22    14    15    1
    23     2     3   ar
    24     3     4   ar
    25     4     5   ar
    26     5     6   ar
    27     6     7   ar
    28     7     8   ar
    29     8     9   ar
    30    29    30   ar
    31    30    31   ar
    32    31    26   ar
    33     9     1   ar
    34    15    10    1
    35     9     4   ar
    36    24    19    1
    37    16    17    1
@<TRIPOS>MOLECULE
*****
 33 37 0 0 0
SMALL
GASTEIGER

@<TRIPOS>ATOM
      1 N           6.9946   -2.7988   23.5548 N.ar    1  UNL1       -0.2954
      2 C           6.6847   -3.7005   22.3969 C.ar    1  UNL1        0.2014
      3 N           7.1029   -5.0923   22.7685 N.ar    1  UNL1       -0.2136
      4 C           7.6711   -5.0507   24.1560 C.ar    1  UNL1        0.0999
      5 C           8.2408   -6.1205   25.0398 C.ar    1  UNL1        0.0207
      6 C           8.7435   -5.7727   26.4095 C.ar    1  UNL1        0.0016
      7 C           8.6766   -4.3552   26.8955 C.ar    1  UNL1        0.0016
      8 C           8.1069   -3.2855   26.0118 C.ar    1  UNL1        0.0188
      9 C           7.6041   -3.6332   24.6421 C.ar    1  UNL1        0.0801
     10 N           6.0655   -3.2836   21.0958 N.pl3   1  UNL1       -0.2794
     11 C           4.6236   -3.5904   20.8191 C.3     1  UNL1        0.0949
     12 C           4.0044   -3.1735   19.5180 C.3     1  UNL1        0.0373
     13 C           4.8271   -2.4499   18.4936 C.3     1  UNL1        0.0574
     14 C           6.2691   -2.1432   18.7703 C.3     1  UNL1        0.0373
     15 C           6.8883   -2.5601   20.0714 C.3     1  UNL1        0.0949
     16 N           4.2079   -2.0331   17.1925 N.3     1  UNL1       -0.2984
     17 H           3.2774   -2.4496   17.1625 H       1  UNL1        0.1232
     18 C           4.0410   -0.5769   16.8738 C.3     1  UNL1        0.0686
     19 C           3.4918    0.3593   17.9091 C.3     1  UNL1        0.0207
     20 C           2.0529    0.2609   18.3214 C.3     1  UNL1        0.0335
     21 C           1.5036    1.1970   19.3567 C.3     1  UNL1        0.1422
     22 O           2.3933    2.2316   19.9798 O.3     1  UNL1       -0.3538
     23 C           3.8321    2.3300   19.5675 C.3     1  UNL1        0.1422
     24 C           4.3814    1.3939   18.5322 C.3     1  UNL1        0.0335
     25 C           6.7396   -1.3218   23.6150 C.3     1  UNL1        0.1354
     26 C           2.5296    0.2212   23.9958 C.ar    1  UNL1        0.1387
     27 C           3.2623   -0.2667   25.2104 C.ar    1  UNL1        0.0366
     28 C           4.6656   -0.7811   25.0834 C.ar    1  UNL1        0.0007
     29 C           5.3363   -0.8075   23.7419 C.ar    1  UNL1        0.0007
     30 C           4.6035   -0.3196   22.5274 C.ar    1  UNL1        0.0007
     31 C           3.2002    0.1947   22.6544 C.ar    1  UNL1        0.0366
     32 C           0.5449    1.6028   23.0458 C.3     1  UNL1        0.2525
     33 O           1.1262    0.7355   24.1228 O.3     1  UNL1       -0.4714
@<TRIPOS>BOND
     1    32    33    1
     2    33    26    1
     3    26    27   ar
     4    27    28   ar
     5    28    29   ar
     6    29    25    1
     7    25     1    1
     8     1     2   ar
     9     2    10    1
    10    10    11    1
    11    11    12    1
    12    12    13    1
    13    13    16    1
    14    16    18    1
    15    18    19    1
    16    19    20    1
    17    20    21    1
    18    21    22    1
    19    22    23    1
    20    23    24    1
    21    13    14    1
    22    14    15    1
    23     2     3   ar
    24     3     4   ar
    25     4     5   ar
    26     5     6   ar
    27     6     7   ar
    28     7     8   ar
    29     8     9   ar
    30    29    30   ar
    31    30    31   ar
    32    31    26   ar
    33     9     1   ar
    34    15    10    1
    35     9     4   ar
    36    24    19    1
    37    16    17    1
