@<TRIPOS>MOLECULE
*****
 24 27 0 0 0
SMALL
GASTEIGER

@<TRIPOS>ATOM
      1 O          -6.8622  -17.7855   20.7673 O.2     1  UNL1       -0.2526
      2 C          -7.4335  -18.9726   21.4846 C.2     1  UNL1        0.3039
      3 N          -6.6775  -20.2679   21.5115 N.am    1  UNL1       -0.2901
      4 N          -8.7609  -18.8644   22.1749 N.am    1  UNL1       -0.2641
      5 C          -9.5169  -17.5691   22.1479 C.3     1  UNL1        0.0969
      6 C         -10.8442  -17.4609   22.8382 C.3     1  UNL1        0.0460
      7 C         -11.4155  -18.6481   23.5555 C.3     1  UNL1        0.1103
      8 C         -10.6595  -19.9433   23.5824 C.3     1  UNL1        0.0460
      9 C          -9.3322  -20.0515   22.8921 C.3     1  UNL1        0.0969
     10 H          -7.0525  -21.0470   21.9823 H       1  UNL1        0.1509
     11 N         -12.7428  -18.5399   24.2457 N.ar    1  UNL1       -0.2319
     12 C         -14.0427  -18.1575   23.6023 C.ar    1  UNL1        0.1971
     13 N         -15.1066  -18.1764   24.6595 N.ar    1  UNL1       -0.2007
     14 C         -14.4642  -18.5704   25.9565 C.ar    1  UNL1        0.2210
     15 N         -13.0034  -18.7951   25.7007 N.ar    1  UNL1       -0.1452
     16 C          -5.3502  -20.3760   20.8212 C.3     1  UNL1        0.0774
     17 C          -4.3939  -21.1439   19.9576 C.3     1  UNL1        0.0259
     18 C          -4.0075  -19.7956   20.4893 C.3     1  UNL1        0.0420
     19 C          -3.0092  -18.6819   20.6046 C.ar    1  UNL1       -0.0208
     20 C          -1.9436  -18.5190   19.5616 C.ar    1  UNL1       -0.0042
     21 C          -0.9453  -17.4053   19.6770 C.ar    1  UNL1       -0.0003
     22 C          -1.0128  -16.4547   20.8353 C.ar    1  UNL1       -0.0000
     23 C          -2.0784  -16.6176   21.8783 C.ar    1  UNL1       -0.0003
     24 C          -3.0766  -17.7312   21.7629 C.ar    1  UNL1       -0.0042
@<TRIPOS>BOND
     1     1     2    2
     2     2     3   am
     3     3    16    1
     4    16    17    1
     5    17    18    1
     6    18    19    1
     7    19    20   ar
     8    20    21   ar
     9    21    22   ar
    10    22    23   ar
    11    23    24   ar
    12     2     4   am
    13     4     5    1
    14     5     6    1
    15     6     7    1
    16     7    11    1
    17    11    12   ar
    18    12    13   ar
    19    13    14   ar
    20    14    15   ar
    21     7     8    1
    22     8     9    1
    23    18    16    1
    24    24    19   ar
    25     9     4    1
    26    15    11   ar
    27     3    10    1
@<TRIPOS>MOLECULE
*****
 24 27 0 0 0
SMALL
GASTEIGER

@<TRIPOS>ATOM
      1 O          -7.6684  -19.5428   22.2623 O.2     1  UNL1       -0.2526
      2 C          -7.1044  -19.2006   20.9152 C.2     1  UNL1        0.3039
      3 N          -8.0065  -19.1372   19.7185 N.am    1  UNL1       -0.2901
      4 N          -5.6382  -18.9219   20.7647 N.am    1  UNL1       -0.2641
      5 C          -4.7361  -18.9853   21.9615 C.3     1  UNL1        0.0969
      6 C          -3.2699  -18.7066   21.8111 C.3     1  UNL1        0.0460
      7 C          -2.7058  -18.3644   20.4639 C.3     1  UNL1        0.1103
      8 C          -3.6080  -18.3010   19.2672 C.3     1  UNL1        0.0460
      9 C          -5.0741  -18.5797   19.4177 C.3     1  UNL1        0.0969
     10 H          -7.6363  -18.9126   18.8343 H       1  UNL1        0.1509
     11 N          -1.2397  -18.0856   20.3135 N.ar    1  UNL1       -0.2319
     12 C          -0.5799  -16.7443   20.4379 C.ar    1  UNL1        0.1971
     13 N           0.8917  -16.9289   20.2135 N.ar    1  UNL1       -0.2007
     14 C           1.1415  -18.3844   19.9506 C.ar    1  UNL1        0.2210
     15 N          -0.1758  -19.0993   20.0124 N.ar    1  UNL1       -0.1452
     16 C          -9.4727  -19.4160   19.8689 C.3     1  UNL1        0.0774
     17 C         -10.7590  -19.9438   19.3062 C.3     1  UNL1        0.0259
     18 C         -10.7258  -19.3709   20.6921 C.3     1  UNL1        0.0420
     19 C         -11.4301  -19.0140   21.9675 C.ar    1  UNL1       -0.0208
     20 C         -10.9749  -19.6086   23.2672 C.ar    1  UNL1       -0.0042
     21 C         -11.6792  -19.2517   24.5426 C.ar    1  UNL1       -0.0003
     22 C         -12.8386  -18.3003   24.5182 C.ar    1  UNL1       -0.0000
     23 C         -13.2938  -17.7057   23.2185 C.ar    1  UNL1       -0.0003
     24 C         -12.5895  -18.0626   21.9431 C.ar    1  UNL1       -0.0042
@<TRIPOS>BOND
     1     1     2    2
     2     2     3   am
     3     3    16    1
     4    16    17    1
     5    17    18    1
     6    18    19    1
     7    19    20   ar
     8    20    21   ar
     9    21    22   ar
    10    22    23   ar
    11    23    24   ar
    12     2     4   am
    13     4     5    1
    14     5     6    1
    15     6     7    1
    16     7    11    1
    17    11    12   ar
    18    12    13   ar
    19    13    14   ar
    20    14    15   ar
    21     7     8    1
    22     8     9    1
    23    18    16    1
    24    24    19   ar
    25     9     4    1
    26    15    11   ar
    27     3    10    1
@<TRIPOS>MOLECULE
*****
 24 27 0 0 0
SMALL
GASTEIGER

@<TRIPOS>ATOM
      1 O          -8.1360  -19.7137   20.7033 O.2     1  UNL1       -0.2526
      2 C          -7.1030  -19.5865   21.7836 C.2     1  UNL1        0.3039
      3 N          -7.4786  -19.8382   23.2138 N.am    1  UNL1       -0.2901
      4 N          -5.6945  -19.2077   21.4335 N.am    1  UNL1       -0.2641
      5 C          -5.3189  -18.9560   20.0032 C.3     1  UNL1        0.0969
      6 C          -3.9104  -18.5771   19.6531 C.3     1  UNL1        0.0460
      7 C          -2.8775  -18.4499   20.7334 C.3     1  UNL1        0.1103
      8 C          -3.2530  -18.7016   22.1636 C.3     1  UNL1        0.0460
      9 C          -4.6616  -19.0804   22.5137 C.3     1  UNL1        0.0969
     10 H          -6.8006  -19.7547   23.9228 H       1  UNL1        0.1509
     11 N          -1.4689  -18.0711   20.3834 N.ar    1  UNL1       -0.2319
     12 C          -0.8989  -16.6837   20.4004 C.ar    1  UNL1        0.1971
     13 N           0.5392  -16.7682   19.9824 N.ar    1  UNL1       -0.2007
     14 C           0.8580  -18.2078   19.7070 C.ar    1  UNL1        0.2210
     15 N          -0.3831  -19.0130   19.9548 N.ar    1  UNL1       -0.1452
     16 C          -8.8871  -20.2171   23.5638 C.3     1  UNL1        0.0774
     17 C          -9.8559  -21.1657   24.2052 C.3     1  UNL1        0.0259
     18 C         -10.3579  -19.9246   23.5288 C.3     1  UNL1        0.0420
     19 C         -11.4969  -19.0391   23.1179 C.ar    1  UNL1       -0.0208
     20 C         -12.5240  -18.6212   24.1280 C.ar    1  UNL1       -0.0042
     21 C         -13.6629  -17.7357   23.7172 C.ar    1  UNL1       -0.0003
     22 C         -13.7747  -17.2682   22.2963 C.ar    1  UNL1       -0.0000
     23 C         -12.7475  -17.6861   21.2862 C.ar    1  UNL1       -0.0003
     24 C         -11.6086  -18.5716   21.6970 C.ar    1  UNL1       -0.0042
@<TRIPOS>BOND
     1     1     2    2
     2     2     3   am
     3     3    16    1
     4    16    17    1
     5    17    18    1
     6    18    19    1
     7    19    20   ar
     8    20    21   ar
     9    21    22   ar
    10    22    23   ar
    11    23    24   ar
    12     2     4   am
    13     4     5    1
    14     5     6    1
    15     6     7    1
    16     7    11    1
    17    11    12   ar
    18    12    13   ar
    19    13    14   ar
    20    14    15   ar
    21     7     8    1
    22     8     9    1
    23    18    16    1
    24    24    19   ar
    25     9     4    1
    26    15    11   ar
    27     3    10    1
@<TRIPOS>MOLECULE
*****
 24 27 0 0 0
SMALL
GASTEIGER

@<TRIPOS>ATOM
      1 O         -14.5095   -0.0881   18.9248 O.2     1  UNL1       -0.2526
      2 C         -14.8914   -1.4509   19.4216 C.2     1  UNL1        0.3039
      3 N         -16.2116   -1.6581   20.1028 N.am    1  UNL1       -0.2901
      4 N         -13.9531   -2.6066   19.2373 N.am    1  UNL1       -0.2641
      5 C         -12.6328   -2.3994   18.5560 C.3     1  UNL1        0.0969
      6 C         -11.6944   -3.5550   18.3717 C.3     1  UNL1        0.0460
      7 C         -12.0764   -4.9179   18.8685 C.3     1  UNL1        0.1103
      8 C         -13.3966   -5.1250   19.5497 C.3     1  UNL1        0.0460
      9 C         -14.3349   -3.9694   19.7341 C.3     1  UNL1        0.0969
     10 H         -16.4623   -2.5526   20.4289 H       1  UNL1        0.1509
     11 N         -11.1380   -6.0735   18.6842 N.ar    1  UNL1       -0.2319
     12 C         -11.4234   -7.3262   17.9100 C.ar    1  UNL1        0.1971
     13 N         -10.2113   -8.2063   17.9890 N.ar    1  UNL1       -0.2007
     14 C          -9.1767   -7.4975   18.8120 C.ar    1  UNL1        0.2210
     15 N          -9.7495   -6.1794   19.2417 N.ar    1  UNL1       -0.1452
     16 C         -17.1500   -0.5025   20.2872 C.3     1  UNL1        0.0774
     17 C         -18.4907    0.1311   20.0611 C.3     1  UNL1        0.0259
     18 C         -17.4345    0.8656   20.8325 C.3     1  UNL1        0.0420
     19 C         -16.9890    2.0795   21.5929 C.ar    1  UNL1       -0.0208
     20 C         -16.2100    3.1561   20.8972 C.ar    1  UNL1       -0.0042
     21 C         -15.7646    4.3699   21.6575 C.ar    1  UNL1       -0.0003
     22 C         -16.0981    4.5071   23.1135 C.ar    1  UNL1       -0.0000
     23 C         -16.8772    3.4306   23.8092 C.ar    1  UNL1       -0.0003
     24 C         -17.3226    2.2167   23.0488 C.ar    1  UNL1       -0.0042
@<TRIPOS>BOND
     1     1     2    2
     2     2     3   am
     3     3    16    1
     4    16    17    1
     5    17    18    1
     6    18    19    1
     7    19    20   ar
     8    20    21   ar
     9    21    22   ar
    10    22    23   ar
    11    23    24   ar
    12     2     4   am
    13     4     5    1
    14     5     6    1
    15     6     7    1
    16     7    11    1
    17    11    12   ar
    18    12    13   ar
    19    13    14   ar
    20    14    15   ar
    21     7     8    1
    22     8     9    1
    23    18    16    1
    24    24    19   ar
    25     9     4    1
    26    15    11   ar
    27     3    10    1
@<TRIPOS>MOLECULE
*****
 24 27 0 0 0
SMALL
GASTEIGER

@<TRIPOS>ATOM
      1 O           6.6143   -4.5959   22.6576 O.2     1  UNL1       -0.2526
      2 C           6.2513   -3.5064   23.6228 C.2     1  UNL1        0.3039
      3 N           5.7741   -2.1796   23.1113 N.am    1  UNL1       -0.2901
      4 N           6.3656   -3.7439   25.0994 N.am    1  UNL1       -0.2641
      5 C           6.8429   -5.0709   25.6109 C.3     1  UNL1        0.0969
      6 C           6.9571   -5.3084   27.0876 C.3     1  UNL1        0.0460
      7 C           6.5942   -4.2190   28.0528 C.3     1  UNL1        0.1103
      8 C           6.1169   -2.8921   27.5413 C.3     1  UNL1        0.0460
      9 C           6.0026   -2.6546   26.0646 C.3     1  UNL1        0.0969
     10 H           5.5359   -1.4646   23.7447 H       1  UNL1        0.1509
     11 N           6.7084   -4.4565   29.5294 N.ar    1  UNL1       -0.2319
     12 C           7.0141   -5.7678   30.1905 C.ar    1  UNL1        0.1971
     13 N           7.0317   -5.5461   31.6739 N.ar    1  UNL1       -0.2007
     14 C           6.7369   -4.0978   31.9297 C.ar    1  UNL1        0.2210
     15 N           6.5371   -3.4244   30.6043 N.ar    1  UNL1       -0.1452
     16 C           5.6598   -1.9421   21.6346 C.3     1  UNL1        0.0774
     17 C           6.2371   -2.0444   20.2540 C.3     1  UNL1        0.0259
     18 C           4.8847   -1.4284   20.4577 C.3     1  UNL1        0.0420
     19 C           3.6562   -0.7762   19.8958 C.ar    1  UNL1       -0.0208
     20 C           2.3132   -1.0598   20.5006 C.ar    1  UNL1       -0.0042
     21 C           1.0849   -0.4076   19.9387 C.ar    1  UNL1       -0.0003
     22 C           1.1995    0.5281   18.7720 C.ar    1  UNL1       -0.0000
     23 C           2.5425    0.8117   18.1672 C.ar    1  UNL1       -0.0003
     24 C           3.7709    0.1595   18.7291 C.ar    1  UNL1       -0.0042
@<TRIPOS>BOND
     1     1     2    2
     2     2     3   am
     3     3    16    1
     4    16    17    1
     5    17    18    1
     6    18    19    1
     7    19    20   ar
     8    20    21   ar
     9    21    22   ar
    10    22    23   ar
    11    23    24   ar
    12     2     4   am
    13     4     5    1
    14     5     6    1
    15     6     7    1
    16     7    11    1
    17    11    12   ar
    18    12    13   ar
    19    13    14   ar
    20    14    15   ar
    21     7     8    1
    22     8     9    1
    23    18    16    1
    24    24    19   ar
    25     9     4    1
    26    15    11   ar
    27     3    10    1
@<TRIPOS>MOLECULE
*****
 24 27 0 0 0
SMALL
GASTEIGER

@<TRIPOS>ATOM
      1 O          -0.1625    3.8666   19.1915 O.2     1  UNL1       -0.2526
      2 C          -0.2363    2.5330   19.8741 C.2     1  UNL1        0.3039
      3 N          -1.3374    2.2513   20.8530 N.am    1  UNL1       -0.2901
      4 N           0.7911    1.4810   19.5778 N.am    1  UNL1       -0.2641
      5 C           1.8922    1.7627   18.5989 C.3     1  UNL1        0.0969
      6 C           2.9196    0.7107   18.3026 C.3     1  UNL1        0.0460
      7 C           2.8458   -0.6230   18.9853 C.3     1  UNL1        0.1103
      8 C           1.7448   -0.9047   19.9641 C.3     1  UNL1        0.0460
      9 C           0.7174    0.1473   20.2604 C.3     1  UNL1        0.0969
     10 H          -1.3858    1.3760   21.3010 H       1  UNL1        0.1509
     11 N           3.8732   -1.6750   18.6890 N.ar    1  UNL1       -0.2319
     12 C           5.1363   -1.4777   17.9044 C.ar    1  UNL1        0.1971
     13 N           5.8617   -2.7898   17.8557 N.ar    1  UNL1       -0.2007
     14 C           5.0468   -3.7981   18.6103 C.ar    1  UNL1        0.2210
     15 N           3.8179   -3.1091   19.1253 N.ar    1  UNL1       -0.1452
     16 C          -2.3648    3.3033   21.1493 C.3     1  UNL1        0.0774
     17 C          -3.2242    4.4447   20.6928 C.3     1  UNL1        0.0259
     18 C          -3.2847    3.9840   22.1190 C.3     1  UNL1        0.0420
     19 C          -3.8508    4.1110   23.5023 C.ar    1  UNL1       -0.0208
     20 C          -5.2826    4.5155   23.6925 C.ar    1  UNL1       -0.0042
     21 C          -5.8486    4.6424   25.0758 C.ar    1  UNL1       -0.0003
     22 C          -4.9828    4.3648   26.2688 C.ar    1  UNL1       -0.0000
     23 C          -3.5510    3.9603   26.0786 C.ar    1  UNL1       -0.0003
     24 C          -2.9850    3.8334   24.6953 C.ar    1  UNL1       -0.0042
@<TRIPOS>BOND
     1     1     2    2
     2     2     3   am
     3     3    16    1
     4    16    17    1
     5    17    18    1
     6    18    19    1
     7    19    20   ar
     8    20    21   ar
     9    21    22   ar
    10    22    23   ar
    11    23    24   ar
    12     2     4   am
    13     4     5    1
    14     5     6    1
    15     6     7    1
    16     7    11    1
    17    11    12   ar
    18    12    13   ar
    19    13    14   ar
    20    14    15   ar
    21     7     8    1
    22     8     9    1
    23    18    16    1
    24    24    19   ar
    25     9     4    1
    26    15    11   ar
    27     3    10    1
@<TRIPOS>MOLECULE
*****
 24 27 0 0 0
SMALL
GASTEIGER

@<TRIPOS>ATOM
      1 O           0.4675    2.4751   23.1114 O.2     1  UNL1       -0.2526
      2 C           0.2241    1.7542   21.8187 C.2     1  UNL1        0.3039
      3 N          -0.9180    2.1621   20.9360 N.am    1  UNL1       -0.2901
      4 N           1.1229    0.6255   21.4087 N.am    1  UNL1       -0.2641
      5 C           2.2651    0.2176   22.2915 C.3     1  UNL1        0.0969
      6 C           3.1639   -0.9111   21.8815 C.3     1  UNL1        0.0460
      7 C           2.9205   -1.6320   20.5887 C.3     1  UNL1        0.1103
      8 C           1.7784   -1.2242   19.7060 C.3     1  UNL1        0.0460
      9 C           0.8796   -0.0954   20.1160 C.3     1  UNL1        0.0969
     10 H          -1.0777    1.6890   20.0875 H       1  UNL1        0.1509
     11 N           3.8193   -2.7608   20.1787 N.ar    1  UNL1       -0.2319
     12 C           5.0904   -3.1687   20.8626 C.ar    1  UNL1        0.1971
     13 N           5.6615   -4.3398   20.1195 N.ar    1  UNL1       -0.2007
     14 C           4.7433   -4.6557   18.9762 C.ar    1  UNL1        0.2210
     15 N           3.6048   -3.6798   19.0128 N.ar    1  UNL1       -0.1452
     16 C          -1.8168    3.2909   21.3460 C.3     1  UNL1        0.0774
     17 C          -2.5214    4.5743   21.0202 C.3     1  UNL1        0.0259
     18 C          -2.6688    3.9624   22.3818 C.3     1  UNL1        0.0420
     19 C          -3.2458    3.9968   23.7660 C.ar    1  UNL1       -0.0208
     20 C          -2.3614    3.7569   24.9534 C.ar    1  UNL1       -0.0042
     21 C          -2.9384    3.7914   26.3375 C.ar    1  UNL1       -0.0003
     22 C          -4.4000    4.0657   26.5342 C.ar    1  UNL1       -0.0000
     23 C          -5.2844    4.3056   25.3467 C.ar    1  UNL1       -0.0003
     24 C          -4.7074    4.2712   23.9626 C.ar    1  UNL1       -0.0042
@<TRIPOS>BOND
     1     1     2    2
     2     2     3   am
     3     3    16    1
     4    16    17    1
     5    17    18    1
     6    18    19    1
     7    19    20   ar
     8    20    21   ar
     9    21    22   ar
    10    22    23   ar
    11    23    24   ar
    12     2     4   am
    13     4     5    1
    14     5     6    1
    15     6     7    1
    16     7    11    1
    17    11    12   ar
    18    12    13   ar
    19    13    14   ar
    20    14    15   ar
    21     7     8    1
    22     8     9    1
    23    18    16    1
    24    24    19   ar
    25     9     4    1
    26    15    11   ar
    27     3    10    1
@<TRIPOS>MOLECULE
*****
 24 27 0 0 0
SMALL
GASTEIGER

@<TRIPOS>ATOM
      1 O           4.9382   -4.3195   21.5158 O.2     1  UNL1       -0.2526
      2 C           5.5714   -3.0977   20.9189 C.2     1  UNL1        0.3039
      3 N           7.0653   -2.9929   20.8333 N.am    1  UNL1       -0.2901
      4 N           4.7107   -1.9808   20.4074 N.am    1  UNL1       -0.2641
      5 C           3.2168   -2.0856   20.4930 C.3     1  UNL1        0.0969
      6 C           2.3560   -0.9687   19.9816 C.3     1  UNL1        0.0460
      7 C           2.9893    0.2532   19.3846 C.3     1  UNL1        0.1103
      8 C           4.4831    0.3580   19.2991 C.3     1  UNL1        0.0460
      9 C           5.3438   -0.7590   19.8105 C.3     1  UNL1        0.0969
     10 H           7.4809   -2.1910   20.4415 H       1  UNL1        0.1509
     11 N           2.1285    1.3701   18.8732 N.ar    1  UNL1       -0.2319
     12 C           2.5577    2.7935   18.6735 C.ar    1  UNL1        0.1971
     13 N           1.3819    3.5629   18.1486 N.ar    1  UNL1       -0.2007
     14 C           0.2261    2.6150   18.0237 C.ar    1  UNL1        0.2210
     15 N           0.6875    1.2599   18.4716 N.ar    1  UNL1       -0.1452
     16 C           7.9260   -4.1099   21.3447 C.3     1  UNL1        0.0774
     17 C           9.0913   -5.0376   21.1675 C.3     1  UNL1        0.0259
     18 C           8.2515   -5.1168   22.4078 C.3     1  UNL1        0.0420
     19 C           7.9546   -5.7439   23.7377 C.ar    1  UNL1       -0.0208
     20 C           7.2742   -4.9441   24.8089 C.ar    1  UNL1       -0.0042
     21 C           6.9773   -5.5712   26.1387 C.ar    1  UNL1       -0.0003
     22 C           7.3607   -6.9981   26.3974 C.ar    1  UNL1       -0.0000
     23 C           8.0411   -7.7979   25.3263 C.ar    1  UNL1       -0.0003
     24 C           8.3380   -7.1708   23.9965 C.ar    1  UNL1       -0.0042
@<TRIPOS>BOND
     1     1     2    2
     2     2     3   am
     3     3    16    1
     4    16    17    1
     5    17    18    1
     6    18    19    1
     7    19    20   ar
     8    20    21   ar
     9    21    22   ar
    10    22    23   ar
    11    23    24   ar
    12     2     4   am
    13     4     5    1
    14     5     6    1
    15     6     7    1
    16     7    11    1
    17    11    12   ar
    18    12    13   ar
    19    13    14   ar
    20    14    15   ar
    21     7     8    1
    22     8     9    1
    23    18    16    1
    24    24    19   ar
    25     9     4    1
    26    15    11   ar
    27     3    10    1
@<TRIPOS>MOLECULE
*****
 24 27 0 0 0
SMALL
GASTEIGER

@<TRIPOS>ATOM
      1 O           5.2941   -1.1466   23.2893 O.2     1  UNL1       -0.2526
      2 C           5.8573   -2.5067   23.5774 C.2     1  UNL1        0.3039
      3 N           6.2223   -3.4223   22.4468 N.am    1  UNL1       -0.2901
      4 N           6.0555   -2.9511   24.9963 N.am    1  UNL1       -0.2641
      5 C           5.6905   -2.0355   26.1270 C.3     1  UNL1        0.0969
      6 C           5.8887   -2.4799   27.5459 C.3     1  UNL1        0.0460
      7 C           6.4519   -3.8400   27.8341 C.3     1  UNL1        0.1103
      8 C           6.8169   -4.7556   26.7034 C.3     1  UNL1        0.0460
      9 C           6.6187   -4.3112   25.2845 C.3     1  UNL1        0.0969
     10 H           6.5919   -4.3150   22.6359 H       1  UNL1        0.1509
     11 N           6.6501   -4.2845   29.2529 N.ar    1  UNL1       -0.2319
     12 C           6.9212   -5.6879   29.7076 C.ar    1  UNL1        0.1971
     13 N           7.0507   -5.6743   31.2019 N.ar    1  UNL1       -0.2007
     14 C           6.8595   -4.2624   31.6709 C.ar    1  UNL1        0.2210
     15 N           6.6119   -3.4034   30.4663 N.ar    1  UNL1       -0.1452
     16 C           6.0241   -2.9779   21.0279 C.3     1  UNL1        0.0774
     17 C           6.4885   -2.9381   19.6022 C.3     1  UNL1        0.0259
     18 C           5.2164   -2.2479   19.9961 C.3     1  UNL1        0.0420
     19 C           4.0155   -1.4279   19.6278 C.ar    1  UNL1       -0.0208
     20 C           4.0297   -0.5954   18.3802 C.ar    1  UNL1       -0.0042
     21 C           2.8289    0.2246   18.0119 C.ar    1  UNL1       -0.0003
     22 C           1.6138    0.2120   18.8914 C.ar    1  UNL1       -0.0000
     23 C           1.5995   -0.6205   20.1390 C.ar    1  UNL1       -0.0003
     24 C           2.8004   -1.4404   20.5073 C.ar    1  UNL1       -0.0042
@<TRIPOS>BOND
     1     1     2    2
     2     2     3   am
     3     3    16    1
     4    16    17    1
     5    17    18    1
     6    18    19    1
     7    19    20   ar
     8    20    21   ar
     9    21    22   ar
    10    22    23   ar
    11    23    24   ar
    12     2     4   am
    13     4     5    1
    14     5     6    1
    15     6     7    1
    16     7    11    1
    17    11    12   ar
    18    12    13   ar
    19    13    14   ar
    20    14    15   ar
    21     7     8    1
    22     8     9    1
    23    18    16    1
    24    24    19   ar
    25     9     4    1
    26    15    11   ar
    27     3    10    1
