@<TRIPOS>MOLECULE
*****
 32 34 0 0 0
SMALL
GASTEIGER

@<TRIPOS>ATOM
      1 C          -5.1288  -17.0116   23.2771 C.3     1  UNL1        0.1624
      2 O          -6.3677  -17.8521   23.3721 O.3     1  UNL1       -0.3320
      3 C          -7.5466  -16.9301   23.4724 C.3     1  UNL1        0.2371
      4 C          -7.0365  -15.5199   23.4395 C.3     1  UNL1        0.1895
      5 O          -7.8735  -14.2775   23.5141 O.3     1  UNL1       -0.3779
      6 C          -5.5422  -15.5703   23.3188 C.3     1  UNL1        0.1701
      7 O          -4.6227  -14.3871   23.2515 O.3     1  UNL1       -0.3794
      8 H          -7.2987  -13.4973   23.4722 H       1  UNL1        0.2106
      9 H          -3.7057  -14.6942   23.1758 H       1  UNL1        0.2105
     10 N          -8.9835  -17.3454   23.5858 N.ar    1  UNL1       -0.2694
     11 C          -9.5934  -18.1093   24.7237 C.ar    1  UNL1        0.1816
     12 N         -11.0496  -18.3057   24.4223 N.ar    1  UNL1       -0.2194
     13 C         -11.3398  -17.6633   23.0983 C.ar    1  UNL1        0.1482
     14 C         -12.6017  -17.5420   22.2966 C.ar    1  UNL1        0.1487
     15 N         -13.8786  -18.1355   22.8136 N.pl3   1  UNL1       -0.3413
     16 N         -12.5868  -16.8272   20.9779 N.ar    1  UNL1       -0.2006
     17 C         -11.3099  -16.2337   20.4609 C.ar    1  UNL1        0.2264
     18 CL        -11.2949  -15.5190   19.1423 Cl      1  UNL1       -0.0409
     19 N         -10.0479  -16.3550   21.2627 N.ar    1  UNL1       -0.1976
     20 C         -10.0629  -17.0698   22.5813 C.ar    1  UNL1        0.1698
     21 H         -13.8884  -18.6046   23.6791 H       1  UNL1        0.1438
     22 H         -14.7069  -18.0559   22.2874 H       1  UNL1        0.1438
     23 C          -3.7235  -17.5228   23.1610 C.3     1  UNL1        0.1050
     24 C          -2.0689  -16.2052   21.6521 C.3     1  UNL1        0.0900
     25 N          -2.9775  -17.3790   21.8675 N.3     1  UNL1       -0.2656
     26 C          -3.1404  -18.4091   20.7894 C.3     1  UNL1        0.0987
     27 C          -3.7035  -19.7593   21.1210 C.2     1  UNL1       -0.0120
     28 C          -5.0779  -20.1345   20.6520 C.2     1  UNL1       -0.0125
     29 C          -5.8894  -19.1596   19.8513 C.3     1  UNL1        0.0916
     30 N          -7.0329  -18.4308   20.4924 N.3     1  UNL1       -0.3175
     31 H          -7.7639  -19.0971   20.7415 H       1  UNL1        0.1192
     32 H          -7.4077  -17.7437   19.8382 H       1  UNL1        0.1192
@<TRIPOS>BOND
     1    24    25    1
     2    25    26    1
     3    26    27    1
     4    27    28    2
     5    28    29    1
     6    29    30    1
     7    25    23    1
     8     1    23    1
     9     1     2    1
    10     2     3    1
    11     3    10    1
    12    10    11   ar
    13    11    12   ar
    14    12    13   ar
    15    13    14   ar
    16    14    15    1
    17    14    16   ar
    18    16    17   ar
    19    17    18    1
    20    17    19   ar
    21    19    20   ar
    22     3     4    1
    23     4     5    1
    24     4     6    1
    25     6     7    1
    26     6     1    1
    27    20    10   ar
    28    20    13   ar
    29    30    31    1
    30    30    32    1
    31    15    21    1
    32    15    22    1
    33     5     8    1
    34     7     9    1
@<TRIPOS>MOLECULE
*****
 32 34 0 0 0
SMALL
GASTEIGER

@<TRIPOS>ATOM
      1 C         -10.0487  -17.9078   23.4649 C.3     1  UNL1        0.1624
      2 O          -8.6416  -18.4260   23.4233 O.3     1  UNL1       -0.3320
      3 C          -7.7205  -17.2537   23.2581 C.3     1  UNL1        0.2371
      4 C          -8.5583  -16.0109   23.1976 C.3     1  UNL1        0.1895
      5 O          -8.0471  -14.6099   23.0375 O.3     1  UNL1       -0.3779
      6 C          -9.9971  -16.4152   23.3254 C.3     1  UNL1        0.1701
      7 O         -11.1773  -15.4894   23.3155 O.3     1  UNL1       -0.3794
      8 H          -8.7947  -13.9920   23.0283 H       1  UNL1        0.2106
      9 H         -11.9932  -16.0046   23.4141 H       1  UNL1        0.2105
     10 N          -6.2244  -17.3136   23.1690 N.ar    1  UNL1       -0.2694
     11 C          -5.2623  -16.3964   23.8642 C.ar    1  UNL1        0.1816
     12 N          -3.8710  -16.8172   23.4939 N.ar    1  UNL1       -0.2194
     13 C          -3.9731  -17.9944   22.5699 C.ar    1  UNL1        0.1482
     14 C          -2.9297  -18.8266   21.8854 C.ar    1  UNL1        0.1487
     15 N          -1.4752  -18.5198   22.0862 N.pl3   1  UNL1       -0.3413
     16 N          -3.3406  -19.9656   21.0000 N.ar    1  UNL1       -0.2006
     17 C          -4.7951  -20.2724   20.7992 C.ar    1  UNL1        0.2264
     18 CL         -5.2061  -21.4113   19.9139 Cl      1  UNL1       -0.0409
     19 N          -5.8386  -19.4401   21.4838 N.ar    1  UNL1       -0.1976
     20 C          -5.4276  -18.3012   22.3691 C.ar    1  UNL1        0.1698
     21 H          -1.2054  -17.7722   22.6672 H       1  UNL1        0.1438
     22 H          -0.7903  -19.0660   21.6369 H       1  UNL1        0.1438
     23 C         -11.2893  -18.7366   23.6189 C.3     1  UNL1        0.1050
     24 C         -13.7240  -17.9313   24.0354 C.3     1  UNL1        0.0900
     25 N         -12.5990  -18.2318   23.0899 N.3     1  UNL1       -0.2656
     26 C         -12.7837  -18.0277   21.6154 C.3     1  UNL1        0.0987
     27 C         -11.7201  -18.4757   20.6573 C.2     1  UNL1       -0.0120
     28 C         -11.0294  -17.4731   19.7811 C.2     1  UNL1       -0.0125
     29 C         -11.4023  -16.0225   19.8629 C.3     1  UNL1        0.0916
     30 N         -12.4771  -15.4729   18.9726 N.3     1  UNL1       -0.3175
     31 H         -12.1686  -15.5152   18.0012 H       1  UNL1        0.1192
     32 H         -12.6667  -14.5036   19.2271 H       1  UNL1        0.1192
@<TRIPOS>BOND
     1    24    25    1
     2    25    26    1
     3    26    27    1
     4    27    28    2
     5    28    29    1
     6    29    30    1
     7    25    23    1
     8     1    23    1
     9     1     2    1
    10     2     3    1
    11     3    10    1
    12    10    11   ar
    13    11    12   ar
    14    12    13   ar
    15    13    14   ar
    16    14    15    1
    17    14    16   ar
    18    16    17   ar
    19    17    18    1
    20    17    19   ar
    21    19    20   ar
    22     3     4    1
    23     4     5    1
    24     4     6    1
    25     6     7    1
    26     6     1    1
    27    20    10   ar
    28    20    13   ar
    29    30    31    1
    30    30    32    1
    31    15    21    1
    32    15    22    1
    33     5     8    1
    34     7     9    1
@<TRIPOS>MOLECULE
*****
 32 34 0 0 0
SMALL
GASTEIGER

@<TRIPOS>ATOM
      1 C          -5.6367  -15.7881   23.6505 C.3     1  UNL1        0.1624
      2 O          -6.7912  -16.5403   23.0575 O.3     1  UNL1       -0.3320
      3 C          -7.9612  -16.4006   23.9857 C.3     1  UNL1        0.2371
      4 C          -7.5299  -15.5622   25.1523 C.3     1  UNL1        0.1895
      5 O          -8.3850  -15.1710   26.3209 O.3     1  UNL1       -0.3779
      6 C          -6.0933  -15.1837   24.9452 C.3     1  UNL1        0.1701
      7 O          -5.2596  -14.3475   25.8702 O.3     1  UNL1       -0.3794
      8 H          -7.8655  -14.6281   26.9343 H       1  UNL1        0.2106
      9 H          -4.3666  -14.2524   25.5037 H       1  UNL1        0.2105
     10 N          -9.3234  -16.9950   23.7829 N.ar    1  UNL1       -0.2694
     11 C         -10.0412  -17.9011   24.7388 C.ar    1  UNL1        0.1816
     12 N         -11.3683  -18.2538   24.1352 N.ar    1  UNL1       -0.2194
     13 C         -11.4707  -17.5656   22.8062 C.ar    1  UNL1        0.1482
     14 C         -12.5515  -17.5469   21.7663 C.ar    1  UNL1        0.1487
     15 N         -13.8154  -18.3249   21.9840 N.pl3   1  UNL1       -0.3413
     16 N         -12.3684  -16.7503   20.5085 N.ar    1  UNL1       -0.2006
     17 C         -11.1046  -15.9723   20.2908 C.ar    1  UNL1        0.2264
     18 CL        -10.9215  -15.1757   19.0331 Cl      1  UNL1       -0.0409
     19 N         -10.0237  -15.9911   21.3308 N.ar    1  UNL1       -0.1976
     20 C         -10.2068  -16.7877   22.5885 C.ar    1  UNL1        0.1698
     21 H         -13.9355  -18.8478   22.8095 H       1  UNL1        0.1438
     22 H         -14.5247  -18.3126   21.3015 H       1  UNL1        0.1438
     23 C          -4.2664  -15.6625   23.0536 C.3     1  UNL1        0.1050
     24 C          -3.8967  -18.2255   23.2646 C.3     1  UNL1        0.0900
     25 N          -3.4810  -16.8943   22.7127 N.3     1  UNL1       -0.2656
     26 C          -2.2799  -16.7945   21.8197 C.3     1  UNL1        0.0987
     27 C          -1.6144  -18.0408   21.3157 C.2     1  UNL1       -0.0120
     28 C          -2.0297  -18.6339   20.0021 C.2     1  UNL1       -0.0125
     29 C          -3.1103  -17.9809   19.1924 C.3     1  UNL1        0.0916
     30 N          -4.5416  -18.3852   19.3869 N.3     1  UNL1       -0.3175
     31 H          -4.6654  -19.3525   19.0880 H       1  UNL1        0.1192
     32 H          -5.1449  -17.7780   18.8321 H       1  UNL1        0.1192
@<TRIPOS>BOND
     1    24    25    1
     2    25    26    1
     3    26    27    1
     4    27    28    2
     5    28    29    1
     6    29    30    1
     7    25    23    1
     8     1    23    1
     9     1     2    1
    10     2     3    1
    11     3    10    1
    12    10    11   ar
    13    11    12   ar
    14    12    13   ar
    15    13    14   ar
    16    14    15    1
    17    14    16   ar
    18    16    17   ar
    19    17    18    1
    20    17    19   ar
    21    19    20   ar
    22     3     4    1
    23     4     5    1
    24     4     6    1
    25     6     7    1
    26     6     1    1
    27    20    10   ar
    28    20    13   ar
    29    30    31    1
    30    30    32    1
    31    15    21    1
    32    15    22    1
    33     5     8    1
    34     7     9    1
@<TRIPOS>MOLECULE
*****
 32 34 0 0 0
SMALL
GASTEIGER

@<TRIPOS>ATOM
      1 C          -5.7778  -19.6080   21.5999 C.3     1  UNL1        0.1624
      2 O          -7.1975  -19.9931   21.8938 O.3     1  UNL1       -0.3320
      3 C          -7.8179  -18.8936   22.7038 C.3     1  UNL1        0.2371
      4 C          -6.7817  -17.8289   22.9106 C.3     1  UNL1        0.1895
      5 O          -6.9728  -16.5477   23.6668 O.3     1  UNL1       -0.3779
      6 C          -5.5209  -18.2704   22.2284 C.3     1  UNL1        0.1701
      7 O          -4.2298  -17.5082   22.1826 O.3     1  UNL1       -0.3794
      8 H          -6.1484  -16.0367   23.6507 H       1  UNL1        0.2106
      9 H          -3.5733  -18.0142   21.6789 H       1  UNL1        0.2105
     10 N          -9.2271  -18.8640   23.2170 N.ar    1  UNL1       -0.2694
     11 C          -9.7280  -19.5419   24.4578 C.ar    1  UNL1        0.1816
     12 N         -11.1932  -19.2481   24.5870 N.ar    1  UNL1       -0.2194
     13 C         -11.5979  -18.3887   23.4262 C.ar    1  UNL1        0.1482
     14 C         -12.9159  -17.7916   23.0307 C.ar    1  UNL1        0.1487
     15 N         -14.1310  -18.0290   23.8775 N.pl3   1  UNL1       -0.3413
     16 N         -13.0187  -16.9571   21.7885 N.ar    1  UNL1       -0.2006
     17 C         -11.8035  -16.7197   20.9417 C.ar    1  UNL1        0.2264
     18 CL        -11.9063  -15.8853   19.6995 Cl      1  UNL1       -0.0409
     19 N         -10.4855  -17.3168   21.3372 N.ar    1  UNL1       -0.1976
     20 C         -10.3827  -18.1513   22.5794 C.ar    1  UNL1        0.1698
     21 H         -14.0636  -18.5767   24.6928 H       1  UNL1        0.1438
     22 H         -14.9961  -17.6371   23.6179 H       1  UNL1        0.1438
     23 C          -4.7888  -20.4181   20.8155 C.3     1  UNL1        0.1050
     24 C          -2.3606  -19.9947   21.6368 C.3     1  UNL1        0.0900
     25 N          -3.4088  -19.8840   20.5696 N.3     1  UNL1       -0.2656
     26 C          -3.0771  -19.2393   19.2565 C.3     1  UNL1        0.0987
     27 C          -2.8430  -17.7594   19.1856 C.2     1  UNL1       -0.0120
     28 C          -1.4540  -17.2120   19.3303 C.2     1  UNL1       -0.0125
     29 C          -0.2990  -18.1444   19.5459 C.3     1  UNL1        0.0916
     30 N           0.6946  -17.8684   20.6352 N.3     1  UNL1       -0.3175
     31 H           1.2048  -17.0115   20.4209 H       1  UNL1        0.1192
     32 H           1.3504  -18.6467   20.7025 H       1  UNL1        0.1192
@<TRIPOS>BOND
     1    24    25    1
     2    25    26    1
     3    26    27    1
     4    27    28    2
     5    28    29    1
     6    29    30    1
     7    25    23    1
     8     1    23    1
     9     1     2    1
    10     2     3    1
    11     3    10    1
    12    10    11   ar
    13    11    12   ar
    14    12    13   ar
    15    13    14   ar
    16    14    15    1
    17    14    16   ar
    18    16    17   ar
    19    17    18    1
    20    17    19   ar
    21    19    20   ar
    22     3     4    1
    23     4     5    1
    24     4     6    1
    25     6     7    1
    26     6     1    1
    27    20    10   ar
    28    20    13   ar
    29    30    31    1
    30    30    32    1
    31    15    21    1
    32    15    22    1
    33     5     8    1
    34     7     9    1
@<TRIPOS>MOLECULE
*****
 32 34 0 0 0
SMALL
GASTEIGER

@<TRIPOS>ATOM
      1 C          -5.0144  -18.9644   21.8534 C.3     1  UNL1        0.1624
      2 O          -6.1955  -18.7309   22.7481 O.3     1  UNL1       -0.3320
      3 C          -7.4288  -19.1579   22.0087 C.3     1  UNL1        0.2371
      4 C          -7.0099  -19.6553   20.6570 C.3     1  UNL1        0.1895
      5 O          -7.9228  -20.1801   19.5888 O.3     1  UNL1       -0.3779
      6 C          -5.5178  -19.5357   20.5610 C.3     1  UNL1        0.1701
      7 O          -4.6766  -19.9200   19.3800 O.3     1  UNL1       -0.3794
      8 H          -7.3995  -20.4356   18.8131 H       1  UNL1        0.2106
      9 H          -3.7434  -19.7425   19.5762 H       1  UNL1        0.2105
     10 N          -8.8342  -19.0980   22.5295 N.ar    1  UNL1       -0.2694
     11 C          -9.3772  -19.8739   23.6927 C.ar    1  UNL1        0.1816
     12 N         -10.8219  -19.5071   23.8607 N.ar    1  UNL1       -0.2194
     13 C         -11.1718  -18.5045   22.8013 C.ar    1  UNL1        0.1482
     14 C         -12.4503  -17.7891   22.4794 C.ar    1  UNL1        0.1487
     15 N         -13.6788  -18.0420   23.3021 N.pl3   1  UNL1       -0.3413
     16 N         -12.5003  -16.8208   21.3349 N.ar    1  UNL1       -0.2006
     17 C         -11.2718  -16.5680   20.5122 C.ar    1  UNL1        0.2264
     18 CL        -11.3218  -15.5997   19.3676 Cl      1  UNL1       -0.0409
     19 N          -9.9933  -17.2834   20.8340 N.ar    1  UNL1       -0.1976
     20 C          -9.9433  -18.2516   21.9786 C.ar    1  UNL1        0.1698
     21 H         -13.6460  -18.6775   24.0533 H       1  UNL1        0.1438
     22 H         -14.5179  -17.5724   23.0909 H       1  UNL1        0.1438
     23 C          -3.5816  -18.6771   22.1916 C.3     1  UNL1        0.1050
     24 C          -3.7761  -16.2487   23.0945 C.3     1  UNL1        0.0900
     25 N          -3.0887  -17.2607   22.2268 N.3     1  UNL1       -0.2656
     26 C          -1.9084  -16.8566   21.3941 C.3     1  UNL1        0.0987
     27 C          -1.0664  -17.9043   20.7281 C.2     1  UNL1       -0.0120
     28 C          -1.1840  -18.1333   19.2504 C.2     1  UNL1       -0.0125
     29 C          -2.1435  -17.3148   18.4385 C.3     1  UNL1        0.0916
     30 N          -3.5992  -17.2888   18.7993 N.3     1  UNL1       -0.3175
     31 H          -4.0016  -18.2151   18.6561 H       1  UNL1        0.1192
     32 H          -4.0838  -16.6127   18.2091 H       1  UNL1        0.1192
@<TRIPOS>BOND
     1    24    25    1
     2    25    26    1
     3    26    27    1
     4    27    28    2
     5    28    29    1
     6    29    30    1
     7    25    23    1
     8     1    23    1
     9     1     2    1
    10     2     3    1
    11     3    10    1
    12    10    11   ar
    13    11    12   ar
    14    12    13   ar
    15    13    14   ar
    16    14    15    1
    17    14    16   ar
    18    16    17   ar
    19    17    18    1
    20    17    19   ar
    21    19    20   ar
    22     3     4    1
    23     4     5    1
    24     4     6    1
    25     6     7    1
    26     6     1    1
    27    20    10   ar
    28    20    13   ar
    29    30    31    1
    30    30    32    1
    31    15    21    1
    32    15    22    1
    33     5     8    1
    34     7     9    1
@<TRIPOS>MOLECULE
*****
 32 34 0 0 0
SMALL
GASTEIGER

@<TRIPOS>ATOM
      1 C          -4.1977  -18.7176   19.8061 C.3     1  UNL1        0.1624
      2 O          -5.5955  -18.2714   19.4943 O.3     1  UNL1       -0.3320
      3 C          -6.5405  -19.1044   20.3086 C.3     1  UNL1        0.2371
      4 C          -5.7268  -20.0656   21.1235 C.3     1  UNL1        0.1895
      5 O          -6.2663  -21.0865   22.0809 O.3     1  UNL1       -0.3779
      6 C          -4.2789  -19.8265   20.8130 C.3     1  UNL1        0.1701
      7 O          -3.1163  -20.5664   21.4053 O.3     1  UNL1       -0.3794
      8 H          -5.5304  -21.5786   22.4774 H       1  UNL1        0.2106
      9 H          -2.2896  -20.2180   21.0366 H       1  UNL1        0.2105
     10 N          -8.0366  -18.9955   20.3079 N.ar    1  UNL1       -0.2694
     11 C          -8.9671  -19.6411   19.3245 C.ar    1  UNL1        0.1816
     12 N         -10.3704  -19.2665   19.6994 N.ar    1  UNL1       -0.2194
     13 C         -10.3070  -18.3893   20.9146 C.ar    1  UNL1        0.1482
     14 C         -11.3764  -17.7215   21.7273 C.ar    1  UNL1        0.1487
     15 N         -12.8188  -17.8889   21.3512 N.pl3   1  UNL1       -0.3413
     16 N         -11.0033  -16.8862   22.9161 N.ar    1  UNL1       -0.2006
     17 C          -9.5609  -16.7187   23.2921 C.ar    1  UNL1        0.2264
     18 CL         -9.1879  -15.8834   24.4808 Cl      1  UNL1       -0.0409
     19 N          -8.4916  -17.3866   22.4794 N.ar    1  UNL1       -0.1976
     20 C          -8.8646  -18.2219   21.2907 C.ar    1  UNL1        0.1698
     21 H         -13.0636  -18.4372   20.5710 H       1  UNL1        0.1438
     22 H         -13.5206  -17.4506   21.8846 H       1  UNL1        0.1438
     23 C          -2.9397  -18.1540   19.2148 C.3     1  UNL1        0.1050
     24 C          -0.4212  -17.7963   19.7427 C.3     1  UNL1        0.0900
     25 N          -1.8639  -17.6178   20.1121 N.3     1  UNL1       -0.2656
     26 C          -2.2309  -16.9032   21.3788 C.3     1  UNL1        0.0987
     27 C          -2.1604  -17.6224   22.6932 C.2     1  UNL1       -0.0120
     28 C          -3.3657  -17.6760   23.5844 C.2     1  UNL1       -0.0125
     29 C          -4.6416  -17.0104   23.1614 C.3     1  UNL1        0.0916
     30 N          -4.8958  -15.5772   23.5236 N.3     1  UNL1       -0.3175
     31 H          -4.9873  -15.4935   24.5361 H       1  UNL1        0.1192
     32 H          -5.7568  -15.2612   23.0772 H       1  UNL1        0.1192
@<TRIPOS>BOND
     1    24    25    1
     2    25    26    1
     3    26    27    1
     4    27    28    2
     5    28    29    1
     6    29    30    1
     7    25    23    1
     8     1    23    1
     9     1     2    1
    10     2     3    1
    11     3    10    1
    12    10    11   ar
    13    11    12   ar
    14    12    13   ar
    15    13    14   ar
    16    14    15    1
    17    14    16   ar
    18    16    17   ar
    19    17    18    1
    20    17    19   ar
    21    19    20   ar
    22     3     4    1
    23     4     5    1
    24     4     6    1
    25     6     7    1
    26     6     1    1
    27    20    10   ar
    28    20    13   ar
    29    30    31    1
    30    30    32    1
    31    15    21    1
    32    15    22    1
    33     5     8    1
    34     7     9    1
@<TRIPOS>MOLECULE
*****
 32 34 0 0 0
SMALL
GASTEIGER

@<TRIPOS>ATOM
      1 C         -16.5429   -8.8571   19.3789 C.3     1  UNL1        0.1624
      2 O         -16.1379   -7.4342   19.6271 O.3     1  UNL1       -0.3320
      3 C         -14.8215   -7.2016   18.9467 C.3     1  UNL1        0.2371
      4 C         -14.4129   -8.4806   18.2780 C.3     1  UNL1        0.1895
      5 O         -13.1604   -8.6984   17.4820 O.3     1  UNL1       -0.3779
      6 C         -15.4767   -9.5038   18.5451 C.3     1  UNL1        0.1701
      7 O         -15.4748  -10.9242   18.0632 O.3     1  UNL1       -0.3794
      8 H         -13.1373   -9.6128   17.1591 H       1  UNL1        0.2106
      9 H         -16.2770  -11.3723   18.3741 H       1  UNL1        0.2105
     10 N         -14.0493   -5.9157   18.9367 N.ar    1  UNL1       -0.2694
     11 C         -14.6356   -4.5354   18.9063 C.ar    1  UNL1        0.1816
     12 N         -13.5038   -3.5510   18.9061 N.ar    1  UNL1       -0.2194
     13 C         -12.2180   -4.3229   18.9364 C.ar    1  UNL1        0.1482
     14 C         -10.7838   -3.8838   18.9493 C.ar    1  UNL1        0.1487
     15 N         -10.4467   -2.4223   18.9304 N.pl3   1  UNL1       -0.3413
     16 N          -9.6866   -4.9063   18.9810 N.ar    1  UNL1       -0.2006
     17 C         -10.0238   -6.3678   18.9999 C.ar    1  UNL1        0.2264
     18 CL         -8.9267   -7.3902   19.0316 Cl      1  UNL1       -0.0409
     19 N         -11.4581   -6.8068   18.9870 N.ar    1  UNL1       -0.1976
     20 C         -12.5551   -5.7844   18.9553 C.ar    1  UNL1        0.1698
     21 H         -11.1667   -1.7513   18.9096 H       1  UNL1        0.1438
     22 H          -9.5053   -2.1342   18.9388 H       1  UNL1        0.1438
     23 C         -17.7942   -9.5173   19.8770 C.3     1  UNL1        0.1050
     24 C         -19.7202   -7.8529   20.3971 C.3     1  UNL1        0.0900
     25 N         -19.1349   -8.9352   19.5393 N.3     1  UNL1       -0.2656
     26 C         -19.8900   -9.4356   18.3438 C.3     1  UNL1        0.0987
     27 C         -19.1593   -9.7460   17.0712 C.2     1  UNL1       -0.0120
     28 C         -18.7251   -8.6325   16.1648 C.2     1  UNL1       -0.0125
     29 C         -19.0217   -7.2085   16.5310 C.3     1  UNL1        0.0916
     30 N         -18.0911   -6.4574   17.4366 N.3     1  UNL1       -0.3175
     31 H         -18.1065   -6.8791   18.3652 H       1  UNL1        0.1192
     32 H         -18.3902   -5.4843   17.5000 H       1  UNL1        0.1192
@<TRIPOS>BOND
     1    24    25    1
     2    25    26    1
     3    26    27    1
     4    27    28    2
     5    28    29    1
     6    29    30    1
     7    25    23    1
     8     1    23    1
     9     1     2    1
    10     2     3    1
    11     3    10    1
    12    10    11   ar
    13    11    12   ar
    14    12    13   ar
    15    13    14   ar
    16    14    15    1
    17    14    16   ar
    18    16    17   ar
    19    17    18    1
    20    17    19   ar
    21    19    20   ar
    22     3     4    1
    23     4     5    1
    24     4     6    1
    25     6     7    1
    26     6     1    1
    27    20    10   ar
    28    20    13   ar
    29    30    31    1
    30    30    32    1
    31    15    21    1
    32    15    22    1
    33     5     8    1
    34     7     9    1
@<TRIPOS>MOLECULE
*****
 32 34 0 0 0
SMALL
GASTEIGER

@<TRIPOS>ATOM
      1 C          -5.2746  -18.7094   20.1817 C.3     1  UNL1        0.1624
      2 O          -6.6272  -18.2132   20.5993 O.3     1  UNL1       -0.3320
      3 C          -7.2400  -19.2423   21.5023 C.3     1  UNL1        0.2371
      4 C          -6.2662  -20.3746   21.6427 C.3     1  UNL1        0.1895
      5 O          -6.4711  -21.6179   22.4564 O.3     1  UNL1       -0.3779
      6 C          -5.0516  -20.0453   20.8265 C.3     1  UNL1        0.1701
      7 O          -3.8286  -20.9015   20.6808 O.3     1  UNL1       -0.3794
      8 H          -5.6907  -22.1885   22.3771 H       1  UNL1        0.2106
      9 H          -3.1913  -20.4585   20.0988 H       1  UNL1        0.2105
     10 N          -8.5896  -19.1546   22.1509 N.ar    1  UNL1       -0.2694
     11 C          -9.0396  -19.9237   23.3576 C.ar    1  UNL1        0.1816
     12 N         -10.4543  -19.5268   23.6592 N.ar    1  UNL1       -0.2194
     13 C         -10.8787  -18.5123   22.6390 C.ar    1  UNL1        0.1482
     14 C         -12.1656  -17.7684   22.4384 C.ar    1  UNL1        0.1487
     15 N         -13.3181  -17.9984   23.3705 N.pl3   1  UNL1       -0.3413
     16 N         -12.3001  -16.7943   21.3056 N.ar    1  UNL1       -0.2006
     17 C         -11.1477  -16.5643   20.3734 C.ar    1  UNL1        0.2264
     18 CL        -11.2821  -15.5903   19.2407 Cl      1  UNL1       -0.0409
     19 N          -9.8607  -17.3083   20.5741 N.ar    1  UNL1       -0.1976
     20 C          -9.7262  -18.2823   21.7068 C.ar    1  UNL1        0.1698
     21 H         -13.2298  -18.6377   24.1140 H       1  UNL1        0.1438
     22 H         -14.1627  -17.5101   23.2389 H       1  UNL1        0.1438
     23 C          -4.3138  -17.9953   19.2779 C.3     1  UNL1        0.1050
     24 C          -1.7718  -18.2094   18.7860 C.3     1  UNL1        0.0900
     25 N          -2.8879  -17.8021   19.7016 N.3     1  UNL1       -0.2656
     26 C          -2.5782  -17.2017   21.0408 C.3     1  UNL1        0.0987
     27 C          -2.5390  -18.0720   22.2619 C.2     1  UNL1       -0.0120
     28 C          -3.4180  -17.7570   23.4358 C.2     1  UNL1       -0.0125
     29 C          -4.3362  -16.5719   23.3888 C.3     1  UNL1        0.0916
     30 N          -5.8153  -16.7742   23.2435 N.3     1  UNL1       -0.3175
     31 H          -6.0147  -17.1808   22.3295 H       1  UNL1        0.1192
     32 H          -6.2912  -15.8759   23.3271 H       1  UNL1        0.1192
@<TRIPOS>BOND
     1    24    25    1
     2    25    26    1
     3    26    27    1
     4    27    28    2
     5    28    29    1
     6    29    30    1
     7    25    23    1
     8     1    23    1
     9     1     2    1
    10     2     3    1
    11     3    10    1
    12    10    11   ar
    13    11    12   ar
    14    12    13   ar
    15    13    14   ar
    16    14    15    1
    17    14    16   ar
    18    16    17   ar
    19    17    18    1
    20    17    19   ar
    21    19    20   ar
    22     3     4    1
    23     4     5    1
    24     4     6    1
    25     6     7    1
    26     6     1    1
    27    20    10   ar
    28    20    13   ar
    29    30    31    1
    30    30    32    1
    31    15    21    1
    32    15    22    1
    33     5     8    1
    34     7     9    1
@<TRIPOS>MOLECULE
*****
 32 34 0 0 0
SMALL
GASTEIGER

@<TRIPOS>ATOM
      1 C           6.5556   -2.8087   31.2332 C.3     1  UNL1        0.1624
      2 O           5.9299   -1.4464   31.1792 O.3     1  UNL1       -0.3320
      3 C           4.8236   -1.4040   32.1914 C.3     1  UNL1        0.2371
      4 C           4.7656   -2.7400   32.8709 C.3     1  UNL1        0.1895
      5 O           3.8058   -3.1380   33.9526 O.3     1  UNL1       -0.3779
      6 C           5.8360   -3.6081   32.2788 C.3     1  UNL1        0.1701
      7 O           6.1344   -5.0266   32.6644 O.3     1  UNL1       -0.3794
      8 H           3.9804   -4.0543   34.2187 H       1  UNL1        0.2106
      9 H           6.8732   -5.3582   32.1304 H       1  UNL1        0.2105
     10 N           3.9319   -0.2315   32.4743 N.ar    1  UNL1       -0.2694
     11 C           4.0689    0.7234   33.6230 C.ar    1  UNL1        0.1816
     12 N           2.9683    1.7370   33.5169 N.ar    1  UNL1       -0.2194
     13 C           2.1512    1.4086   32.3026 C.ar    1  UNL1        0.1482
     14 C           0.9418    2.0603   31.7003 C.ar    1  UNL1        0.1487
     15 N           0.3462    3.2769   32.3446 N.pl3   1  UNL1       -0.3413
     16 N           0.3279    1.4953   30.4537 N.ar    1  UNL1       -0.2006
     17 C           0.9235    0.2787   29.8093 C.ar    1  UNL1        0.2264
     18 CL          0.3097   -0.2863   28.5628 Cl      1  UNL1       -0.0409
     19 N           2.1330   -0.3730   30.4117 N.ar    1  UNL1       -0.1976
     20 C           2.7468    0.1920   31.6582 C.ar    1  UNL1        0.1698
     21 H           0.7491    3.6477   33.1628 H       1  UNL1        0.1438
     22 H          -0.4475    3.7046   31.9493 H       1  UNL1        0.1438
     23 C           7.6998   -3.2873   30.3898 C.3     1  UNL1        0.1050
     24 C           9.1597   -5.3681   30.9275 C.3     1  UNL1        0.0900
     25 N           7.9675   -4.7570   30.2531 N.3     1  UNL1       -0.2656
     26 C           7.0428   -5.6153   29.4418 C.3     1  UNL1        0.0987
     27 C           6.4147   -5.0697   28.1937 C.2     1  UNL1       -0.0120
     28 C           6.6183   -5.7709   26.8834 C.2     1  UNL1       -0.0125
     29 C           7.4499   -7.0177   26.8211 C.3     1  UNL1        0.0916
     30 N           6.7976   -8.3418   26.5545 N.3     1  UNL1       -0.3175
     31 H           6.1866   -8.5831   27.3347 H       1  UNL1        0.1192
     32 H           7.5150   -9.0593   26.4499 H       1  UNL1        0.1192
@<TRIPOS>BOND
     1    24    25    1
     2    25    26    1
     3    26    27    1
     4    27    28    2
     5    28    29    1
     6    29    30    1
     7    25    23    1
     8     1    23    1
     9     1     2    1
    10     2     3    1
    11     3    10    1
    12    10    11   ar
    13    11    12   ar
    14    12    13   ar
    15    13    14   ar
    16    14    15    1
    17    14    16   ar
    18    16    17   ar
    19    17    18    1
    20    17    19   ar
    21    19    20   ar
    22     3     4    1
    23     4     5    1
    24     4     6    1
    25     6     7    1
    26     6     1    1
    27    20    10   ar
    28    20    13   ar
    29    30    31    1
    30    30    32    1
    31    15    21    1
    32    15    22    1
    33     5     8    1
    34     7     9    1
