@<TRIPOS>MOLECULE
*****
 30 34 0 0 0
SMALL
GASTEIGER

@<TRIPOS>ATOM
      1 C           6.7524   -4.3879   23.7383 C.ar    1  UNL1        0.1840
      2 N           7.6653   -5.1306   22.8082 N.ar    1  UNL1       -0.1274
      3 N           7.3492   -4.6998   21.4066 N.ar    1  UNL1       -0.1316
      4 C           6.2410   -3.6909   21.4704 C.ar    1  UNL1        0.1615
      5 N           5.8722   -3.4981   22.9115 N.ar    1  UNL1       -0.2944
      6 C           4.7824   -2.5373   23.2847 C.3     1  UNL1        0.1302
      7 C           4.0615   -1.7692   22.2168 C.3     1  UNL1        0.1186
      8 N           4.4303   -1.9620   20.7757 N.am    1  UNL1       -0.2688
      9 C           3.7095   -1.1940   19.7078 C.2     1  UNL1        0.2493
     10 O           4.0783   -1.3868   18.2667 O.2     1  UNL1       -0.2699
     11 C           5.5201   -2.9229   20.4025 C.3     1  UNL1        0.1343
     12 C           5.8890   -3.1157   18.9614 C.3     1  UNL1        0.0298
     13 C           6.2030   -2.2155   28.4264 C.3     1  UNL1        0.0521
     14 C           6.4499   -3.4268   27.5769 C.ar    1  UNL1        0.0595
     15 C           6.6691   -4.7632   28.2219 C.ar    1  UNL1        0.0148
     16 C           6.9161   -5.9745   27.3723 C.ar    1  UNL1        0.0029
     17 C           6.9438   -5.8493   25.8778 C.ar    1  UNL1        0.0222
     18 C           6.7246   -4.5130   25.2328 C.ar    1  UNL1        0.1167
     19 N           6.4777   -3.3017   26.0823 N.ar    1  UNL1       -0.2466
     20 C           2.6197   -0.2332   20.0810 C.ar    1  UNL1        0.0536
     21 C           2.9449    1.2098   20.3300 C.ar    1  UNL1        0.0045
     22 C           1.8551    2.1706   20.7033 C.ar    1  UNL1        0.0006
     23 C           0.4402    1.6884   20.8275 C.ar    1  UNL1        0.0060
     24 C           0.1150    0.2454   20.5785 C.ar    1  UNL1        0.0006
     25 C           1.2047   -0.7154   20.2053 C.ar    1  UNL1        0.0045
     26 C          -0.6496    2.6492   21.2007 C.ar    1  UNL1        0.0295
     27 C          -1.7343    3.1481   20.2927 C.ar    1  UNL1        0.0070
     28 C          -2.6011    4.0870   21.0783 C.ar    1  UNL1        0.0075
     29 C          -2.0520    4.1684   22.4719 C.ar    1  UNL1        0.0354
     30 S          -0.8459    3.2797   22.5475 S.2     1  UNL1       -0.0864
@<TRIPOS>BOND
     1    13    14    1
     2    14    15   ar
     3    15    16   ar
     4    16    17   ar
     5    17    18   ar
     6    18     1    1
     7     1     2   ar
     8     2     3   ar
     9     3     4   ar
    10     4     5   ar
    11     5     6    1
    12     6     7    1
    13     7     8    1
    14     8     9   am
    15     9    10    2
    16     9    20    1
    17    20    21   ar
    18    21    22   ar
    19    22    23   ar
    20    23    26    1
    21    26    27   ar
    22    27    28   ar
    23    28    29   ar
    24    29    30   ar
    25    23    24   ar
    26    24    25   ar
    27     8    11    1
    28    11    12    1
    29    18    19   ar
    30    19    14   ar
    31     5     1   ar
    32    25    20   ar
    33    11     4    1
    34    30    26   ar
@<TRIPOS>MOLECULE
*****
 30 34 0 0 0
SMALL
GASTEIGER

@<TRIPOS>ATOM
      1 C           2.2304   -0.1352   19.3436 C.ar    1  UNL1        0.1840
      2 N           1.3593    0.5861   18.3583 N.ar    1  UNL1       -0.1274
      3 N           0.4429    1.4920   19.1260 N.ar    1  UNL1       -0.1316
      4 C           0.7477    1.3307   20.5859 C.ar    1  UNL1        0.1615
      5 N           1.8524    0.3250   20.7203 N.ar    1  UNL1       -0.2944
      6 C           2.3715   -0.0418   22.0790 C.3     1  UNL1        0.1302
      7 C           1.7857    0.5971   23.3033 C.3     1  UNL1        0.1186
      8 N           0.6810    1.6029   23.1688 N.am    1  UNL1       -0.2688
      9 C           0.0953    2.2418   24.3930 C.2     1  UNL1        0.2493
     10 O          -1.0095    3.2475   24.2585 O.2     1  UNL1       -0.2699
     11 C           0.1620    1.9696   21.8100 C.3     1  UNL1        0.1343
     12 C          -0.9428    2.9753   21.6755 C.3     1  UNL1        0.0298
     13 C           3.9493   -5.0388   19.3575 C.3     1  UNL1        0.0521
     14 C           4.1525   -3.5920   19.0177 C.ar    1  UNL1        0.0595
     15 C           5.4183   -3.1503   18.3449 C.ar    1  UNL1        0.0148
     16 C           5.6215   -1.7035   18.0051 C.ar    1  UNL1        0.0029
     17 C           4.5588   -0.6985   18.3380 C.ar    1  UNL1        0.0222
     18 C           3.2930   -1.1402   19.0107 C.ar    1  UNL1        0.1167
     19 N           3.0898   -2.5870   19.3506 N.ar    1  UNL1       -0.2466
     20 C           0.6143    1.8750   25.7517 C.ar    1  UNL1        0.0536
     21 C          -0.2002    0.9956   26.6534 C.ar    1  UNL1        0.0045
     22 C           0.3189    0.6288   28.0122 C.ar    1  UNL1        0.0006
     23 C           1.6524    1.1414   28.4691 C.ar    1  UNL1        0.0060
     24 C           2.4670    2.0208   27.5673 C.ar    1  UNL1        0.0006
     25 C           1.9479    2.3876   26.2086 C.ar    1  UNL1        0.0045
     26 C           2.1715    0.7746   29.8278 C.ar    1  UNL1        0.0295
     27 C           2.7854   -0.5389   30.2121 C.ar    1  UNL1        0.0070
     28 C           3.1611   -0.4683   31.6625 C.ar    1  UNL1        0.0075
     29 C           2.7794    0.8889   32.1747 C.ar    1  UNL1        0.0354
     30 S           2.1678    1.6571   31.0407 S.2     1  UNL1       -0.0864
@<TRIPOS>BOND
     1    13    14    1
     2    14    15   ar
     3    15    16   ar
     4    16    17   ar
     5    17    18   ar
     6    18     1    1
     7     1     2   ar
     8     2     3   ar
     9     3     4   ar
    10     4     5   ar
    11     5     6    1
    12     6     7    1
    13     7     8    1
    14     8     9   am
    15     9    10    2
    16     9    20    1
    17    20    21   ar
    18    21    22   ar
    19    22    23   ar
    20    23    26    1
    21    26    27   ar
    22    27    28   ar
    23    28    29   ar
    24    29    30   ar
    25    23    24   ar
    26    24    25   ar
    27     8    11    1
    28    11    12    1
    29    18    19   ar
    30    19    14   ar
    31     5     1   ar
    32    25    20   ar
    33    11     4    1
    34    30    26   ar
@<TRIPOS>MOLECULE
*****
 30 34 0 0 0
SMALL
GASTEIGER

@<TRIPOS>ATOM
      1 C           8.1778   -5.3419   27.6787 C.ar    1  UNL1        0.1840
      2 N           9.2815   -6.3507   27.5592 N.ar    1  UNL1       -0.1274
      3 N           9.5360   -6.5885   26.1002 N.ar    1  UNL1       -0.1316
      4 C           8.5895   -5.7268   25.3181 C.ar    1  UNL1        0.1615
      5 N           7.7501   -4.9564   26.2936 N.ar    1  UNL1       -0.2944
      6 C           6.7048   -4.0033   25.7947 C.3     1  UNL1        0.1302
      7 C           6.4989   -3.8207   24.3201 C.3     1  UNL1        0.1186
      8 N           7.3383   -4.5911   23.3446 N.am    1  UNL1       -0.2688
      9 C           7.1324   -4.4085   21.8701 C.2     1  UNL1        0.2493
     10 O           7.9719   -5.1789   20.8945 O.2     1  UNL1       -0.2699
     11 C           8.3837   -5.5442   23.8435 C.3     1  UNL1        0.1343
     12 C           9.2231   -6.3147   22.8680 C.3     1  UNL1        0.0298
     13 C           6.0747   -1.4412   30.3919 C.3     1  UNL1        0.0521
     14 C           6.5511   -2.8615   30.3153 C.ar    1  UNL1        0.0595
     15 C           6.4524   -3.7516   31.5186 C.ar    1  UNL1        0.0148
     16 C           6.9288   -5.1719   31.4419 C.ar    1  UNL1        0.0029
     17 C           7.5039   -5.7019   30.1619 C.ar    1  UNL1        0.0222
     18 C           7.6026   -4.8118   28.9587 C.ar    1  UNL1        0.1167
     19 N           7.1262   -3.3916   29.0353 N.ar    1  UNL1       -0.2466
     20 C           6.0871   -3.4554   21.3711 C.ar    1  UNL1        0.0536
     21 C           4.7359   -3.9676   20.9689 C.ar    1  UNL1        0.0045
     22 C           3.6906   -3.0145   20.4699 C.ar    1  UNL1        0.0006
     23 C           3.9965   -1.5492   20.3733 C.ar    1  UNL1        0.0060
     24 C           5.3478   -1.0370   20.7755 C.ar    1  UNL1        0.0006
     25 C           6.3931   -1.9901   21.2744 C.ar    1  UNL1        0.0045
     26 C           2.9512   -0.5960   19.8743 C.ar    1  UNL1        0.0295
     27 C           1.4794   -0.6771   20.1523 C.ar    1  UNL1        0.0070
     28 C           0.8128    0.4744   19.4596 C.ar    1  UNL1        0.0075
     29 C           1.8726    1.2670   18.7535 C.ar    1  UNL1        0.0354
     30 S           3.1943    0.6054   19.0098 S.2     1  UNL1       -0.0864
@<TRIPOS>BOND
     1    13    14    1
     2    14    15   ar
     3    15    16   ar
     4    16    17   ar
     5    17    18   ar
     6    18     1    1
     7     1     2   ar
     8     2     3   ar
     9     3     4   ar
    10     4     5   ar
    11     5     6    1
    12     6     7    1
    13     7     8    1
    14     8     9   am
    15     9    10    2
    16     9    20    1
    17    20    21   ar
    18    21    22   ar
    19    22    23   ar
    20    23    26    1
    21    26    27   ar
    22    27    28   ar
    23    28    29   ar
    24    29    30   ar
    25    23    24   ar
    26    24    25   ar
    27     8    11    1
    28    11    12    1
    29    18    19   ar
    30    19    14   ar
    31     5     1   ar
    32    25    20   ar
    33    11     4    1
    34    30    26   ar
@<TRIPOS>MOLECULE
*****
 30 34 0 0 0
SMALL
GASTEIGER

@<TRIPOS>ATOM
      1 C          -0.2702    2.6191   20.5934 C.ar    1  UNL1        0.1840
      2 N          -1.4790    3.3163   20.0431 N.ar    1  UNL1       -0.1274
      3 N          -2.3451    3.7236   21.1980 N.ar    1  UNL1       -0.1316
      4 C          -1.6716    3.2780   22.4622 C.ar    1  UNL1        0.1615
      5 N          -0.3893    2.5954   22.0885 N.ar    1  UNL1       -0.2944
      6 C           0.5042    2.0405   23.1578 C.3     1  UNL1        0.1302
      7 C           0.1155    2.1681   24.6010 C.3     1  UNL1        0.1186
      8 N          -1.1669    2.8507   24.9747 N.am    1  UNL1       -0.2688
      9 C          -1.5556    2.9784   26.4178 C.2     1  UNL1        0.2493
     10 O          -2.8380    3.6610   26.7915 O.2     1  UNL1       -0.2699
     11 C          -2.0604    3.4057   23.9052 C.3     1  UNL1        0.1343
     12 C          -3.3428    4.0883   24.2790 C.3     1  UNL1        0.0298
     13 C           4.2758    3.2258   18.1510 C.3     1  UNL1        0.0521
     14 C           3.1323    2.3494   18.5685 C.ar    1  UNL1        0.0595
     15 C           3.1183    0.9001   18.1824 C.ar    1  UNL1        0.0148
     16 C           1.9748    0.0237   18.5999 C.ar    1  UNL1        0.0029
     17 C           0.8453    0.5968   19.4036 C.ar    1  UNL1        0.0222
     18 C           0.8593    2.0461   19.7897 C.ar    1  UNL1        0.1167
     19 N           2.0028    2.9225   19.3722 N.ar    1  UNL1       -0.2466
     20 C          -0.6621    2.4235   27.4871 C.ar    1  UNL1        0.0536
     21 C           0.4169    3.2792   28.0816 C.ar    1  UNL1        0.0045
     22 C           1.3105    2.7242   29.1510 C.ar    1  UNL1        0.0006
     23 C           1.1250    1.3135   29.6259 C.ar    1  UNL1        0.0060
     24 C           0.0460    0.4578   29.0314 C.ar    1  UNL1        0.0006
     25 C          -0.8475    1.0127   27.9621 C.ar    1  UNL1        0.0045
     26 C           2.0186    0.7585   30.6953 C.ar    1  UNL1        0.0295
     27 C           2.2998    1.3917   32.0257 C.ar    1  UNL1        0.0070
     28 C           3.2428    0.4974   32.7746 C.ar    1  UNL1        0.0075
     29 C           3.5445   -0.6885   31.9071 C.ar    1  UNL1        0.0354
     30 S           2.7879   -0.5271   30.6219 S.2     1  UNL1       -0.0864
@<TRIPOS>BOND
     1    13    14    1
     2    14    15   ar
     3    15    16   ar
     4    16    17   ar
     5    17    18   ar
     6    18     1    1
     7     1     2   ar
     8     2     3   ar
     9     3     4   ar
    10     4     5   ar
    11     5     6    1
    12     6     7    1
    13     7     8    1
    14     8     9   am
    15     9    10    2
    16     9    20    1
    17    20    21   ar
    18    21    22   ar
    19    22    23   ar
    20    23    26    1
    21    26    27   ar
    22    27    28   ar
    23    28    29   ar
    24    29    30   ar
    25    23    24   ar
    26    24    25   ar
    27     8    11    1
    28    11    12    1
    29    18    19   ar
    30    19    14   ar
    31     5     1   ar
    32    25    20   ar
    33    11     4    1
    34    30    26   ar
@<TRIPOS>MOLECULE
*****
 30 34 0 0 0
SMALL
GASTEIGER

@<TRIPOS>ATOM
      1 C           4.1870   -1.5975   19.7263 C.ar    1  UNL1        0.1840
      2 N           4.8542   -2.1109   18.4849 N.ar    1  UNL1       -0.1274
      3 N           5.9783   -3.0123   18.9018 N.ar    1  UNL1       -0.1316
      4 C           6.0058   -3.0561   20.4009 C.ar    1  UNL1        0.1615
      5 N           4.8987   -2.1817   20.9105 N.ar    1  UNL1       -0.2944
      6 C           4.6816   -2.0304   22.3870 C.3     1  UNL1        0.1302
      7 C           5.5717   -2.7535   23.3539 C.3     1  UNL1        0.1186
      8 N           6.6789   -3.6278   22.8443 N.am    1  UNL1       -0.2688
      9 C           7.5690   -4.3509   23.8112 C.2     1  UNL1        0.2493
     10 O           8.6761   -5.2253   23.3016 O.2     1  UNL1       -0.2699
     11 C           6.8959   -3.7791   21.3678 C.3     1  UNL1        0.1343
     12 C           8.0030   -4.6535   20.8582 C.3     1  UNL1        0.0298
     13 C           2.0481    3.0037   18.6066 C.3     1  UNL1        0.0521
     14 C           1.9444    1.6366   19.2152 C.ar    1  UNL1        0.0595
     15 C           0.6678    1.2032   19.8726 C.ar    1  UNL1        0.0148
     16 C           0.5641   -0.1638   20.4813 C.ar    1  UNL1        0.0029
     17 C           1.7372   -1.0974   20.4325 C.ar    1  UNL1        0.0222
     18 C           3.0139   -0.6639   19.7751 C.ar    1  UNL1        0.1167
     19 N           3.1176    0.7031   19.1664 N.ar    1  UNL1       -0.2466
     20 C           7.3519   -4.1996   25.2876 C.ar    1  UNL1        0.0536
     21 C           7.7341   -2.9222   25.9748 C.ar    1  UNL1        0.0045
     22 C           7.5170   -2.7710   27.4514 C.ar    1  UNL1        0.0006
     23 C           6.9178   -3.8970   28.2406 C.ar    1  UNL1        0.0060
     24 C           6.5356   -5.1744   27.5534 C.ar    1  UNL1        0.0006
     25 C           6.7527   -5.3257   26.0769 C.ar    1  UNL1        0.0045
     26 C           6.7007   -3.7457   29.7171 C.ar    1  UNL1        0.0295
     27 C           6.1800   -2.5220   30.4109 C.ar    1  UNL1        0.0070
     28 C           6.1237   -2.8116   31.8816 C.ar    1  UNL1        0.0075
     29 C           6.6097   -4.2144   32.0968 C.ar    1  UNL1        0.0354
     30 S           6.9663   -4.7917   30.7590 S.2     1  UNL1       -0.0864
@<TRIPOS>BOND
     1    13    14    1
     2    14    15   ar
     3    15    16   ar
     4    16    17   ar
     5    17    18   ar
     6    18     1    1
     7     1     2   ar
     8     2     3   ar
     9     3     4   ar
    10     4     5   ar
    11     5     6    1
    12     6     7    1
    13     7     8    1
    14     8     9   am
    15     9    10    2
    16     9    20    1
    17    20    21   ar
    18    21    22   ar
    19    22    23   ar
    20    23    26    1
    21    26    27   ar
    22    27    28   ar
    23    28    29   ar
    24    29    30   ar
    25    23    24   ar
    26    24    25   ar
    27     8    11    1
    28    11    12    1
    29    18    19   ar
    30    19    14   ar
    31     5     1   ar
    32    25    20   ar
    33    11     4    1
    34    30    26   ar
@<TRIPOS>MOLECULE
*****
 30 34 0 0 0
SMALL
GASTEIGER

@<TRIPOS>ATOM
      1 C           7.6916   -5.0921   22.3648 C.ar    1  UNL1        0.1840
      2 N           8.3677   -6.3240   21.8401 N.ar    1  UNL1       -0.1274
      3 N           8.7695   -7.1676   23.0135 N.ar    1  UNL1       -0.1316
      4 C           8.3417   -6.4571   24.2634 C.ar    1  UNL1        0.1615
      5 N           7.6755   -5.1743   23.8625 N.ar    1  UNL1       -0.2944
      6 C           7.1404   -4.2469   24.9129 C.3     1  UNL1        0.1302
      7 C           7.2714   -4.6022   26.3644 C.3     1  UNL1        0.1186
      8 N           7.9376   -5.8850   26.7653 N.am    1  UNL1       -0.2688
      9 C           8.0687   -6.2403   28.2167 C.2     1  UNL1        0.2493
     10 O           8.7349   -7.5230   28.6176 O.2     1  UNL1       -0.2699
     11 C           8.4728   -6.8124   25.7148 C.3     1  UNL1        0.1343
     12 C           9.1390   -8.0951   26.1157 C.3     1  UNL1        0.0298
     13 C           3.9108   -3.1802   19.3564 C.3     1  UNL1        0.0521
     14 C           5.2397   -3.0182   20.0330 C.ar    1  UNL1        0.0595
     15 C           6.0071   -1.7383   19.8819 C.ar    1  UNL1        0.0148
     16 C           7.3360   -1.5763   20.5584 C.ar    1  UNL1        0.0029
     17 C           7.8975   -2.6943   21.3860 C.ar    1  UNL1        0.0222
     18 C           7.1301   -3.9742   21.5372 C.ar    1  UNL1        0.1167
     19 N           5.8011   -4.1362   20.8606 N.ar    1  UNL1       -0.2466
     20 C           7.5335   -5.3129   29.2671 C.ar    1  UNL1        0.0536
     21 C           7.2306   -5.8315   30.6416 C.ar    1  UNL1        0.0045
     22 C           6.6955   -4.9040   31.6921 C.ar    1  UNL1        0.0006
     23 C           6.4632   -3.4580   31.3680 C.ar    1  UNL1        0.0060
     24 C           6.7661   -2.9394   29.9935 C.ar    1  UNL1        0.0006
     25 C           7.3013   -3.8668   28.9431 C.ar    1  UNL1        0.0045
     26 C           5.9280   -2.5304   32.4185 C.ar    1  UNL1        0.0295
     27 C           4.6168   -2.6706   33.1332 C.ar    1  UNL1        0.0070
     28 C           4.4885   -1.5268   34.0951 C.ar    1  UNL1        0.0075
     29 C           5.7206   -0.6796   33.9748 C.ar    1  UNL1        0.0354
     30 S           6.6103   -1.3000   32.9385 S.2     1  UNL1       -0.0864
@<TRIPOS>BOND
     1    13    14    1
     2    14    15   ar
     3    15    16   ar
     4    16    17   ar
     5    17    18   ar
     6    18     1    1
     7     1     2   ar
     8     2     3   ar
     9     3     4   ar
    10     4     5   ar
    11     5     6    1
    12     6     7    1
    13     7     8    1
    14     8     9   am
    15     9    10    2
    16     9    20    1
    17    20    21   ar
    18    21    22   ar
    19    22    23   ar
    20    23    26    1
    21    26    27   ar
    22    27    28   ar
    23    28    29   ar
    24    29    30   ar
    25    23    24   ar
    26    24    25   ar
    27     8    11    1
    28    11    12    1
    29    18    19   ar
    30    19    14   ar
    31     5     1   ar
    32    25    20   ar
    33    11     4    1
    34    30    26   ar
@<TRIPOS>MOLECULE
*****
 30 34 0 0 0
SMALL
GASTEIGER

@<TRIPOS>ATOM
      1 C           6.1560   -2.8199   25.4816 C.ar    1  UNL1        0.1840
      2 N           6.6718   -4.1426   24.9976 N.ar    1  UNL1       -0.1274
      3 N           6.9997   -4.9797   26.1983 N.ar    1  UNL1       -0.1316
      4 C           6.6866   -4.1742   27.4244 C.ar    1  UNL1        0.1615
      5 N           6.1652   -2.8394   26.9814 N.ar    1  UNL1       -0.2944
      6 C           5.7661   -1.8141   28.0010 C.3     1  UNL1        0.1302
      7 C           5.8884   -2.1237   29.4636 C.3     1  UNL1        0.1186
      8 N           6.4099   -3.4586   29.9066 N.am    1  UNL1       -0.2688
      9 C           6.5322   -3.7682   31.3692 C.2     1  UNL1        0.2493
     10 O           7.0537   -5.1030   31.8122 O.2     1  UNL1       -0.2699
     11 C           6.8090   -4.4838   28.8870 C.3     1  UNL1        0.1343
     12 C           7.3304   -5.8187   29.3300 C.3     1  UNL1        0.0298
     13 C           2.8372   -0.8312   22.0130 C.3     1  UNL1        0.0521
     14 C           4.0500   -0.6836   22.8832 C.ar    1  UNL1        0.0595
     15 C           4.8163    0.6058   22.8892 C.ar    1  UNL1        0.0148
     16 C           6.0292    0.7534   23.7593 C.ar    1  UNL1        0.0029
     17 C           6.4757   -0.3885   24.6234 C.ar    1  UNL1        0.0222
     18 C           5.7094   -1.6780   24.6174 C.ar    1  UNL1        0.1167
     19 N           4.4965   -1.8256   23.7473 N.ar    1  UNL1       -0.2466
     20 C           6.1331   -2.7429   32.3887 C.ar    1  UNL1        0.0536
     21 C           7.1251   -1.7154   32.8472 C.ar    1  UNL1        0.0045
     22 C           6.7259   -0.6901   33.8668 C.ar    1  UNL1        0.0006
     23 C           5.3349   -0.6924   34.4279 C.ar    1  UNL1        0.0060
     24 C           4.3429   -1.7200   33.9695 C.ar    1  UNL1        0.0006
     25 C           4.7420   -2.7452   32.9499 C.ar    1  UNL1        0.0045
     26 C           4.9357    0.3329   35.4475 C.ar    1  UNL1        0.0295
     27 C           5.1975    0.2578   36.9226 C.ar    1  UNL1        0.0070
     28 C           4.6282    1.4917   37.5578 C.ar    1  UNL1        0.0075
     29 C           4.0147    2.3294   36.4752 C.ar    1  UNL1        0.0354
     30 S           4.2047    1.6132   35.1709 S.2     1  UNL1       -0.0864
@<TRIPOS>BOND
     1    13    14    1
     2    14    15   ar
     3    15    16   ar
     4    16    17   ar
     5    17    18   ar
     6    18     1    1
     7     1     2   ar
     8     2     3   ar
     9     3     4   ar
    10     4     5   ar
    11     5     6    1
    12     6     7    1
    13     7     8    1
    14     8     9   am
    15     9    10    2
    16     9    20    1
    17    20    21   ar
    18    21    22   ar
    19    22    23   ar
    20    23    26    1
    21    26    27   ar
    22    27    28   ar
    23    28    29   ar
    24    29    30   ar
    25    23    24   ar
    26    24    25   ar
    27     8    11    1
    28    11    12    1
    29    18    19   ar
    30    19    14   ar
    31     5     1   ar
    32    25    20   ar
    33    11     4    1
    34    30    26   ar
@<TRIPOS>MOLECULE
*****
 30 34 0 0 0
SMALL
GASTEIGER

@<TRIPOS>ATOM
      1 C         -13.9302   -5.0811   19.3043 C.ar    1  UNL1        0.1840
      2 N         -14.8608   -6.2572   19.3329 N.ar    1  UNL1       -0.1274
      3 N         -16.2521   -5.7421   19.5537 N.ar    1  UNL1       -0.1316
      4 C         -16.1815   -4.2476   19.6615 C.ar    1  UNL1        0.1615
      5 N         -14.7465   -3.8391   19.5074 N.ar    1  UNL1       -0.2944
      6 C         -14.3684   -2.3890   19.5719 C.3     1  UNL1        0.1302
      7 C         -15.4254   -1.3473   19.7905 C.3     1  UNL1        0.1186
      8 N         -16.8604   -1.7558   19.9446 N.am    1  UNL1       -0.2688
      9 C         -17.9174   -0.7142   20.1633 C.2     1  UNL1        0.2493
     10 O         -19.3524   -1.1228   20.3174 O.2     1  UNL1       -0.2699
     11 C         -17.2385   -3.2060   19.8802 C.3     1  UNL1        0.1343
     12 C         -18.6735   -3.6145   20.0343 C.3     1  UNL1        0.0298
     13 C          -9.5621   -7.8448   18.7739 C.3     1  UNL1        0.0521
     14 C         -10.2602   -6.5189   18.8420 C.ar    1  UNL1        0.0595
     15 C          -9.4724   -5.2490   18.7130 C.ar    1  UNL1        0.0148
     16 C         -10.1705   -3.9231   18.7811 C.ar    1  UNL1        0.0029
     17 C         -11.6564   -3.8672   18.9782 C.ar    1  UNL1        0.0222
     18 C         -12.4443   -5.1371   19.1072 C.ar    1  UNL1        0.1167
     19 N         -11.7462   -6.4630   19.0391 N.ar    1  UNL1       -0.2466
     20 C         -17.5393    0.7359   20.2277 C.ar    1  UNL1        0.0536
     21 C         -17.3246    1.3966   21.5572 C.ar    1  UNL1        0.0045
     22 C         -16.9465    2.8468   21.6216 C.ar    1  UNL1        0.0006
     23 C         -16.7832    3.6362   20.3567 C.ar    1  UNL1        0.0060
     24 C         -16.9979    2.9755   19.0272 C.ar    1  UNL1        0.0006
     25 C         -17.3760    1.5254   18.9628 C.ar    1  UNL1        0.0045
     26 C         -16.4051    5.0864   20.4211 C.ar    1  UNL1        0.0295
     27 C         -15.2116    5.6557   21.1291 C.ar    1  UNL1        0.0070
     28 C         -15.2230    7.1430   20.9344 C.ar    1  UNL1        0.0075
     29 C         -16.4237    7.4928   20.1060 C.ar    1  UNL1        0.0354
     30 S         -17.1543    6.2217   19.7888 S.2     1  UNL1       -0.0864
@<TRIPOS>BOND
     1    13    14    1
     2    14    15   ar
     3    15    16   ar
     4    16    17   ar
     5    17    18   ar
     6    18     1    1
     7     1     2   ar
     8     2     3   ar
     9     3     4   ar
    10     4     5   ar
    11     5     6    1
    12     6     7    1
    13     7     8    1
    14     8     9   am
    15     9    10    2
    16     9    20    1
    17    20    21   ar
    18    21    22   ar
    19    22    23   ar
    20    23    26    1
    21    26    27   ar
    22    27    28   ar
    23    28    29   ar
    24    29    30   ar
    25    23    24   ar
    26    24    25   ar
    27     8    11    1
    28    11    12    1
    29    18    19   ar
    30    19    14   ar
    31     5     1   ar
    32    25    20   ar
    33    11     4    1
    34    30    26   ar
@<TRIPOS>MOLECULE
*****
 30 34 0 0 0
SMALL
GASTEIGER

@<TRIPOS>ATOM
      1 C           7.7433   -4.0038   29.3476 C.ar    1  UNL1        0.1840
      2 N           8.5642   -5.2213   29.6539 N.ar    1  UNL1       -0.1274
      3 N           8.8060   -5.9530   28.3669 N.ar    1  UNL1       -0.1316
      4 C           8.1345   -5.1877   27.2653 C.ar    1  UNL1        0.1615
      5 N           7.4777   -3.9830   27.8715 N.ar    1  UNL1       -0.2944
      6 C           6.7228   -3.0227   27.0009 C.3     1  UNL1        0.1302
      7 C           6.6245   -3.2672   25.5242 C.3     1  UNL1        0.1186
      8 N           7.2813   -4.4719   24.9181 N.am    1  UNL1       -0.2688
      9 C           7.1830   -4.7163   23.4414 C.2     1  UNL1        0.2493
     10 O           7.8398   -5.9210   22.8353 O.2     1  UNL1       -0.2699
     11 C           8.0363   -5.4321   25.7887 C.3     1  UNL1        0.1343
     12 C           8.6930   -6.6368   25.1826 C.3     1  UNL1        0.0298
     13 C           4.5804   -2.6464   33.2403 C.3     1  UNL1        0.0521
     14 C           5.6895   -2.3070   32.2892 C.ar    1  UNL1        0.0595
     15 C           6.3262   -0.9496   32.3332 C.ar    1  UNL1        0.0148
     16 C           7.4353   -0.6102   31.3821 C.ar    1  UNL1        0.0029
     17 C           7.9076   -1.6283   30.3869 C.ar    1  UNL1        0.0222
     18 C           7.2709   -2.9857   30.3428 C.ar    1  UNL1        0.1167
     19 N           6.1618   -3.3251   31.2940 N.ar    1  UNL1       -0.2466
     20 C           6.4280   -3.7561   22.5709 C.ar    1  UNL1        0.0536
     21 C           4.9294   -3.8022   22.5275 C.ar    1  UNL1        0.0045
     22 C           4.1744   -2.8419   21.6569 C.ar    1  UNL1        0.0006
     23 C           4.9180   -1.8355   20.8297 C.ar    1  UNL1        0.0060
     24 C           6.4167   -1.7894   20.8731 C.ar    1  UNL1        0.0006
     25 C           7.1717   -2.7497   21.7437 C.ar    1  UNL1        0.0045
     26 C           4.1631   -0.8752   19.9591 C.ar    1  UNL1        0.0295
     27 C           2.6729   -0.8155   19.7981 C.ar    1  UNL1        0.0070
     28 C           2.3546    0.2906   18.8362 C.ar    1  UNL1        0.0075
     29 C           3.6481    0.9145   18.4027 C.ar    1  UNL1        0.0354
     30 S           4.7658    0.1939   19.0968 S.2     1  UNL1       -0.0864
@<TRIPOS>BOND
     1    13    14    1
     2    14    15   ar
     3    15    16   ar
     4    16    17   ar
     5    17    18   ar
     6    18     1    1
     7     1     2   ar
     8     2     3   ar
     9     3     4   ar
    10     4     5   ar
    11     5     6    1
    12     6     7    1
    13     7     8    1
    14     8     9   am
    15     9    10    2
    16     9    20    1
    17    20    21   ar
    18    21    22   ar
    19    22    23   ar
    20    23    26    1
    21    26    27   ar
    22    27    28   ar
    23    28    29   ar
    24    29    30   ar
    25    23    24   ar
    26    24    25   ar
    27     8    11    1
    28    11    12    1
    29    18    19   ar
    30    19    14   ar
    31     5     1   ar
    32    25    20   ar
    33    11     4    1
    34    30    26   ar
