@<TRIPOS>MOLECULE
*****
 23 25 0 0 0
SMALL
GASTEIGER

@<TRIPOS>ATOM
      1 C          -9.1618  -18.0915   23.4365 C.3     1  UNL1        0.0977
      2 C          -9.7340  -18.1634   24.8213 C.3     1  UNL1        0.0233
      3 C         -10.3671  -19.5124   24.9917 C.3     1  UNL1        0.0189
      4 C         -10.1863  -20.2743   23.7124 C.3     1  UNL1        0.0689
      5 N          -9.4414  -19.3962   22.7511 N.3     1  UNL1       -0.2938
      6 H         -10.0083  -19.2354   21.9186 H       1  UNL1        0.1235
      7 C          -8.5024  -17.7312   22.1382 C.2     1  UNL1        0.1818
      8 O          -9.0776  -16.6426   21.2817 O.2     1  UNL1       -0.2903
      9 C          -7.2677  -18.4597   21.6967 C.2     1  UNL1        0.0183
     10 C          -7.3216  -19.3767   20.5110 C.2     1  UNL1        0.0005
     11 C          -6.0869  -20.1052   20.0694 C.2     1  UNL1        0.0204
     12 C          -4.7983  -19.9165   20.8137 C.2     1  UNL1        0.1007
     13 N          -3.4295  -20.4963   20.6135 N.2     1  UNL1       -0.1482
     14 N          -2.5296  -19.9376   21.6755 N.2     1  UNL1       -0.1467
     15 C          -3.3423  -19.0124   22.5321 C.2     1  UNL1        0.1197
     16 C          -4.7444  -18.9994   21.9995 C.2     1  UNL1        0.0226
     17 C          -5.9791  -18.2710   22.4409 C.3     1  UNL1        0.0588
     18 C          -8.7444  -16.7115   23.8504 C.3     1  UNL1        0.0219
     19 C          -8.7488  -16.3300   25.3011 C.3     1  UNL1        0.0018
     20 C          -7.0061  -15.3573   24.5821 C.3     1  UNL1        0.0000
     21 C          -7.5087  -15.7711   25.9334 C.3     1  UNL1        0.0001
     22 C          -8.0114  -16.1850   27.2848 C.3     1  UNL1        0.0000
     23 C          -6.2687  -15.2123   26.5658 C.3     1  UNL1        0.0000
@<TRIPOS>BOND
     1    20    21    1
     2    21    22    1
     3    21    23    1
     4    21    19    1
     5    19    18    1
     6    18     1    1
     7     1     7    1
     8     7     8    2
     9     7     9    1
    10     9    10    2
    11    10    11    1
    12    11    12    2
    13    12    13    1
    14    13    14    2
    15    14    15    1
    16    15    16    2
    17    16    17    1
    18     1     2    1
    19     2     3    1
    20     3     4    1
    21     4     5    1
    22     5     1    1
    23    17     9    1
    24    16    12    1
    25     5     6    1
@<TRIPOS>MOLECULE
*****
 23 25 0 0 0
SMALL
GASTEIGER

@<TRIPOS>ATOM
      1 C         -10.9156  -17.2692   22.6327 C.3     1  UNL1        0.0977
      2 C         -11.8715  -18.3654   22.9998 C.3     1  UNL1        0.0233
      3 C         -13.2385  -17.7627   23.1336 C.3     1  UNL1        0.0189
      4 C         -13.1276  -16.2942   22.8492 C.3     1  UNL1        0.0689
      5 N         -11.6919  -15.9891   22.5396 N.3     1  UNL1       -0.2938
      6 H         -11.3286  -15.3142   23.2126 H       1  UNL1        0.1235
      7 C          -9.7464  -16.4028   22.2691 C.2     1  UNL1        0.1818
      8 O          -9.6292  -15.8445   20.8819 O.2     1  UNL1       -0.2903
      9 C          -8.6943  -16.0946   23.2930 C.2     1  UNL1        0.0183
     10 C          -7.2564  -15.9837   22.8809 C.2     1  UNL1        0.0005
     11 C          -6.2042  -15.6756   23.9047 C.2     1  UNL1        0.0204
     12 C          -6.5902  -15.4783   25.3407 C.2     1  UNL1        0.1007
     13 N          -5.7801  -15.1666   26.5640 N.2     1  UNL1       -0.1482
     14 N          -6.7175  -15.0848   27.7322 N.2     1  UNL1       -0.1467
     15 C          -8.1069  -15.3460   27.2309 C.2     1  UNL1        0.1197
     16 C          -8.0283  -15.5892   25.7528 C.2     1  UNL1        0.0226
     17 C          -9.0803  -15.8974   24.7290 C.3     1  UNL1        0.0588
     18 C          -9.8948  -18.3682   22.6497 C.3     1  UNL1        0.0219
     19 C          -9.9875  -19.4933   21.6620 C.3     1  UNL1        0.0018
     20 C          -7.9109  -19.4585   21.2302 C.3     1  UNL1        0.0000
     21 C          -9.1654  -19.4599   20.4078 C.3     1  UNL1        0.0001
     22 C         -10.4199  -19.4613   19.5855 C.3     1  UNL1        0.0000
     23 C          -8.3433  -19.4266   19.1536 C.3     1  UNL1        0.0000
@<TRIPOS>BOND
     1    20    21    1
     2    21    22    1
     3    21    23    1
     4    21    19    1
     5    19    18    1
     6    18     1    1
     7     1     7    1
     8     7     8    2
     9     7     9    1
    10     9    10    2
    11    10    11    1
    12    11    12    2
    13    12    13    1
    14    13    14    2
    15    14    15    1
    16    15    16    2
    17    16    17    1
    18     1     2    1
    19     2     3    1
    20     3     4    1
    21     4     5    1
    22     5     1    1
    23    17     9    1
    24    16    12    1
    25     5     6    1
@<TRIPOS>MOLECULE
*****
 23 25 0 0 0
SMALL
GASTEIGER

@<TRIPOS>ATOM
      1 C         -10.1712  -17.7974   21.0812 C.3     1  UNL1        0.0977
      2 C         -11.6001  -18.1404   20.7796 C.3     1  UNL1        0.0233
      3 C         -12.2834  -16.8957   20.2965 C.3     1  UNL1        0.0189
      4 C         -11.2770  -15.7834   20.2994 C.3     1  UNL1        0.0689
      5 N          -9.9716  -16.3407   20.7843 N.3     1  UNL1       -0.2938
      6 H          -9.6796  -15.8518   21.6306 H       1  UNL1        0.1235
      7 C          -8.7208  -17.7572   21.4614 C.2     1  UNL1        0.1818
      8 O          -7.7034  -18.4612   20.6134 O.2     1  UNL1       -0.2903
      9 C          -8.2878  -17.0129   22.6897 C.2     1  UNL1        0.0183
     10 C          -9.3123  -16.5201   23.6681 C.2     1  UNL1        0.0005
     11 C          -8.8793  -15.7758   24.8964 C.2     1  UNL1        0.0204
     12 C          -7.4217  -15.5245   25.1462 C.2     1  UNL1        0.1007
     13 N          -6.7003  -14.8255   26.2601 N.2     1  UNL1       -0.1482
     14 N          -5.2299  -14.8864   25.9701 N.2     1  UNL1       -0.1467
     15 C          -5.0425  -15.6230   24.6769 C.2     1  UNL1        0.1197
     16 C          -6.3972  -16.0174   24.1677 C.2     1  UNL1        0.0226
     17 C          -6.8302  -16.7616   22.9394 C.3     1  UNL1        0.0588
     18 C         -10.0676  -19.2458   21.4575 C.3     1  UNL1        0.0219
     19 C         -10.9529  -19.8071   22.5304 C.3     1  UNL1        0.0018
     20 C         -11.7963  -18.9910   24.2975 C.3     1  UNL1        0.0000
     21 C         -10.5319  -19.7278   23.9679 C.3     1  UNL1        0.0001
     22 C          -9.2676  -20.4646   23.6383 C.3     1  UNL1        0.0000
     23 C         -10.1109  -19.6485   25.4054 C.3     1  UNL1        0.0000
@<TRIPOS>BOND
     1    20    21    1
     2    21    22    1
     3    21    23    1
     4    21    19    1
     5    19    18    1
     6    18     1    1
     7     1     7    1
     8     7     8    2
     9     7     9    1
    10     9    10    2
    11    10    11    1
    12    11    12    2
    13    12    13    1
    14    13    14    2
    15    14    15    1
    16    15    16    2
    17    16    17    1
    18     1     2    1
    19     2     3    1
    20     3     4    1
    21     4     5    1
    22     5     1    1
    23    17     9    1
    24    16    12    1
    25     5     6    1
@<TRIPOS>MOLECULE
*****
 23 25 0 0 0
SMALL
GASTEIGER

@<TRIPOS>ATOM
      1 C          -8.9379  -17.7511   23.8092 C.3     1  UNL1        0.0977
      2 C          -9.5208  -18.2758   25.0879 C.3     1  UNL1        0.0233
      3 C          -9.1872  -17.3052   26.1818 C.3     1  UNL1        0.0189
      4 C          -8.3983  -16.1808   25.5793 C.3     1  UNL1        0.0689
      5 N          -8.2442  -16.4563   24.1129 N.3     1  UNL1       -0.2938
      6 H          -7.2547  -16.5301   23.8767 H       1  UNL1        0.1235
      7 C          -8.4801  -17.4855   22.4057 C.2     1  UNL1        0.1818
      8 O          -9.1425  -16.4146   21.5907 O.2     1  UNL1       -0.2903
      9 C          -7.3598  -18.2910   21.8172 C.2     1  UNL1        0.0183
     10 C          -7.6022  -19.1381   20.6033 C.2     1  UNL1        0.0005
     11 C          -6.4818  -19.9435   20.0149 C.2     1  UNL1        0.0204
     12 C          -5.1192  -19.9017   20.6404 C.2     1  UNL1        0.1007
     13 N          -3.8307  -20.5828   20.2856 N.2     1  UNL1       -0.1482
     14 N          -2.7919  -20.1566   21.2803 N.2     1  UNL1       -0.1467
     15 C          -3.4384  -19.2121   22.2498 C.2     1  UNL1        0.1197
     16 C          -4.8768  -19.0546   21.8543 C.2     1  UNL1        0.0226
     17 C          -5.9971  -18.2492   22.4427 C.3     1  UNL1        0.0588
     18 C          -9.5360  -18.9904   23.2121 C.3     1  UNL1        0.0219
     19 C         -11.0194  -19.2067   23.2627 C.3     1  UNL1        0.0018
     20 C         -12.5660  -17.7642   23.4276 C.3     1  UNL1        0.0000
     21 C         -11.9146  -18.4957   22.2915 C.3     1  UNL1        0.0001
     22 C         -11.2633  -19.2273   21.1555 C.3     1  UNL1        0.0000
     23 C         -12.8098  -17.7847   21.3204 C.3     1  UNL1        0.0000
@<TRIPOS>BOND
     1    20    21    1
     2    21    22    1
     3    21    23    1
     4    21    19    1
     5    19    18    1
     6    18     1    1
     7     1     7    1
     8     7     8    2
     9     7     9    1
    10     9    10    2
    11    10    11    1
    12    11    12    2
    13    12    13    1
    14    13    14    2
    15    14    15    1
    16    15    16    2
    17    16    17    1
    18     1     2    1
    19     2     3    1
    20     3     4    1
    21     4     5    1
    22     5     1    1
    23    17     9    1
    24    16    12    1
    25     5     6    1
@<TRIPOS>MOLECULE
*****
 23 25 0 0 0
SMALL
GASTEIGER

@<TRIPOS>ATOM
      1 C          -9.6961  -19.4303   21.2601 C.3     1  UNL1        0.0977
      2 C         -10.2413  -19.4862   19.8637 C.3     1  UNL1        0.0233
      3 C          -9.0833  -19.6112   18.9186 C.3     1  UNL1        0.0189
      4 C          -7.8224  -19.6327   19.7308 C.3     1  UNL1        0.0689
      5 N          -8.2010  -19.5209   21.1778 N.3     1  UNL1       -0.2938
      6 H          -7.7808  -18.6840   21.5820 H       1  UNL1        0.1235
      7 C          -9.4527  -19.3522   22.7381 C.2     1  UNL1        0.1818
      8 O          -9.8575  -20.4912   23.6261 O.2     1  UNL1       -0.2903
      9 C          -8.8045  -18.1348   23.3281 C.2     1  UNL1        0.0183
     10 C          -9.5989  -17.2121   24.2040 C.2     1  UNL1        0.0005
     11 C          -8.9507  -15.9948   24.7939 C.2     1  UNL1        0.0204
     12 C          -7.5079  -15.7003   24.5079 C.2     1  UNL1        0.1007
     13 N          -6.6053  -14.5850   24.9455 N.2     1  UNL1       -0.1482
     14 N          -5.2530  -14.8185   24.3399 N.2     1  UNL1       -0.1467
     15 C          -5.3198  -16.0781   23.5281 C.2     1  UNL1        0.1197
     16 C          -6.7135  -16.6231   23.6319 C.2     1  UNL1        0.0226
     17 C          -7.3617  -17.8403   23.0420 C.3     1  UNL1        0.0588
     18 C         -11.1402  -19.3234   21.6512 C.3     1  UNL1        0.0219
     19 C         -12.0008  -18.2484   21.0564 C.3     1  UNL1        0.0018
     20 C         -11.5789  -16.1934   20.7416 C.3     1  UNL1        0.0000
     21 C         -12.2569  -16.9837   21.8212 C.3     1  UNL1        0.0001
     22 C         -12.9349  -17.7740   22.9009 C.3     1  UNL1        0.0000
     23 C         -12.5131  -15.7190   22.5861 C.3     1  UNL1        0.0000
@<TRIPOS>BOND
     1    20    21    1
     2    21    22    1
     3    21    23    1
     4    21    19    1
     5    19    18    1
     6    18     1    1
     7     1     7    1
     8     7     8    2
     9     7     9    1
    10     9    10    2
    11    10    11    1
    12    11    12    2
    13    12    13    1
    14    13    14    2
    15    14    15    1
    16    15    16    2
    17    16    17    1
    18     1     2    1
    19     2     3    1
    20     3     4    1
    21     4     5    1
    22     5     1    1
    23    17     9    1
    24    16    12    1
    25     5     6    1
@<TRIPOS>MOLECULE
*****
 23 25 0 0 0
SMALL
GASTEIGER

@<TRIPOS>ATOM
      1 C          -8.4219  -17.6327   22.1498 C.3     1  UNL1        0.0977
      2 C          -9.0356  -16.2672   22.2442 C.3     1  UNL1        0.0233
      3 C         -10.3322  -16.2886   21.4904 C.3     1  UNL1        0.0189
      4 C         -10.5199  -17.6672   20.9301 C.3     1  UNL1        0.0689
      5 N          -9.3394  -18.4980   21.3376 N.3     1  UNL1       -0.2938
      6 H          -8.8516  -18.8367   20.5082 H       1  UNL1        0.1235
      7 C          -7.5798  -18.8715   22.2286 C.2     1  UNL1        0.1818
      8 O          -8.0990  -20.0877   22.9364 O.2     1  UNL1       -0.2903
      9 C          -6.2182  -18.8940   21.5994 C.2     1  UNL1        0.0183
     10 C          -6.0800  -19.0753   20.1169 C.2     1  UNL1        0.0005
     11 C          -4.7184  -19.0977   19.4877 C.2     1  UNL1        0.0204
     12 C          -3.4952  -18.9389   20.3412 C.2     1  UNL1        0.1007
     13 N          -2.0332  -18.9200   20.0062 N.2     1  UNL1       -0.1482
     14 N          -1.2679  -18.7271   21.2818 N.2     1  UNL1       -0.1467
     15 C          -2.2569  -18.6267   22.4051 C.2     1  UNL1        0.1197
     16 C          -3.6335  -18.7576   21.8238 C.2     1  UNL1        0.0226
     17 C          -4.9950  -18.7351   22.4529 C.3     1  UNL1        0.0588
     18 C          -7.3285  -17.0264   22.9785 C.3     1  UNL1        0.0219
     19 C          -7.6334  -15.8864   23.9043 C.3     1  UNL1        0.0018
     20 C          -5.5633  -15.4327   23.9973 C.3     1  UNL1        0.0000
     21 C          -6.6732  -15.5336   25.0013 C.3     1  UNL1        0.0001
     22 C          -7.7830  -15.6344   26.0053 C.3     1  UNL1        0.0000
     23 C          -5.7129  -15.1808   26.0983 C.3     1  UNL1        0.0000
@<TRIPOS>BOND
     1    20    21    1
     2    21    22    1
     3    21    23    1
     4    21    19    1
     5    19    18    1
     6    18     1    1
     7     1     7    1
     8     7     8    2
     9     7     9    1
    10     9    10    2
    11    10    11    1
    12    11    12    2
    13    12    13    1
    14    13    14    2
    15    14    15    1
    16    15    16    2
    17    16    17    1
    18     1     2    1
    19     2     3    1
    20     3     4    1
    21     4     5    1
    22     5     1    1
    23    17     9    1
    24    16    12    1
    25     5     6    1
@<TRIPOS>MOLECULE
*****
 23 25 0 0 0
SMALL
GASTEIGER

@<TRIPOS>ATOM
      1 C         -10.7575  -17.8913   22.7697 C.3     1  UNL1        0.0977
      2 C         -11.3369  -16.5390   23.0628 C.3     1  UNL1        0.0233
      3 C         -12.4760  -16.3075   22.1149 C.3     1  UNL1        0.0189
      4 C         -12.6007  -17.5166   21.2360 C.3     1  UNL1        0.0689
      5 N         -11.5387  -18.4954   21.6406 N.3     1  UNL1       -0.2938
      6 H         -10.9196  -18.6804   20.8514 H       1  UNL1        0.1235
      7 C          -9.9809  -19.1732   22.7100 C.2     1  UNL1        0.1818
      8 O         -10.4867  -20.3905   23.4257 O.2     1  UNL1       -0.2903
      9 C          -8.6984  -19.2377   21.9346 C.2     1  UNL1        0.0183
     10 C          -8.7294  -19.2707   20.4354 C.2     1  UNL1        0.0005
     11 C          -7.4469  -19.3352   19.6599 C.2     1  UNL1        0.0204
     12 C          -6.1336  -19.3668   20.3839 C.2     1  UNL1        0.1007
     13 N          -4.7178  -19.4297   19.8923 N.2     1  UNL1       -0.1482
     14 N          -3.8119  -19.4357   21.0879 N.2     1  UNL1       -0.1467
     15 C          -4.6678  -19.3764   22.3183 C.2     1  UNL1        0.1197
     16 C          -6.1027  -19.3338   21.8832 C.2     1  UNL1        0.0226
     17 C          -7.3851  -19.2693   22.6586 C.3     1  UNL1        0.0588
     18 C          -9.8140  -17.5551   23.8863 C.3     1  UNL1        0.0219
     19 C          -9.4351  -16.1267   24.1436 C.3     1  UNL1        0.0018
     20 C          -8.3095  -15.9655   25.9345 C.3     1  UNL1        0.0000
     21 C          -8.0151  -15.7757   24.4760 C.3     1  UNL1        0.0001
     22 C          -7.7206  -15.5858   23.0174 C.3     1  UNL1        0.0000
     23 C          -6.5951  -15.4246   24.8083 C.3     1  UNL1        0.0000
@<TRIPOS>BOND
     1    20    21    1
     2    21    22    1
     3    21    23    1
     4    21    19    1
     5    19    18    1
     6    18     1    1
     7     1     7    1
     8     7     8    2
     9     7     9    1
    10     9    10    2
    11    10    11    1
    12    11    12    2
    13    12    13    1
    14    13    14    2
    15    14    15    1
    16    15    16    2
    17    16    17    1
    18     1     2    1
    19     2     3    1
    20     3     4    1
    21     4     5    1
    22     5     1    1
    23    17     9    1
    24    16    12    1
    25     5     6    1
@<TRIPOS>MOLECULE
*****
 23 25 0 0 0
SMALL
GASTEIGER

@<TRIPOS>ATOM
      1 C          -6.3225  -17.5017   22.7558 C.3     1  UNL1        0.0977
      2 C          -5.0054  -17.3243   23.4514 C.3     1  UNL1        0.0233
      3 C          -5.0228  -15.9944   24.1449 C.3     1  UNL1        0.0189
      4 C          -6.3507  -15.3499   23.8780 C.3     1  UNL1        0.0689
      5 N          -7.1540  -16.2813   23.0195 N.3     1  UNL1       -0.2938
      6 H          -7.3877  -15.8246   22.1379 H       1  UNL1        0.1235
      7 C          -7.5181  -17.9538   21.9708 C.2     1  UNL1        0.1818
      8 O          -7.4095  -18.1556   20.4885 O.2     1  UNL1       -0.2903
      9 C          -8.8223  -18.2042   22.6684 C.2     1  UNL1        0.0183
     10 C          -8.9041  -19.2293   23.7603 C.2     1  UNL1        0.0005
     11 C         -10.2083  -19.4797   24.4578 C.2     1  UNL1        0.0204
     12 C         -11.4306  -18.7049   24.0633 C.2     1  UNL1        0.1007
     13 N         -12.8432  -18.7337   24.5671 N.2     1  UNL1       -0.1482
     14 N         -13.6343  -17.7263   23.7866 N.2     1  UNL1       -0.1467
     15 C         -12.7107  -17.0749   22.8003 C.2     1  UNL1        0.1197
     16 C         -11.3487  -17.6797   22.9714 C.2     1  UNL1        0.0226
     17 C         -10.0446  -17.4294   22.2739 C.3     1  UNL1        0.0588
     18 C          -5.7410  -18.8165   22.3280 C.3     1  UNL1        0.0219
     19 C          -4.2659  -18.9410   22.0859 C.3     1  UNL1        0.0018
     20 C          -4.8006  -20.2953   20.5431 C.3     1  UNL1        0.0000
     21 C          -3.7543  -19.2329   20.7064 C.3     1  UNL1        0.0001
     22 C          -2.7080  -18.1705   20.8696 C.3     1  UNL1        0.0000
     23 C          -3.2427  -19.5248   19.3269 C.3     1  UNL1        0.0000
@<TRIPOS>BOND
     1    20    21    1
     2    21    22    1
     3    21    23    1
     4    21    19    1
     5    19    18    1
     6    18     1    1
     7     1     7    1
     8     7     8    2
     9     7     9    1
    10     9    10    2
    11    10    11    1
    12    11    12    2
    13    12    13    1
    14    13    14    2
    15    14    15    1
    16    15    16    2
    17    16    17    1
    18     1     2    1
    19     2     3    1
    20     3     4    1
    21     4     5    1
    22     5     1    1
    23    17     9    1
    24    16    12    1
    25     5     6    1
@<TRIPOS>MOLECULE
*****
 23 25 0 0 0
SMALL
GASTEIGER

@<TRIPOS>ATOM
      1 C           4.8648   -2.0466   18.8538 C.3     1  UNL1        0.0977
      2 C           5.9513   -2.5947   19.7308 C.3     1  UNL1        0.0233
      3 C           5.8021   -4.0865   19.7763 C.3     1  UNL1        0.0189
      4 C           4.6233   -4.4605   18.9274 C.3     1  UNL1        0.0689
      5 N           4.0440   -3.1998   18.3573 N.3     1  UNL1       -0.2938
      6 H           3.0769   -3.0938   18.6638 H       1  UNL1        0.1235
      7 C           3.9080   -1.2215   18.0453 C.2     1  UNL1        0.1818
      8 O           4.0959   -1.0928   16.5628 O.2     1  UNL1       -0.2903
      9 C           2.7631   -0.5251   18.7195 C.2     1  UNL1        0.0183
     10 C           2.0831   -1.1642   19.8937 C.2     1  UNL1        0.0005
     11 C           0.9382   -0.4678   20.5679 C.2     1  UNL1        0.0204
     12 C           0.4736    0.8679   20.0677 C.2     1  UNL1        0.1007
     13 N          -0.6203    1.7861   20.5262 N.2     1  UNL1       -0.1482
     14 N          -0.6162    2.9928   19.6352 N.2     1  UNL1       -0.1467
     15 C           0.4802    2.8204   18.6261 C.2     1  UNL1        0.1197
     16 C           1.1537    1.5070   18.8935 C.2     1  UNL1        0.0226
     17 C           2.2985    0.8106   18.2193 C.3     1  UNL1        0.0588
     18 C           5.4855   -0.7210   19.1813 C.3     1  UNL1        0.0219
     19 C           5.7953   -0.3694   20.6062 C.3     1  UNL1        0.0018
     20 C           5.3106    1.6695   20.2781 C.3     1  UNL1        0.0000
     21 C           4.9642    0.6521   21.3244 C.3     1  UNL1        0.0001
     22 C           4.6179   -0.3653   22.3708 C.3     1  UNL1        0.0000
     23 C           4.1331    1.6736   22.0426 C.3     1  UNL1        0.0000
@<TRIPOS>BOND
     1    20    21    1
     2    21    22    1
     3    21    23    1
     4    21    19    1
     5    19    18    1
     6    18     1    1
     7     1     7    1
     8     7     8    2
     9     7     9    1
    10     9    10    2
    11    10    11    1
    12    11    12    2
    13    12    13    1
    14    13    14    2
    15    14    15    1
    16    15    16    2
    17    16    17    1
    18     1     2    1
    19     2     3    1
    20     3     4    1
    21     4     5    1
    22     5     1    1
    23    17     9    1
    24    16    12    1
    25     5     6    1
