@<TRIPOS>MOLECULE
*****
 31 34 0 0 0
SMALL
GASTEIGER

@<TRIPOS>ATOM
      1 C         -11.8814  -18.6739   24.1316 C.ar    1  UNL1        0.1718
      2 C         -12.0046  -19.0049   22.6737 C.ar    1  UNL1        0.0356
      3 C         -10.7738  -19.1186   21.8239 C.ar    1  UNL1       -0.0203
      4 C          -9.4199  -18.9013   22.4318 C.ar    1  UNL1       -0.0084
      5 C          -9.2967  -18.5704   23.8896 C.ar    1  UNL1        0.0365
      6 C         -10.5274  -18.4567   24.7395 C.ar    1  UNL1        0.1674
      7 O         -10.4042  -18.1257   26.1973 O.3     1  UNL1       -0.5029
      8 C          -8.1890  -19.0150   21.5819 C.3     1  UNL1        0.0826
      9 C          -6.8351  -18.7978   22.1899 C.3     1  UNL1        0.0516
     10 C          -5.6044  -18.9115   21.3400 C.3     1  UNL1        0.1099
     11 O          -4.9782  -18.5800   22.6621 O.3     1  UNL1       -0.3826
     12 C          -5.7276  -19.2425   19.8822 C.3     1  UNL1        0.0485
     13 C          -7.0815  -19.4597   19.2742 C.3     1  UNL1        0.0751
     14 N          -8.3122  -19.3460   20.1241 N.3     1  UNL1       -0.2698
     15 C          -9.6662  -19.5633   19.5161 C.3     1  UNL1        0.0770
     16 C         -10.8970  -19.4496   20.3660 C.3     1  UNL1        0.0435
     17 H          -9.5585  -17.9899   26.5771 H       1  UNL1        0.2923
     18 H          -5.6725  -18.4738   23.3312 H       1  UNL1        0.2107
     19 C          -4.1562  -18.9100   20.9493 C.ar    1  UNL1        0.0020
     20 C          -3.7594  -18.5756   19.5419 C.ar    1  UNL1        0.0011
     21 C          -2.3112  -18.5742   19.1512 C.ar    1  UNL1        0.0369
     22 C          -1.2597  -18.9072   20.1677 C.ar    1  UNL1        0.1468
     23 C          -1.6565  -19.2416   21.5752 C.ar    1  UNL1        0.0369
     24 C          -3.1047  -19.2430   21.9659 C.ar    1  UNL1        0.0011
     25 O           0.1885  -18.9058   19.7770 O.3     1  UNL1       -0.4045
     26 C           1.0593  -17.7364   20.1296 C.3     1  UNL1        0.5753
     27 F           1.9300  -16.5671   20.4822 F       1  UNL1       -0.1328
     28 F           0.1376  -16.8232   19.3770 F       1  UNL1       -0.1328
     29 F           1.9810  -18.6497   20.8822 F       1  UNL1       -0.1328
     30 C         -14.4277  -18.2081   24.3528 C.3     1  UNL1        0.2526
     31 O         -13.1122  -18.5602   24.9814 O.3     1  UNL1       -0.4684
@<TRIPOS>BOND
     1    30    31    1
     2    31     1    1
     3     1     2   ar
     4     2     3   ar
     5     3     4   ar
     6     4     5   ar
     7     5     6   ar
     8     6     7    1
     9     4     8    1
    10     8     9    1
    11     9    10    1
    12    10    11    1
    13    10    19    1
    14    19    20   ar
    15    20    21   ar
    16    21    22   ar
    17    22    25    1
    18    25    26    1
    19    26    27    1
    20    26    28    1
    21    26    29    1
    22    22    23   ar
    23    23    24   ar
    24    10    12    1
    25    12    13    1
    26    13    14    1
    27    14    15    1
    28    15    16    1
    29     6     1   ar
    30    14     8    1
    31    16     3    1
    32    24    19   ar
    33     7    17    1
    34    11    18    1
@<TRIPOS>MOLECULE
*****
 31 34 0 0 0
SMALL
GASTEIGER

@<TRIPOS>ATOM
      1 C          -1.6037  -18.4382   21.0329 C.ar    1  UNL1        0.1718
      2 C          -2.2438  -19.5927   20.3205 C.ar    1  UNL1        0.0356
      3 C          -3.7232  -19.8147   20.4304 C.ar    1  UNL1       -0.0203
      4 C          -4.5625  -18.8823   21.2526 C.ar    1  UNL1       -0.0084
      5 C          -3.9225  -17.7278   21.9650 C.ar    1  UNL1        0.0365
      6 C          -2.4431  -17.5057   21.8551 C.ar    1  UNL1        0.1674
      7 O          -1.8030  -16.3512   22.5675 O.3     1  UNL1       -0.5029
      8 C          -6.0420  -19.1043   21.3625 C.3     1  UNL1        0.0826
      9 C          -6.8813  -18.1719   22.1847 C.3     1  UNL1        0.0516
     10 C          -8.3606  -18.3939   22.2946 C.3     1  UNL1        0.1099
     11 O          -8.2171  -17.1688   23.1480 O.3     1  UNL1       -0.3826
     12 C          -9.0007  -19.5484   21.5822 C.3     1  UNL1        0.0485
     13 C          -8.1614  -20.4809   20.7600 C.3     1  UNL1        0.0751
     14 N          -6.6820  -20.2588   20.6501 N.3     1  UNL1       -0.2698
     15 C          -5.8426  -21.1913   19.8279 C.3     1  UNL1        0.0770
     16 C          -4.3633  -20.9692   19.7181 C.3     1  UNL1        0.0435
     17 H          -2.3273  -15.7688   23.0811 H       1  UNL1        0.2923
     18 H          -7.2857  -16.8989   23.1722 H       1  UNL1        0.2107
     19 C          -9.7902  -18.1905   22.7008 C.ar    1  UNL1        0.0020
     20 C         -10.5006  -16.9212   22.3345 C.ar    1  UNL1        0.0011
     21 C         -11.9301  -16.7177   22.7408 C.ar    1  UNL1        0.0369
     22 C         -12.6493  -17.7836   23.5133 C.ar    1  UNL1        0.1468
     23 C         -11.9389  -19.0529   23.8795 C.ar    1  UNL1        0.0369
     24 C         -10.5094  -19.2563   23.4733 C.ar    1  UNL1        0.0011
     25 O         -14.0788  -17.5801   23.9195 O.3     1  UNL1       -0.4045
     26 C         -14.6468  -18.3494   25.0753 C.3     1  UNL1        0.5753
     27 F         -15.2148  -19.1186   26.2309 F       1  UNL1       -0.1328
     28 F         -13.5295  -17.8616   25.9490 F       1  UNL1       -0.1328
     29 F         -15.7642  -18.8372   24.2014 F       1  UNL1       -0.1328
     30 C           0.4246  -17.3477   19.8301 C.3     1  UNL1        0.2526
     31 O          -0.1243  -18.2161   20.9230 O.3     1  UNL1       -0.4684
@<TRIPOS>BOND
     1    30    31    1
     2    31     1    1
     3     1     2   ar
     4     2     3   ar
     5     3     4   ar
     6     4     5   ar
     7     5     6   ar
     8     6     7    1
     9     4     8    1
    10     8     9    1
    11     9    10    1
    12    10    11    1
    13    10    19    1
    14    19    20   ar
    15    20    21   ar
    16    21    22   ar
    17    22    25    1
    18    25    26    1
    19    26    27    1
    20    26    28    1
    21    26    29    1
    22    22    23   ar
    23    23    24   ar
    24    10    12    1
    25    12    13    1
    26    13    14    1
    27    14    15    1
    28    15    16    1
    29     6     1   ar
    30    14     8    1
    31    16     3    1
    32    24    19   ar
    33     7    17    1
    34    11    18    1
@<TRIPOS>MOLECULE
*****
 31 34 0 0 0
SMALL
GASTEIGER

@<TRIPOS>ATOM
      1 C           1.5291    0.4760   18.6999 C.ar    1  UNL1        0.1718
      2 C           2.8816    0.4590   18.0515 C.ar    1  UNL1        0.0356
      3 C           4.0131   -0.2854   18.6962 C.ar    1  UNL1       -0.0203
      4 C           3.7922   -1.0128   19.9892 C.ar    1  UNL1       -0.0084
      5 C           2.4397   -0.9958   20.6377 C.ar    1  UNL1        0.0365
      6 C           1.3082   -0.2514   19.9930 C.ar    1  UNL1        0.1674
      7 O          -0.0443   -0.2344   20.6415 O.3     1  UNL1       -0.5029
      8 C           4.9237   -1.7572   20.6339 C.3     1  UNL1        0.0826
      9 C           4.7027   -2.4846   21.9270 C.3     1  UNL1        0.0516
     10 C           5.8342   -3.2289   22.5716 C.3     1  UNL1        0.1099
     11 O           4.7431   -3.5036   23.5636 O.3     1  UNL1       -0.3826
     12 C           7.1867   -3.2459   21.9232 C.3     1  UNL1        0.0485
     13 C           7.4077   -2.5185   20.6301 C.3     1  UNL1        0.0751
     14 N           6.2762   -1.7742   19.9855 N.3     1  UNL1       -0.2698
     15 C           6.4971   -1.0468   18.6923 C.3     1  UNL1        0.0770
     16 C           5.3656   -0.3024   18.0477 C.3     1  UNL1        0.0435
     17 H          -0.1824   -0.6888   21.4492 H       1  UNL1        0.2923
     18 H           3.9247   -3.0724   23.2718 H       1  UNL1        0.2107
     19 C           6.5868   -4.0687   23.5608 C.ar    1  UNL1        0.0020
     20 C           6.2781   -3.9606   25.0247 C.ar    1  UNL1        0.0011
     21 C           7.0307   -4.8003   26.0138 C.ar    1  UNL1        0.0369
     22 C           8.0920   -5.7481   25.5392 C.ar    1  UNL1        0.1468
     23 C           8.4007   -5.8562   24.0752 C.ar    1  UNL1        0.0369
     24 C           7.6481   -5.0165   23.0861 C.ar    1  UNL1        0.0011
     25 O           8.8446   -6.5879   26.5283 O.3     1  UNL1       -0.4045
     26 C           8.2557   -7.8773   27.0190 C.3     1  UNL1        0.5753
     27 F           7.6669   -9.1666   27.5097 F       1  UNL1       -0.1328
     28 F           8.4582   -8.4857   25.6630 F       1  UNL1       -0.1328
     29 F           8.0532   -7.2688   28.3751 F       1  UNL1       -0.1328
     30 C           0.2028    2.6804   18.3381 C.3     1  UNL1        0.2526
     31 O           0.3976    1.2203   18.0553 O.3     1  UNL1       -0.4684
@<TRIPOS>BOND
     1    30    31    1
     2    31     1    1
     3     1     2   ar
     4     2     3   ar
     5     3     4   ar
     6     4     5   ar
     7     5     6   ar
     8     6     7    1
     9     4     8    1
    10     8     9    1
    11     9    10    1
    12    10    11    1
    13    10    19    1
    14    19    20   ar
    15    20    21   ar
    16    21    22   ar
    17    22    25    1
    18    25    26    1
    19    26    27    1
    20    26    28    1
    21    26    29    1
    22    22    23   ar
    23    23    24   ar
    24    10    12    1
    25    12    13    1
    26    13    14    1
    27    14    15    1
    28    15    16    1
    29     6     1   ar
    30    14     8    1
    31    16     3    1
    32    24    19   ar
    33     7    17    1
    34    11    18    1
@<TRIPOS>MOLECULE
*****
 31 34 0 0 0
SMALL
GASTEIGER

@<TRIPOS>ATOM
      1 C           3.5546    0.0320   31.8481 C.ar    1  UNL1        0.1718
      2 C           4.8647   -0.6701   31.6463 C.ar    1  UNL1        0.0356
      3 C           5.2587   -1.1441   30.2787 C.ar    1  UNL1       -0.0203
      4 C           4.3428   -0.9159   29.1130 C.ar    1  UNL1       -0.0084
      5 C           3.0327   -0.2137   29.3148 C.ar    1  UNL1        0.0365
      6 C           2.6386    0.2602   30.6823 C.ar    1  UNL1        0.1674
      7 O           1.3286    0.9624   30.8840 O.3     1  UNL1       -0.5029
      8 C           4.7369   -1.3898   27.7455 C.3     1  UNL1        0.0826
      9 C           3.8209   -1.1616   26.5798 C.3     1  UNL1        0.0516
     10 C           4.2150   -1.6356   25.2123 C.3     1  UNL1        0.1099
     11 O           2.8809   -1.0243   24.9016 O.3     1  UNL1       -0.3826
     12 C           5.5251   -2.3378   25.0106 C.3     1  UNL1        0.0485
     13 C           6.4410   -2.5660   26.1763 C.3     1  UNL1        0.0751
     14 N           6.0469   -2.0920   27.5437 N.3     1  UNL1       -0.2698
     15 C           6.9629   -2.3202   28.7095 C.3     1  UNL1        0.0770
     16 C           6.5688   -1.8463   30.0770 C.3     1  UNL1        0.0435
     17 H           0.7564    1.1050   30.1558 H       1  UNL1        0.2923
     18 H           2.4928   -0.6648   25.7146 H       1  UNL1        0.2107
     19 C           4.1458   -1.8973   23.7370 C.ar    1  UNL1        0.0020
     20 C           4.7207   -3.1623   23.1718 C.ar    1  UNL1        0.0011
     21 C           4.6515   -3.4239   21.6965 C.ar    1  UNL1        0.0369
     22 C           4.0074   -2.4207   20.7861 C.ar    1  UNL1        0.1468
     23 C           3.4325   -1.1557   21.3513 C.ar    1  UNL1        0.0369
     24 C           3.5017   -0.8940   22.8266 C.ar    1  UNL1        0.0011
     25 O           3.9382   -2.6824   19.3108 O.3     1  UNL1       -0.4045
     26 C           4.2999   -4.0345   18.7711 C.3     1  UNL1        0.5753
     27 F           4.6615   -5.3864   18.2315 F       1  UNL1       -0.1328
     28 F           2.8998   -4.5097   19.0236 F       1  UNL1       -0.1328
     29 F           5.7000   -3.5592   18.5186 F       1  UNL1       -0.1328
     30 C           4.2163    0.8920   34.2086 C.3     1  UNL1        0.2526
     31 O           3.1605    0.5060   33.2155 O.3     1  UNL1       -0.4684
@<TRIPOS>BOND
     1    30    31    1
     2    31     1    1
     3     1     2   ar
     4     2     3   ar
     5     3     4   ar
     6     4     5   ar
     7     5     6   ar
     8     6     7    1
     9     4     8    1
    10     8     9    1
    11     9    10    1
    12    10    11    1
    13    10    19    1
    14    19    20   ar
    15    20    21   ar
    16    21    22   ar
    17    22    25    1
    18    25    26    1
    19    26    27    1
    20    26    28    1
    21    26    29    1
    22    22    23   ar
    23    23    24   ar
    24    10    12    1
    25    12    13    1
    26    13    14    1
    27    14    15    1
    28    15    16    1
    29     6     1   ar
    30    14     8    1
    31    16     3    1
    32    24    19   ar
    33     7    17    1
    34    11    18    1
@<TRIPOS>MOLECULE
*****
 31 34 0 0 0
SMALL
GASTEIGER

@<TRIPOS>ATOM
      1 C          -6.8103    4.3589   22.3776 C.ar    1  UNL1        0.1718
      2 C          -6.7899    4.8688   20.9671 C.ar    1  UNL1        0.0356
      3 C          -5.5729    4.6661   20.1139 C.ar    1  UNL1       -0.0203
      4 C          -4.3764    3.9535   20.6712 C.ar    1  UNL1       -0.0084
      5 C          -4.3969    3.4436   22.0817 C.ar    1  UNL1        0.0365
      6 C          -5.6138    3.6463   22.9350 C.ar    1  UNL1        0.1674
      7 O          -5.6342    3.1365   24.3455 O.3     1  UNL1       -0.5029
      8 C          -3.1595    3.7507   19.8180 C.3     1  UNL1        0.0826
      9 C          -1.9630    3.0382   20.3753 C.3     1  UNL1        0.0516
     10 C          -0.7461    2.8354   19.5221 C.3     1  UNL1        0.1099
     11 O          -0.2887    2.1756   20.7891 O.3     1  UNL1       -0.3826
     12 C          -0.7257    3.3453   18.1115 C.3     1  UNL1        0.0485
     13 C          -1.9221    4.0579   17.5542 C.3     1  UNL1        0.0751
     14 N          -3.1390    4.2606   18.4074 N.3     1  UNL1       -0.2698
     15 C          -4.3356    4.9732   17.8501 C.3     1  UNL1        0.0770
     16 C          -5.5525    5.1759   18.7033 C.3     1  UNL1        0.0435
     17 H          -4.8868    2.6913   24.6936 H       1  UNL1        0.2923
     18 H          -0.9926    2.2297   21.4542 H       1  UNL1        0.2107
     19 C           0.6297    2.4036   19.1089 C.ar    1  UNL1        0.0020
     20 C           1.6766    3.4317   18.7974 C.ar    1  UNL1        0.0011
     21 C           3.0523    2.9998   18.3842 C.ar    1  UNL1        0.0369
     22 C           3.3813    1.5399   18.2824 C.ar    1  UNL1        0.1468
     23 C           2.3344    0.5118   18.5939 C.ar    1  UNL1        0.0369
     24 C           0.9586    0.9436   19.0071 C.ar    1  UNL1        0.0011
     25 O           4.7571    1.1080   17.8692 O.3     1  UNL1       -0.4045
     26 C           5.0815   -0.3519   17.7528 C.3     1  UNL1        0.5753
     27 F           5.4059   -1.8116   17.6364 F       1  UNL1       -0.1328
     28 F           5.6016   -0.3484   19.1597 F       1  UNL1       -0.1328
     29 F           4.5614   -0.3553   16.3459 F       1  UNL1       -0.1328
     30 C          -8.1152    5.7504   24.1414 C.3     1  UNL1        0.2526
     31 O          -8.0272    4.5617   23.2309 O.3     1  UNL1       -0.4684
@<TRIPOS>BOND
     1    30    31    1
     2    31     1    1
     3     1     2   ar
     4     2     3   ar
     5     3     4   ar
     6     4     5   ar
     7     5     6   ar
     8     6     7    1
     9     4     8    1
    10     8     9    1
    11     9    10    1
    12    10    11    1
    13    10    19    1
    14    19    20   ar
    15    20    21   ar
    16    21    22   ar
    17    22    25    1
    18    25    26    1
    19    26    27    1
    20    26    28    1
    21    26    29    1
    22    22    23   ar
    23    23    24   ar
    24    10    12    1
    25    12    13    1
    26    13    14    1
    27    14    15    1
    28    15    16    1
    29     6     1   ar
    30    14     8    1
    31    16     3    1
    32    24    19   ar
    33     7    17    1
    34    11    18    1
@<TRIPOS>MOLECULE
*****
 31 34 0 0 0
SMALL
GASTEIGER

@<TRIPOS>ATOM
      1 C           7.3637   -5.3628   29.8774 C.ar    1  UNL1        0.1718
      2 C           7.1711   -4.1133   29.0702 C.ar    1  UNL1        0.0356
      3 C           6.6113   -2.8812   29.7172 C.ar    1  UNL1       -0.0203
      4 C           6.2442   -2.8986   31.1715 C.ar    1  UNL1       -0.0084
      5 C           6.4368   -4.1481   31.9788 C.ar    1  UNL1        0.0365
      6 C           6.9965   -5.3802   31.3318 C.ar    1  UNL1        0.1674
      7 O           7.1891   -6.6296   32.1390 O.3     1  UNL1       -0.5029
      8 C           5.6845   -1.6664   31.8185 C.3     1  UNL1        0.0826
      9 C           5.3174   -1.6838   33.2728 C.3     1  UNL1        0.0516
     10 C           4.7577   -0.4517   33.9198 C.3     1  UNL1        0.1099
     11 O           4.7556   -1.3859   35.0933 O.3     1  UNL1       -0.3826
     12 C           4.5651    0.7978   33.1125 C.3     1  UNL1        0.0485
     13 C           4.9322    0.8151   31.6583 C.3     1  UNL1        0.0751
     14 N           5.4919   -0.4169   31.0113 N.3     1  UNL1       -0.2698
     15 C           5.8590   -0.3996   29.5570 C.3     1  UNL1        0.0770
     16 C           6.4187   -1.6317   28.9100 C.3     1  UNL1        0.0435
     17 H           6.9598   -6.6405   33.0475 H       1  UNL1        0.2923
     18 H           5.1019   -2.2497   34.8196 H       1  UNL1        0.2107
     19 C           4.1973    0.4559   34.9743 C.ar    1  UNL1        0.0020
     20 C           4.4744    0.1832   36.4231 C.ar    1  UNL1        0.0011
     21 C           3.9140    1.0909   37.4776 C.ar    1  UNL1        0.0369
     22 C           3.0765    2.2712   37.0835 C.ar    1  UNL1        0.1468
     23 C           2.7993    2.5439   35.6348 C.ar    1  UNL1        0.0369
     24 C           3.3598    1.6363   34.5802 C.ar    1  UNL1        0.0011
     25 O           2.5161    3.1789   38.1381 O.3     1  UNL1       -0.4045
     26 C           1.1284    2.9536   38.6614 C.3     1  UNL1        0.5753
     27 F          -0.2591    2.7283   39.1846 F       1  UNL1       -0.1328
     28 F           1.6606    1.9487   39.6396 F       1  UNL1       -0.1328
     29 F           0.5963    3.9585   37.6831 F       1  UNL1       -0.1328
     30 C           9.3874   -6.9015   29.3421 C.3     1  UNL1        0.2526
     31 O           7.9234   -6.5949   29.2305 O.3     1  UNL1       -0.4684
@<TRIPOS>BOND
     1    30    31    1
     2    31     1    1
     3     1     2   ar
     4     2     3   ar
     5     3     4   ar
     6     4     5   ar
     7     5     6   ar
     8     6     7    1
     9     4     8    1
    10     8     9    1
    11     9    10    1
    12    10    11    1
    13    10    19    1
    14    19    20   ar
    15    20    21   ar
    16    21    22   ar
    17    22    25    1
    18    25    26    1
    19    26    27    1
    20    26    28    1
    21    26    29    1
    22    22    23   ar
    23    23    24   ar
    24    10    12    1
    25    12    13    1
    26    13    14    1
    27    14    15    1
    28    15    16    1
    29     6     1   ar
    30    14     8    1
    31    16     3    1
    32    24    19   ar
    33     7    17    1
    34    11    18    1
@<TRIPOS>MOLECULE
*****
 31 34 0 0 0
SMALL
GASTEIGER

@<TRIPOS>ATOM
      1 C           3.4095    0.1032   31.5942 C.ar    1  UNL1        0.1718
      2 C           2.4749    1.0832   30.9492 C.ar    1  UNL1        0.0356
      3 C           2.2843    1.0701   29.4614 C.ar    1  UNL1       -0.0203
      4 C           3.0282    0.0770   28.6186 C.ar    1  UNL1       -0.0084
      5 C           3.9628   -0.9031   29.2636 C.ar    1  UNL1        0.0365
      6 C           4.1534   -0.8900   30.7514 C.ar    1  UNL1        0.1674
      7 O           5.0880   -1.8701   31.3964 O.3     1  UNL1       -0.5029
      8 C           2.8375    0.0639   27.1308 C.3     1  UNL1        0.0826
      9 C           3.5814   -0.9292   26.2881 C.3     1  UNL1        0.0516
     10 C           3.3907   -0.9423   24.8003 C.3     1  UNL1        0.1099
     11 O           4.3782   -2.0619   24.9461 O.3     1  UNL1       -0.3826
     12 C           2.4562    0.0378   24.1553 C.3     1  UNL1        0.0485
     13 C           1.7122    1.0309   24.9981 C.3     1  UNL1        0.0751
     14 N           1.9029    1.0439   26.4858 N.3     1  UNL1       -0.2698
     15 C           1.1590    2.0371   27.3286 C.3     1  UNL1        0.0770
     16 C           1.3497    2.0502   28.8164 C.3     1  UNL1        0.0435
     17 H           5.5527   -2.4904   30.8699 H       1  UNL1        0.2923
     18 H           4.6030   -2.1749   25.8830 H       1  UNL1        0.2107
     19 C           3.5430   -1.3442   23.3632 C.ar    1  UNL1        0.0020
     20 C           4.4376   -2.4909   22.9959 C.ar    1  UNL1        0.0011
     21 C           4.5898   -2.8928   21.5588 C.ar    1  UNL1        0.0369
     22 C           3.8476   -2.1481   20.4890 C.ar    1  UNL1        0.1468
     23 C           2.9530   -1.0014   20.8563 C.ar    1  UNL1        0.0369
     24 C           2.8008   -0.5995   22.2934 C.ar    1  UNL1        0.0011
     25 O           3.9999   -2.5500   19.0519 O.3     1  UNL1       -0.4045
     26 C           4.3508   -3.9659   18.7022 C.3     1  UNL1        0.5753
     27 F           4.7018   -5.3816   18.3526 F       1  UNL1       -0.1328
     28 F           2.9413   -4.3874   18.9947 F       1  UNL1       -0.1328
     29 F           5.7604   -3.5443   18.4097 F       1  UNL1       -0.1328
     30 C           3.2961    1.3582   33.8661 C.3     1  UNL1        0.2526
     31 O           3.6002    0.1162   33.0819 O.3     1  UNL1       -0.4684
@<TRIPOS>BOND
     1    30    31    1
     2    31     1    1
     3     1     2   ar
     4     2     3   ar
     5     3     4   ar
     6     4     5   ar
     7     5     6   ar
     8     6     7    1
     9     4     8    1
    10     8     9    1
    11     9    10    1
    12    10    11    1
    13    10    19    1
    14    19    20   ar
    15    20    21   ar
    16    21    22   ar
    17    22    25    1
    18    25    26    1
    19    26    27    1
    20    26    28    1
    21    26    29    1
    22    22    23   ar
    23    23    24   ar
    24    10    12    1
    25    12    13    1
    26    13    14    1
    27    14    15    1
    28    15    16    1
    29     6     1   ar
    30    14     8    1
    31    16     3    1
    32    24    19   ar
    33     7    17    1
    34    11    18    1
@<TRIPOS>MOLECULE
*****
 31 34 0 0 0
SMALL
GASTEIGER

@<TRIPOS>ATOM
      1 C           0.9611    1.6483   30.3350 C.ar    1  UNL1        0.1718
      2 C           0.6338    2.8081   29.4419 C.ar    1  UNL1        0.0356
      3 C           0.8771    2.7094   27.9650 C.ar    1  UNL1       -0.0203
      4 C           1.4476    1.4509   27.3813 C.ar    1  UNL1       -0.0084
      5 C           1.7749    0.2911   28.2744 C.ar    1  UNL1        0.0365
      6 C           1.5316    0.3897   29.7512 C.ar    1  UNL1        0.1674
      7 O           1.8589   -0.7701   30.6444 O.3     1  UNL1       -0.5029
      8 C           1.6908    1.3522   25.9044 C.3     1  UNL1        0.0826
      9 C           2.2613    0.0938   25.3207 C.3     1  UNL1        0.0516
     10 C           2.5045   -0.0049   23.8439 C.3     1  UNL1        0.1099
     11 O           2.9728   -1.3627   24.2762 O.3     1  UNL1       -0.3826
     12 C           2.1773    1.1550   22.9507 C.3     1  UNL1        0.0485
     13 C           1.6068    2.4134   23.5344 C.3     1  UNL1        0.0751
     14 N           1.3636    2.5121   25.0113 N.3     1  UNL1       -0.2698
     15 C           0.7930    3.7706   25.5950 C.3     1  UNL1        0.0770
     16 C           0.5498    3.8692   27.0718 C.3     1  UNL1        0.0435
     17 H           2.2153   -1.5562   30.2797 H       1  UNL1        0.2923
     18 H           2.8728   -1.4484   25.2372 H       1  UNL1        0.2107
     19 C           2.9104   -0.5751   22.5172 C.ar    1  UNL1        0.0020
     20 C           4.1041   -1.4786   22.4227 C.ar    1  UNL1        0.0011
     21 C           4.5099   -2.0488   21.0960 C.ar    1  UNL1        0.0369
     22 C           3.7221   -1.7156   19.8637 C.ar    1  UNL1        0.1468
     23 C           2.5284   -0.8121   19.9582 C.ar    1  UNL1        0.0369
     24 C           2.1226   -0.2419   21.2849 C.ar    1  UNL1        0.0011
     25 O           4.1280   -2.2858   18.5370 O.3     1  UNL1       -0.4045
     26 C           4.4854   -3.7382   18.4226 C.3     1  UNL1        0.5753
     27 F           4.8428   -5.1904   18.3082 F       1  UNL1       -0.1328
     28 F           5.8913   -3.3634   18.0581 F       1  UNL1       -0.1328
     29 F           3.0794   -4.1129   18.7872 F       1  UNL1       -0.1328
     30 C           1.4551    2.7678   32.6268 C.3     1  UNL1        0.2526
     31 O           0.7179    1.7469   31.8118 O.3     1  UNL1       -0.4684
@<TRIPOS>BOND
     1    30    31    1
     2    31     1    1
     3     1     2   ar
     4     2     3   ar
     5     3     4   ar
     6     4     5   ar
     7     5     6   ar
     8     6     7    1
     9     4     8    1
    10     8     9    1
    11     9    10    1
    12    10    11    1
    13    10    19    1
    14    19    20   ar
    15    20    21   ar
    16    21    22   ar
    17    22    25    1
    18    25    26    1
    19    26    27    1
    20    26    28    1
    21    26    29    1
    22    22    23   ar
    23    23    24   ar
    24    10    12    1
    25    12    13    1
    26    13    14    1
    27    14    15    1
    28    15    16    1
    29     6     1   ar
    30    14     8    1
    31    16     3    1
    32    24    19   ar
    33     7    17    1
    34    11    18    1
@<TRIPOS>MOLECULE
*****
 31 34 0 0 0
SMALL
GASTEIGER

@<TRIPOS>ATOM
      1 C           0.6142    5.8517   35.7149 C.ar    1  UNL1        0.1718
      2 C           1.0264    5.1601   36.9805 C.ar    1  UNL1        0.0356
      3 C           1.8748    3.9246   36.9180 C.ar    1  UNL1       -0.0203
      4 C           2.3110    3.3807   35.5899 C.ar    1  UNL1       -0.0084
      5 C           1.8988    4.0723   34.3243 C.ar    1  UNL1        0.0365
      6 C           1.0505    5.3078   34.3868 C.ar    1  UNL1        0.1674
      7 O           0.6383    5.9994   33.1211 O.3     1  UNL1       -0.5029
      8 C           3.1593    2.1452   35.5273 C.3     1  UNL1        0.0826
      9 C           3.5955    1.6014   34.1992 C.3     1  UNL1        0.0516
     10 C           4.4439    0.3659   34.1367 C.3     1  UNL1        0.1099
     11 O           4.3103    0.6644   32.6728 O.3     1  UNL1       -0.3826
     12 C           4.8560   -0.3257   35.4023 C.3     1  UNL1        0.0485
     13 C           4.4198    0.2181   36.7305 C.3     1  UNL1        0.0751
     14 N           3.5715    1.4536   36.7930 N.3     1  UNL1       -0.2698
     15 C           3.1352    1.9975   38.1211 C.3     1  UNL1        0.0770
     16 C           2.2869    3.2329   38.1836 C.3     1  UNL1        0.0435
     17 H           0.9108    5.6597   32.2915 H       1  UNL1        0.2923
     18 H           3.7706    1.4616   32.5533 H       1  UNL1        0.2107
     19 C           5.2458   -0.7658   33.5658 C.ar    1  UNL1        0.0020
     20 C           6.7233   -0.6090   33.3598 C.ar    1  UNL1        0.0011
     21 C           7.5253   -1.7408   32.7889 C.ar    1  UNL1        0.0369
     22 C           6.8498   -3.0294   32.4240 C.ar    1  UNL1        0.1468
     23 C           5.3723   -3.1863   32.6301 C.ar    1  UNL1        0.0369
     24 C           4.5704   -2.0545   33.2010 C.ar    1  UNL1        0.0011
     25 O           7.6518   -4.1612   31.8531 O.3     1  UNL1       -0.4045
     26 C           7.0720   -5.0181   30.7669 C.3     1  UNL1        0.5753
     27 F           6.4924   -5.8749   29.6808 F       1  UNL1       -0.1328
     28 F           6.8680   -6.1299   31.7530 F       1  UNL1       -0.1328
     29 F           7.2761   -3.9062   29.7809 F       1  UNL1       -0.1328
     30 C          -1.7137    6.9932   35.5499 C.3     1  UNL1        0.2526
     31 O          -0.2341    7.0871   35.7774 O.3     1  UNL1       -0.4684
@<TRIPOS>BOND
     1    30    31    1
     2    31     1    1
     3     1     2   ar
     4     2     3   ar
     5     3     4   ar
     6     4     5   ar
     7     5     6   ar
     8     6     7    1
     9     4     8    1
    10     8     9    1
    11     9    10    1
    12    10    11    1
    13    10    19    1
    14    19    20   ar
    15    20    21   ar
    16    21    22   ar
    17    22    25    1
    18    25    26    1
    19    26    27    1
    20    26    28    1
    21    26    29    1
    22    22    23   ar
    23    23    24   ar
    24    10    12    1
    25    12    13    1
    26    13    14    1
    27    14    15    1
    28    15    16    1
    29     6     1   ar
    30    14     8    1
    31    16     3    1
    32    24    19   ar
    33     7    17    1
    34    11    18    1
