@<TRIPOS>MOLECULE
*****
 24 26 0 0 0
SMALL
GASTEIGER

@<TRIPOS>ATOM
      1 N          -7.4826  -17.6294   22.9393 N.am    1  UNL1       -0.2494
      2 C          -5.9988  -17.4100   22.9292 C.2     1  UNL1        0.2509
      3 O          -5.2621  -16.3301   23.6649 O.2     1  UNL1       -0.2698
      4 C          -5.3808  -18.4600   22.0541 C.ar    1  UNL1        0.0538
      5 C          -3.9572  -18.7375   21.6720 C.ar    1  UNL1        0.0043
      6 C          -3.6355  -19.8835   20.7592 C.ar    1  UNL1        0.0001
      7 C          -4.7374  -20.7519   20.2285 C.ar    1  UNL1       -0.0002
      8 C          -6.1611  -20.4743   20.6107 C.ar    1  UNL1        0.0001
      9 C          -6.4828  -19.3284   21.5235 C.ar    1  UNL1        0.0281
     10 C          -7.7817  -18.8150   22.0706 C.3     1  UNL1        0.1915
     11 O          -8.3785  -19.9426   21.2817 O.3     1  UNL1       -0.3637
     12 H          -7.6726  -20.4281   20.8268 H       1  UNL1        0.2127
     13 C          -9.2054  -18.5374   22.4528 C.ar    1  UNL1        0.0238
     14 C         -10.0374  -17.6067   21.6211 C.ar    1  UNL1        0.0008
     15 C         -11.4610  -17.3290   22.0033 C.ar    1  UNL1        0.0112
     16 C         -12.0528  -17.9822   23.2170 C.ar    1  UNL1        0.0577
     17 CL        -13.4765  -17.7045   23.5992 Cl      1  UNL1       -0.0822
     18 C         -11.2208  -18.9129   24.0487 C.ar    1  UNL1        0.0112
     19 C          -9.7972  -19.1905   23.6665 C.ar    1  UNL1        0.0008
     20 C          -8.4903  -16.8075   23.6870 C.3     1  UNL1        0.1132
     21 N          -7.6905  -14.3770   24.1376 N.3     1  UNL1       -0.3197
     22 C          -8.0320  -15.7471   24.6438 C.3     1  UNL1        0.0870
     23 H          -7.4002  -13.7886   24.9185 H       1  UNL1        0.1189
     24 H          -8.5093  -13.9666   23.6886 H       1  UNL1        0.1189
@<TRIPOS>BOND
     1    21    22    1
     2    22    20    1
     3    20     1    1
     4     1     2   am
     5     2     3    2
     6     2     4    1
     7     4     5   ar
     8     5     6   ar
     9     6     7   ar
    10     7     8   ar
    11     8     9   ar
    12     9    10    1
    13    10    11    1
    14    10    13    1
    15    13    14   ar
    16    14    15   ar
    17    15    16   ar
    18    16    17    1
    19    16    18   ar
    20    18    19   ar
    21    10     1    1
    22    19    13   ar
    23     9     4   ar
    24    21    23    1
    25    21    24    1
    26    11    12    1
@<TRIPOS>MOLECULE
*****
 24 26 0 0 0
SMALL
GASTEIGER

@<TRIPOS>ATOM
      1 N          -7.4145  -19.1865   21.4008 N.am    1  UNL1       -0.2494
      2 C          -6.2303  -19.9305   20.8587 C.2     1  UNL1        0.2509
      3 O          -6.2736  -21.0506   19.8618 O.2     1  UNL1       -0.2698
      4 C          -4.9951  -19.3579   21.4883 C.ar    1  UNL1        0.0538
      5 C          -3.5416  -19.6945   21.3340 C.ar    1  UNL1        0.0043
      6 C          -2.5089  -18.9330   22.1109 C.ar    1  UNL1        0.0001
      7 C          -2.9297  -17.8350   23.0422 C.ar    1  UNL1       -0.0002
      8 C          -4.3833  -17.4985   23.1966 C.ar    1  UNL1        0.0001
      9 C          -5.4160  -18.2600   22.4196 C.ar    1  UNL1        0.0281
     10 C          -6.9113  -18.1540   22.3655 C.3     1  UNL1        0.1915
     11 O          -6.7119  -17.0512   23.3625 O.3     1  UNL1       -0.3637
     12 H          -5.7650  -16.9491   23.5467 H       1  UNL1        0.2127
     13 C          -8.3649  -17.8175   22.5198 C.ar    1  UNL1        0.0238
     14 C          -8.9515  -16.6618   21.7646 C.ar    1  UNL1        0.0008
     15 C         -10.4050  -16.3253   21.9189 C.ar    1  UNL1        0.0112
     16 C         -11.2720  -17.1445   22.8284 C.ar    1  UNL1        0.0577
     17 CL        -12.7257  -16.8079   22.9827 Cl      1  UNL1       -0.0822
     18 C         -10.6855  -18.3001   23.5836 C.ar    1  UNL1        0.0112
     19 C          -9.2319  -18.6366   23.4294 C.ar    1  UNL1        0.0008
     20 C          -8.8500  -19.4318   21.0413 C.3     1  UNL1        0.1132
     21 N          -8.9978  -20.4717   18.6650 N.3     1  UNL1       -0.3197
     22 C          -9.2903  -19.3442   19.6101 C.3     1  UNL1        0.0870
     23 H          -9.3657  -20.2450   17.7411 H       1  UNL1        0.1189
     24 H          -9.4394  -21.3251   19.0069 H       1  UNL1        0.1189
@<TRIPOS>BOND
     1    21    22    1
     2    22    20    1
     3    20     1    1
     4     1     2   am
     5     2     3    2
     6     2     4    1
     7     4     5   ar
     8     5     6   ar
     9     6     7   ar
    10     7     8   ar
    11     8     9   ar
    12     9    10    1
    13    10    11    1
    14    10    13    1
    15    13    14   ar
    16    14    15   ar
    17    15    16   ar
    18    16    17    1
    19    16    18   ar
    20    18    19   ar
    21    10     1    1
    22    19    13   ar
    23     9     4   ar
    24    21    23    1
    25    21    24    1
    26    11    12    1
@<TRIPOS>MOLECULE
*****
 24 26 0 0 0
SMALL
GASTEIGER

@<TRIPOS>ATOM
      1 N          -8.7517  -18.5307   22.6027 N.am    1  UNL1       -0.2494
      2 C          -7.3521  -18.8084   22.1401 C.2     1  UNL1        0.2509
      3 O          -6.9345  -19.8998   21.1996 O.2     1  UNL1       -0.2698
      4 C          -6.4433  -17.8031   22.7832 C.ar    1  UNL1        0.0538
      5 C          -4.9610  -17.5902   22.6967 C.ar    1  UNL1        0.0043
      6 C          -4.3167  -16.4782   23.4703 C.ar    1  UNL1        0.0001
      7 C          -5.1547  -15.5792   24.3303 C.ar    1  UNL1       -0.0002
      8 C          -6.6369  -15.7921   24.4167 C.ar    1  UNL1        0.0001
      9 C          -7.2813  -16.9041   23.6432 C.ar    1  UNL1        0.0281
     10 C          -8.7079  -17.3538   23.5316 C.3     1  UNL1        0.1915
     11 O          -8.9740  -16.2214   24.4786 O.3     1  UNL1       -0.3637
     12 H          -8.1397  -15.7742   24.6904 H       1  UNL1        0.2127
     13 C         -10.1903  -17.5667   23.6180 C.ar    1  UNL1        0.0238
     14 C         -11.1150  -16.7639   22.7518 C.ar    1  UNL1        0.0008
     15 C         -12.5973  -16.9768   22.8382 C.ar    1  UNL1        0.0112
     16 C         -13.1548  -17.9925   23.7908 C.ar    1  UNL1        0.0577
     17 CL        -14.6371  -18.2055   23.8772 Cl      1  UNL1       -0.0822
     18 C         -12.2300  -18.7953   24.6570 C.ar    1  UNL1        0.0112
     19 C         -10.7478  -18.5824   24.5706 C.ar    1  UNL1        0.0008
     20 C          -9.9795  -19.2956   22.2060 C.3     1  UNL1        0.1132
     21 N          -9.6333  -18.7027   19.7003 N.3     1  UNL1       -0.3197
     22 C         -10.2617  -19.5619   20.7571 C.3     1  UNL1        0.0870
     23 H          -9.9324  -19.0232   18.7793 H       1  UNL1        0.1189
     24 H          -8.6176  -18.7670   19.7694 H       1  UNL1        0.1189
@<TRIPOS>BOND
     1    21    22    1
     2    22    20    1
     3    20     1    1
     4     1     2   am
     5     2     3    2
     6     2     4    1
     7     4     5   ar
     8     5     6   ar
     9     6     7   ar
    10     7     8   ar
    11     8     9   ar
    12     9    10    1
    13    10    11    1
    14    10    13    1
    15    13    14   ar
    16    14    15   ar
    17    15    16   ar
    18    16    17    1
    19    16    18   ar
    20    18    19   ar
    21    10     1    1
    22    19    13   ar
    23     9     4   ar
    24    21    23    1
    25    21    24    1
    26    11    12    1
@<TRIPOS>MOLECULE
*****
 24 26 0 0 0
SMALL
GASTEIGER

@<TRIPOS>ATOM
      1 N         -10.1846  -17.4853   22.1040 N.am    1  UNL1       -0.2494
      2 C         -10.8275  -17.9644   20.8363 C.2     1  UNL1        0.2509
      3 O         -12.1972  -17.5957   20.3483 O.2     1  UNL1       -0.2698
      4 C          -9.8603  -18.8769   20.1421 C.ar    1  UNL1        0.0538
      5 C          -9.9491  -19.6414   18.8546 C.ar    1  UNL1        0.0043
      6 C          -8.7971  -20.4909   18.4059 C.ar    1  UNL1        0.0001
      7 C          -7.5564  -20.5758   19.2446 C.ar    1  UNL1       -0.0002
      8 C          -7.4677  -19.8112   20.5321 C.ar    1  UNL1        0.0001
      9 C          -8.6196  -18.9618   20.9808 C.ar    1  UNL1        0.0281
     10 C          -8.8200  -18.1018   22.1933 C.3     1  UNL1        0.1915
     11 O          -7.4369  -18.5583   22.5518 O.3     1  UNL1       -0.3637
     12 H          -7.1046  -19.1547   21.8627 H       1  UNL1        0.2127
     13 C          -8.7313  -17.3371   23.4808 C.ar    1  UNL1        0.0238
     14 C          -9.2479  -17.9449   24.7511 C.ar    1  UNL1        0.0008
     15 C          -9.1592  -17.1804   26.0386 C.ar    1  UNL1        0.0112
     16 C          -8.5539  -15.8081   26.0557 C.ar    1  UNL1        0.0577
     17 CL         -8.4652  -15.0435   27.3432 Cl      1  UNL1       -0.0822
     18 C          -8.0374  -15.2003   24.7854 C.ar    1  UNL1        0.0112
     19 C          -8.1261  -15.9648   23.4979 C.ar    1  UNL1        0.0008
     20 C         -10.7984  -16.5534   23.1064 C.3     1  UNL1        0.1132
     21 N         -13.2139  -17.4854   23.3230 N.3     1  UNL1       -0.3197
     22 C         -12.2816  -16.3294   23.1122 C.3     1  UNL1        0.0870
     23 H         -14.1781  -17.1537   23.2971 H       1  UNL1        0.1189
     24 H         -13.0257  -17.9129   24.2298 H       1  UNL1        0.1189
@<TRIPOS>BOND
     1    21    22    1
     2    22    20    1
     3    20     1    1
     4     1     2   am
     5     2     3    2
     6     2     4    1
     7     4     5   ar
     8     5     6   ar
     9     6     7   ar
    10     7     8   ar
    11     8     9   ar
    12     9    10    1
    13    10    11    1
    14    10    13    1
    15    13    14   ar
    16    14    15   ar
    17    15    16   ar
    18    16    17    1
    19    16    18   ar
    20    18    19   ar
    21    10     1    1
    22    19    13   ar
    23     9     4   ar
    24    21    23    1
    25    21    24    1
    26    11    12    1
@<TRIPOS>MOLECULE
*****
 24 26 0 0 0
SMALL
GASTEIGER

@<TRIPOS>ATOM
      1 N         -14.7133   -5.6734   19.0780 N.am    1  UNL1       -0.2494
      2 C         -16.1243   -5.6755   19.5872 C.2     1  UNL1        0.2509
      3 O         -16.8896   -4.4788   20.0690 O.2     1  UNL1       -0.2698
      4 C         -16.6356   -7.0846   19.5300 C.ar    1  UNL1        0.0538
      5 C         -17.9567   -7.6888   19.9034 C.ar    1  UNL1        0.0043
      6 C         -18.1828   -9.1617   19.7323 C.ar    1  UNL1        0.0001
      7 C         -17.0879  -10.0304   19.1878 C.ar    1  UNL1       -0.0002
      8 C         -15.7668   -9.4261   18.8144 C.ar    1  UNL1        0.0001
      9 C         -15.5406   -7.9532   18.9855 C.ar    1  UNL1        0.0281
     10 C         -14.3526   -7.0811   18.7061 C.3     1  UNL1        0.1915
     11 O         -13.7157   -8.3624   18.2562 O.3     1  UNL1       -0.3637
     12 H         -14.3475   -9.0911   18.3593 H       1  UNL1        0.2127
     13 C         -13.0315   -6.4767   18.3327 C.ar    1  UNL1        0.0238
     14 C         -11.9393   -6.3709   19.3554 C.ar    1  UNL1        0.0008
     15 C         -10.6182   -5.7666   18.9820 C.ar    1  UNL1        0.0112
     16 C         -10.3892   -5.2682   17.5859 C.ar    1  UNL1        0.0577
     17 CL         -9.0681   -4.6638   17.2125 Cl      1  UNL1       -0.0822
     18 C         -11.4814   -5.3740   16.5632 C.ar    1  UNL1        0.0112
     19 C         -12.8026   -5.9782   16.9366 C.ar    1  UNL1        0.0008
     20 C         -13.8200   -4.4741   18.9612 C.3     1  UNL1        0.1132
     21 N         -14.0890   -3.5534   21.3757 N.3     1  UNL1       -0.3197
     22 C         -13.9937   -3.3154   19.8978 C.3     1  UNL1        0.0870
     23 H         -14.2039   -2.6615   21.8570 H       1  UNL1        0.1189
     24 H         -13.2368   -4.0088   21.7024 H       1  UNL1        0.1189
@<TRIPOS>BOND
     1    21    22    1
     2    22    20    1
     3    20     1    1
     4     1     2   am
     5     2     3    2
     6     2     4    1
     7     4     5   ar
     8     5     6   ar
     9     6     7   ar
    10     7     8   ar
    11     8     9   ar
    12     9    10    1
    13    10    11    1
    14    10    13    1
    15    13    14   ar
    16    14    15   ar
    17    15    16   ar
    18    16    17    1
    19    16    18   ar
    20    18    19   ar
    21    10     1    1
    22    19    13   ar
    23     9     4   ar
    24    21    23    1
    25    21    24    1
    26    11    12    1
@<TRIPOS>MOLECULE
*****
 24 26 0 0 0
SMALL
GASTEIGER

@<TRIPOS>ATOM
      1 N          -7.2266  -17.0351   23.0648 N.am    1  UNL1       -0.2494
      2 C          -6.0252  -16.5034   23.7884 C.2     1  UNL1        0.2509
      3 O          -4.6111  -16.5316   23.2889 O.2     1  UNL1       -0.2698
      4 C          -6.4860  -15.9386   25.0994 C.ar    1  UNL1        0.0538
      5 C          -5.7443  -15.2815   26.2255 C.ar    1  UNL1        0.0043
      6 C          -6.4888  -14.8071   27.4381 C.ar    1  UNL1        0.0001
      7 C          -7.9752  -14.9898   27.5246 C.ar    1  UNL1       -0.0002
      8 C          -8.7169  -15.6468   26.3986 C.ar    1  UNL1        0.0001
      9 C          -7.9723  -16.1212   25.1859 C.ar    1  UNL1        0.0281
     10 C          -8.4300  -16.7989   23.9285 C.3     1  UNL1        0.1915
     11 O          -9.7885  -16.7000   24.5567 O.3     1  UNL1       -0.3637
     12 H          -9.7137  -16.2696   25.4228 H       1  UNL1        0.2127
     13 C          -9.1718  -17.4559   22.8023 C.ar    1  UNL1        0.0238
     14 C          -9.7063  -16.6273   21.6720 C.ar    1  UNL1        0.0008
     15 C         -10.4480  -17.2843   20.5458 C.ar    1  UNL1        0.0112
     16 C         -10.6552  -18.7699   20.5500 C.ar    1  UNL1        0.0577
     17 CL        -11.3970  -19.4269   19.4239 Cl      1  UNL1       -0.0822
     18 C         -10.1207  -19.5985   21.6804 C.ar    1  UNL1        0.0112
     19 C          -9.3790  -18.9415   22.8065 C.ar    1  UNL1        0.0008
     20 C          -7.2250  -17.6884   21.7145 C.3     1  UNL1        0.1132
     21 N          -4.9066  -18.5693   20.9407 N.3     1  UNL1       -0.3197
     22 C          -6.2973  -18.8338   21.4366 C.3     1  UNL1        0.0870
     23 H          -4.4193  -19.4552   20.8061 H       1  UNL1        0.1189
     24 H          -4.4031  -18.0049   21.6252 H       1  UNL1        0.1189
@<TRIPOS>BOND
     1    21    22    1
     2    22    20    1
     3    20     1    1
     4     1     2   am
     5     2     3    2
     6     2     4    1
     7     4     5   ar
     8     5     6   ar
     9     6     7   ar
    10     7     8   ar
    11     8     9   ar
    12     9    10    1
    13    10    11    1
    14    10    13    1
    15    13    14   ar
    16    14    15   ar
    17    15    16   ar
    18    16    17    1
    19    16    18   ar
    20    18    19   ar
    21    10     1    1
    22    19    13   ar
    23     9     4   ar
    24    21    23    1
    25    21    24    1
    26    11    12    1
@<TRIPOS>MOLECULE
*****
 24 26 0 0 0
SMALL
GASTEIGER

@<TRIPOS>ATOM
      1 N         -14.5228   -5.5405   18.6005 N.am    1  UNL1       -0.2494
      2 C         -13.5643   -4.3921   18.7120 C.2     1  UNL1        0.2509
      3 O         -13.9287   -2.9371   18.7192 O.2     1  UNL1       -0.2698
      4 C         -12.1774   -4.9542   18.8151 C.ar    1  UNL1        0.0538
      5 C         -10.8354   -4.2972   18.9464 C.ar    1  UNL1        0.0043
      6 C          -9.5947   -5.1361   19.0298 C.ar    1  UNL1        0.0001
      7 C          -9.6961   -6.6319   18.9820 C.ar    1  UNL1       -0.0002
      8 C         -11.0381   -7.2889   18.8507 C.ar    1  UNL1        0.0001
      9 C         -12.2788   -6.4500   18.7673 C.ar    1  UNL1        0.0281
     10 C         -13.7283   -6.8123   18.6346 C.3     1  UNL1        0.1915
     11 O         -13.2144   -8.2215   18.6414 O.3     1  UNL1       -0.3637
     12 H         -12.2479   -8.2128   18.7237 H       1  UNL1        0.2127
     13 C         -15.0705   -7.4693   18.5034 C.ar    1  UNL1        0.0238
     14 C         -15.8482   -7.8383   19.7318 C.ar    1  UNL1        0.0008
     15 C         -17.1902   -8.4953   19.6006 C.ar    1  UNL1        0.0112
     16 C         -17.7546   -8.7831   18.2410 C.ar    1  UNL1        0.0577
     17 CL        -19.0967   -9.4401   18.1097 Cl      1  UNL1       -0.0822
     18 C         -16.9769   -8.4141   17.0126 C.ar    1  UNL1        0.0112
     19 C         -15.6348   -7.7572   17.1438 C.ar    1  UNL1        0.0008
     20 C         -16.0140   -5.4355   18.4765 C.3     1  UNL1        0.1132
     21 N         -16.3594   -3.8204   20.4820 N.3     1  UNL1       -0.3197
     22 C         -16.7398   -4.2843   19.1072 C.3     1  UNL1        0.0870
     23 H         -16.9513   -3.0347   20.7516 H       1  UNL1        0.1189
     24 H         -15.3826   -3.5265   20.4835 H       1  UNL1        0.1189
@<TRIPOS>BOND
     1    21    22    1
     2    22    20    1
     3    20     1    1
     4     1     2   am
     5     2     3    2
     6     2     4    1
     7     4     5   ar
     8     5     6   ar
     9     6     7   ar
    10     7     8   ar
    11     8     9   ar
    12     9    10    1
    13    10    11    1
    14    10    13    1
    15    13    14   ar
    16    14    15   ar
    17    15    16   ar
    18    16    17    1
    19    16    18   ar
    20    18    19   ar
    21    10     1    1
    22    19    13   ar
    23     9     4   ar
    24    21    23    1
    25    21    24    1
    26    11    12    1
@<TRIPOS>MOLECULE
*****
 24 26 0 0 0
SMALL
GASTEIGER

@<TRIPOS>ATOM
      1 N          -7.2467  -17.5769   22.6207 N.am    1  UNL1       -0.2494
      2 C          -8.3838  -16.8295   23.2519 C.2     1  UNL1        0.2509
      3 O          -8.2607  -15.6940   24.2243 O.2     1  UNL1       -0.2698
      4 C          -9.6656  -17.4167   22.7399 C.ar    1  UNL1        0.0538
      5 C         -11.1022  -17.0838   23.0141 C.ar    1  UNL1        0.0043
      6 C         -12.1940  -17.8613   22.3408 C.ar    1  UNL1        0.0001
      7 C         -11.8491  -18.9718   21.3932 C.ar    1  UNL1       -0.0002
      8 C         -10.4125  -19.3047   21.1189 C.ar    1  UNL1        0.0001
      9 C          -9.3207  -18.5272   21.7923 C.ar    1  UNL1        0.0281
     10 C          -7.8258  -18.6262   21.7186 C.3     1  UNL1        0.1915
     11 O          -8.1045  -19.7450   20.7593 O.3     1  UNL1       -0.3637
     12 H          -9.0632  -19.8538   20.6591 H       1  UNL1        0.2127
     13 C          -6.3891  -18.9591   21.4444 C.ar    1  UNL1        0.0238
     14 C          -5.5594  -19.6275   22.5003 C.ar    1  UNL1        0.0008
     15 C          -4.1228  -19.9604   22.2261 C.ar    1  UNL1        0.0112
     16 C          -3.5158  -19.6249   20.8961 C.ar    1  UNL1        0.0577
     17 CL         -2.0791  -19.9578   20.6219 Cl      1  UNL1       -0.0822
     18 C          -4.3455  -18.9565   19.8402 C.ar    1  UNL1        0.0112
     19 C          -5.7822  -18.6236   20.1144 C.ar    1  UNL1        0.0008
     20 C          -5.7869  -17.3202   22.8511 C.3     1  UNL1        0.1132
     21 N          -5.3442  -14.8133   23.3697 N.3     1  UNL1       -0.3197
     22 C          -5.3558  -16.2480   23.8073 C.3     1  UNL1        0.0870
     23 H          -5.0267  -14.2253   24.1404 H       1  UNL1        0.1189
     24 H          -6.2859  -14.5341   23.0947 H       1  UNL1        0.1189
@<TRIPOS>BOND
     1    21    22    1
     2    22    20    1
     3    20     1    1
     4     1     2   am
     5     2     3    2
     6     2     4    1
     7     4     5   ar
     8     5     6   ar
     9     6     7   ar
    10     7     8   ar
    11     8     9   ar
    12     9    10    1
    13    10    11    1
    14    10    13    1
    15    13    14   ar
    16    14    15   ar
    17    15    16   ar
    18    16    17    1
    19    16    18   ar
    20    18    19   ar
    21    10     1    1
    22    19    13   ar
    23     9     4   ar
    24    21    23    1
    25    21    24    1
    26    11    12    1
@<TRIPOS>MOLECULE
*****
 24 26 0 0 0
SMALL
GASTEIGER

@<TRIPOS>ATOM
      1 N         -12.1138   -5.4332   18.6620 N.am    1  UNL1       -0.2494
      2 C         -11.0614   -4.3921   18.9046 C.2     1  UNL1        0.2509
      3 O          -9.6383   -4.6526   19.3007 O.2     1  UNL1       -0.2698
      4 C         -11.6820   -3.0449   18.6815 C.ar    1  UNL1        0.0538
      5 C         -11.1251   -1.6553   18.7756 C.ar    1  UNL1        0.0043
      6 C         -12.0042   -0.4741   18.4892 C.ar    1  UNL1        0.0001
      7 C         -13.4401   -0.6825   18.1087 C.ar    1  UNL1       -0.0002
      8 C         -13.9970   -2.0720   18.0146 C.ar    1  UNL1        0.0001
      9 C         -13.1179   -3.2532   18.3010 C.ar    1  UNL1        0.0281
     10 C         -13.3847   -4.7293   18.2890 C.3     1  UNL1        0.1915
     11 O         -14.7721   -4.3159   17.8962 O.3     1  UNL1       -0.3637
     12 H         -14.8187   -3.3485   17.8441 H       1  UNL1        0.2127
     13 C         -13.9416   -6.1189   18.1949 C.ar    1  UNL1        0.0238
     14 C         -13.7984   -6.8997   16.9221 C.ar    1  UNL1        0.0008
     15 C         -14.3552   -8.2893   16.8279 C.ar    1  UNL1        0.0112
     16 C         -15.0553   -8.8981   18.0065 C.ar    1  UNL1        0.0577
     17 CL        -15.6121  -10.2878   17.9124 Cl      1  UNL1       -0.0822
     18 C         -15.1985   -8.1174   19.2793 C.ar    1  UNL1        0.0112
     19 C         -14.6417   -6.7278   19.3735 C.ar    1  UNL1        0.0008
     20 C         -11.9278   -6.9174   18.7730 C.3     1  UNL1        0.1132
     21 N          -9.5433   -7.8503   19.2135 N.3     1  UNL1       -0.3197
     22 C         -10.6684   -7.5555   18.2662 C.3     1  UNL1        0.0870
     23 H          -8.7724   -8.2803   18.7024 H       1  UNL1        0.1189
     24 H          -9.8684   -8.4891   19.9392 H       1  UNL1        0.1189
@<TRIPOS>BOND
     1    21    22    1
     2    22    20    1
     3    20     1    1
     4     1     2   am
     5     2     3    2
     6     2     4    1
     7     4     5   ar
     8     5     6   ar
     9     6     7   ar
    10     7     8   ar
    11     8     9   ar
    12     9    10    1
    13    10    11    1
    14    10    13    1
    15    13    14   ar
    16    14    15   ar
    17    15    16   ar
    18    16    17    1
    19    16    18   ar
    20    18    19   ar
    21    10     1    1
    22    19    13   ar
    23     9     4   ar
    24    21    23    1
    25    21    24    1
    26    11    12    1
