@<TRIPOS>MOLECULE
*****
 32 36 0 0 0
SMALL
GASTEIGER

@<TRIPOS>ATOM
      1 C           1.7361    0.7427   21.8209 C.ar    1  UNL1        0.1074
      2 C           0.6372    0.5719   20.8143 C.ar    1  UNL1        0.0588
      3 S           1.2626    0.5025   19.4527 S.2     1  UNL1       -0.0508
      4 C           2.7480    0.6304   19.6177 C.ar    1  UNL1        0.1646
      5 N           3.0406    0.7789   21.0813 N.ar    1  UNL1       -0.2224
      6 C           2.4965    0.5585   25.7116 C.ar    1  UNL1        0.2416
      7 N           2.6714    0.4439   24.2263 N.ar    1  UNL1       -0.2089
      8 C           1.5611    0.8573   23.3062 C.ar    1  UNL1        0.1026
      9 C           0.2759    1.3852   23.8716 C.ar    1  UNL1        0.0224
     10 C           0.1009    1.4997   25.3569 C.ar    1  UNL1        0.0239
     11 C           1.2112    1.0864   26.2770 C.ar    1  UNL1        0.1189
     12 N           1.0363    1.2009   27.7623 N.ar    1  UNL1       -0.2826
     13 C           0.6418    0.0916   28.6917 C.ar    1  UNL1        0.1826
     14 N           0.5868    0.6500   30.0828 N.ar    1  UNL1       -0.2280
     15 C           0.9474    2.1043   30.0131 C.ar    1  UNL1        0.0786
     16 C           1.0177    3.0519   31.1739 C.3     1  UNL1        0.0538
     17 C           1.2251    2.4448   28.5790 C.ar    1  UNL1        0.0963
     18 C           3.7049   -1.2775   27.0968 C.3     1  UNL1        0.2543
     19 O           3.6068    0.1451   26.6316 O.3     1  UNL1       -0.4551
     20 N           3.7626    0.6130   18.5131 N.pl3   1  UNL1       -0.2786
     21 H           3.8989    1.4140   17.9571 H       1  UNL1        0.1555
     22 C           4.5697   -0.6249   18.2555 C.ar    1  UNL1        0.1276
     23 C           4.2310   -2.0106   18.7193 C.ar    1  UNL1        0.0244
     24 C           5.3091   -2.9365   18.2394 C.ar    1  UNL1        0.0773
     25 N           6.3142   -2.1231   17.4791 N.ar    1  UNL1       -0.1728
     26 N           5.8572   -0.6944   17.4890 N.ar    1  UNL1       -0.2354
     27 C           4.9704   -4.3222   18.7032 C.3     1  UNL1        0.0477
     28 C           3.6829   -4.2527   19.4697 C.3     1  UNL1        0.0112
     29 C           3.2259   -2.8241   19.4796 C.3     1  UNL1        0.0308
     30 C           6.5637    0.4617   16.8455 C.3     1  UNL1        0.1668
     31 C           7.7605    1.0740   17.5110 C.3     1  UNL1        0.2195
     32 F           8.8230    1.7342   16.6834 F       1  UNL1       -0.2321
@<TRIPOS>BOND
     1    18    19    1
     2    19     6    1
     3     6     7   ar
     4     7     8   ar
     5     8     1    1
     6     1     2   ar
     7     2     3   ar
     8     3     4   ar
     9     4    20    1
    10    20    22    1
    11    22    23   ar
    12    23    24   ar
    13    24    25   ar
    14    25    26   ar
    15    26    30    1
    16    30    31    1
    17    31    32    1
    18    24    27    1
    19    27    28    1
    20    28    29    1
    21     4     5   ar
    22     8     9   ar
    23     9    10   ar
    24    10    11   ar
    25    11    12    1
    26    12    13   ar
    27    13    14   ar
    28    14    15   ar
    29    15    16    1
    30    15    17   ar
    31    11     6   ar
    32    17    12   ar
    33     5     1   ar
    34    26    22   ar
    35    29    23    1
    36    20    21    1
@<TRIPOS>MOLECULE
*****
 32 36 0 0 0
SMALL
GASTEIGER

@<TRIPOS>ATOM
      1 C           0.1826    2.3457   19.1250 C.ar    1  UNL1        0.1074
      2 C          -0.1294    3.0600   17.8434 C.ar    1  UNL1        0.0588
      3 S          -1.0944    4.1661   18.1523 S.2     1  UNL1       -0.0508
      4 C          -1.3787    4.1353   19.6248 C.ar    1  UNL1        0.1646
      5 N          -0.5895    3.0103   20.2259 N.ar    1  UNL1       -0.2224
      6 C           2.9781   -0.3561   18.3281 C.ar    1  UNL1        0.2416
      7 N           2.0559    0.8168   18.1745 N.ar    1  UNL1       -0.2089
      8 C           1.1049    1.1728   19.2786 C.ar    1  UNL1        0.1026
      9 C           1.0762    0.3557   20.5363 C.ar    1  UNL1        0.0224
     10 C           1.9984   -0.8172   20.6899 C.ar    1  UNL1        0.0239
     11 C           2.9494   -1.1732   19.5858 C.ar    1  UNL1        0.1189
     12 N           3.8717   -2.3461   19.7395 N.ar    1  UNL1       -0.2826
     13 C           3.5651   -3.7644   19.3594 C.ar    1  UNL1        0.1826
     14 N           4.7664   -4.6015   19.6851 N.ar    1  UNL1       -0.2280
     15 C           5.8153   -3.7006   20.2666 C.ar    1  UNL1        0.0786
     16 C           7.1781   -4.1200   20.7326 C.3     1  UNL1        0.0538
     17 C           5.2624   -2.3068   20.3001 C.ar    1  UNL1        0.0963
     18 C           5.2587   -0.0243   17.1287 C.3     1  UNL1        0.2543
     19 O           3.9291   -0.7121   17.2241 O.3     1  UNL1       -0.4551
     20 N          -2.2920    5.0662   20.3661 N.pl3   1  UNL1       -0.2786
     21 H          -2.1926    6.0401   20.2617 H       1  UNL1        0.1555
     22 C          -3.3568    4.5132   21.2663 C.ar    1  UNL1        0.1276
     23 C          -3.1804    4.1216   22.7035 C.ar    1  UNL1        0.0244
     24 C          -4.4995    3.6211   23.2129 C.ar    1  UNL1        0.0773
     25 N          -5.4912    3.7034   22.0905 N.ar    1  UNL1       -0.1728
     26 N          -4.7850    4.2547   20.8874 N.ar    1  UNL1       -0.2354
     27 C          -4.3231    3.2295   24.6501 C.3     1  UNL1        0.0477
     28 C          -2.8950    3.4880   25.0289 C.3     1  UNL1        0.0112
     29 C          -2.1887    4.0393   23.8259 C.3     1  UNL1        0.0308
     30 C          -5.3991    4.5038   19.5418 C.3     1  UNL1        0.1668
     31 C          -5.8322    3.3480   18.6894 C.3     1  UNL1        0.2195
     32 F          -7.2892    3.0162   18.5597 F       1  UNL1       -0.2321
@<TRIPOS>BOND
     1    18    19    1
     2    19     6    1
     3     6     7   ar
     4     7     8   ar
     5     8     1    1
     6     1     2   ar
     7     2     3   ar
     8     3     4   ar
     9     4    20    1
    10    20    22    1
    11    22    23   ar
    12    23    24   ar
    13    24    25   ar
    14    25    26   ar
    15    26    30    1
    16    30    31    1
    17    31    32    1
    18    24    27    1
    19    27    28    1
    20    28    29    1
    21     4     5   ar
    22     8     9   ar
    23     9    10   ar
    24    10    11   ar
    25    11    12    1
    26    12    13   ar
    27    13    14   ar
    28    14    15   ar
    29    15    16    1
    30    15    17   ar
    31    11     6   ar
    32    17    12   ar
    33     5     1   ar
    34    26    22   ar
    35    29    23    1
    36    20    21    1
@<TRIPOS>MOLECULE
*****
 32 36 0 0 0
SMALL
GASTEIGER

@<TRIPOS>ATOM
      1 C           0.8157    1.7229   20.4463 C.ar    1  UNL1        0.1074
      2 C           2.1183    1.5467   21.1689 C.ar    1  UNL1        0.0588
      3 S           3.0699    0.8462   20.2449 S.2     1  UNL1       -0.0508
      4 C           2.3554    0.5894   18.9513 C.ar    1  UNL1        0.1646
      5 N           0.9623    1.1312   19.0757 N.ar    1  UNL1       -0.2224
      6 C          -2.8562    3.2108   20.6761 C.ar    1  UNL1        0.2416
      7 N          -1.6235    2.5576   20.1249 N.ar    1  UNL1       -0.2089
      8 C          -0.4170    2.3760   20.9974 C.ar    1  UNL1        0.1026
      9 C          -0.4432    2.8476   22.4212 C.ar    1  UNL1        0.0224
     10 C          -1.6759    3.5008   22.9724 C.ar    1  UNL1        0.0239
     11 C          -2.8824    3.6824   22.0999 C.ar    1  UNL1        0.1189
     12 N          -4.1151    4.3355   22.6510 N.ar    1  UNL1       -0.2826
     13 C          -4.2221    5.7521   23.1323 C.ar    1  UNL1        0.1826
     14 N          -5.6304    5.9788   23.5964 N.ar    1  UNL1       -0.2280
     15 C          -6.3937    4.7023   23.4020 C.ar    1  UNL1        0.0786
     16 C          -7.8397    4.4804   23.7336 C.3     1  UNL1        0.0538
     17 C          -5.4572    3.6867   22.8177 C.ar    1  UNL1        0.0963
     18 C          -3.9086    3.9363   18.4143 C.3     1  UNL1        0.2543
     19 O          -4.0628    3.3924   19.8036 O.3     1  UNL1       -0.4551
     20 N           2.9327   -0.0900   17.7449 N.pl3   1  UNL1       -0.2786
     21 H           2.5575    0.0890   16.8525 H       1  UNL1        0.1555
     22 C           4.0817   -1.0420   17.8983 C.ar    1  UNL1        0.1276
     23 C           4.0169   -2.4112   18.5075 C.ar    1  UNL1        0.0244
     24 C           5.3923   -3.0074   18.4552 C.ar    1  UNL1        0.0773
     25 N           6.3072   -2.0066   17.8137 N.ar    1  UNL1       -0.1728
     26 N           5.4972   -0.7919   17.4695 N.ar    1  UNL1       -0.2354
     27 C           5.3276   -4.3766   19.0644 C.3     1  UNL1        0.0477
     28 C           3.9121   -4.6266   19.4932 C.3     1  UNL1        0.0112
     29 C           3.1020   -3.4119   19.1490 C.3     1  UNL1        0.0308
     30 C           6.0122    0.4540   16.8120 C.3     1  UNL1        0.1668
     31 C           6.0347    1.7480   17.5705 C.3     1  UNL1        0.2195
     32 F           4.8084    2.6104   17.6187 F       1  UNL1       -0.2321
@<TRIPOS>BOND
     1    18    19    1
     2    19     6    1
     3     6     7   ar
     4     7     8   ar
     5     8     1    1
     6     1     2   ar
     7     2     3   ar
     8     3     4   ar
     9     4    20    1
    10    20    22    1
    11    22    23   ar
    12    23    24   ar
    13    24    25   ar
    14    25    26   ar
    15    26    30    1
    16    30    31    1
    17    31    32    1
    18    24    27    1
    19    27    28    1
    20    28    29    1
    21     4     5   ar
    22     8     9   ar
    23     9    10   ar
    24    10    11   ar
    25    11    12    1
    26    12    13   ar
    27    13    14   ar
    28    14    15   ar
    29    15    16    1
    30    15    17   ar
    31    11     6   ar
    32    17    12   ar
    33     5     1   ar
    34    26    22   ar
    35    29    23    1
    36    20    21    1
@<TRIPOS>MOLECULE
*****
 32 36 0 0 0
SMALL
GASTEIGER

@<TRIPOS>ATOM
      1 C           4.7808   -3.5454   21.0451 C.ar    1  UNL1        0.1074
      2 C           4.0780   -4.6612   20.3303 C.ar    1  UNL1        0.0588
      3 S           3.6578   -4.1559   18.9820 S.2     1  UNL1       -0.0508
      4 C           4.1009   -2.7278   18.8634 C.ar    1  UNL1        0.1646
      5 N           4.7949   -2.3505   20.1385 N.ar    1  UNL1       -0.2224
      6 C           7.0681   -4.6382   24.0986 C.ar    1  UNL1        0.2416
      7 N           6.4823   -4.5710   22.7193 N.ar    1  UNL1       -0.2089
      8 C           5.3666   -3.6127   22.4243 C.ar    1  UNL1        0.1026
      9 C           4.8368   -2.7216   23.5085 C.ar    1  UNL1        0.0224
     10 C           5.4226   -2.7889   24.8877 C.ar    1  UNL1        0.0239
     11 C           6.5382   -3.7472   25.1828 C.ar    1  UNL1        0.1189
     12 N           7.1241   -3.8145   26.5620 N.ar    1  UNL1       -0.2826
     13 C           8.4006   -3.1669   27.0102 C.ar    1  UNL1        0.1826
     14 N           8.6017   -3.4934   28.4604 N.ar    1  UNL1       -0.2280
     15 C           7.4494   -4.3427   28.9084 C.ar    1  UNL1        0.0786
     16 C           7.2460   -4.8964   30.2876 C.3     1  UNL1        0.0538
     17 C           6.5362   -4.5412   27.7352 C.ar    1  UNL1        0.0963
     18 C           7.8788   -6.9494   24.9650 C.3     1  UNL1        0.2543
     19 O           8.1837   -5.5965   24.3936 O.3     1  UNL1       -0.4551
     20 N           3.8874   -1.8338   17.6779 N.pl3   1  UNL1       -0.2786
     21 H           3.7164   -2.2251   16.7908 H       1  UNL1        0.1555
     22 C           3.9345   -0.3438   17.8440 C.ar    1  UNL1        0.1276
     23 C           2.7800    0.5388   18.2156 C.ar    1  UNL1        0.0244
     24 C           3.2763    1.9534   18.2690 C.ar    1  UNL1        0.0773
     25 N           4.7376    1.9449   17.9303 N.ar    1  UNL1       -0.1728
     26 N           5.1444    0.5252   17.6677 N.ar    1  UNL1       -0.2354
     27 C           2.1218    2.8360   18.6406 C.3     1  UNL1        0.0477
     28 C           0.9120    1.9670   18.8169 C.3     1  UNL1        0.0112
     29 C           1.3187    0.5473   18.5543 C.3     1  UNL1        0.0308
     30 C           6.5195    0.0568   17.2943 C.3     1  UNL1        0.1668
     31 C           7.2929   -0.8220   18.2322 C.3     1  UNL1        0.2195
     32 F           7.3006   -2.3086   18.0325 F       1  UNL1       -0.2321
@<TRIPOS>BOND
     1    18    19    1
     2    19     6    1
     3     6     7   ar
     4     7     8   ar
     5     8     1    1
     6     1     2   ar
     7     2     3   ar
     8     3     4   ar
     9     4    20    1
    10    20    22    1
    11    22    23   ar
    12    23    24   ar
    13    24    25   ar
    14    25    26   ar
    15    26    30    1
    16    30    31    1
    17    31    32    1
    18    24    27    1
    19    27    28    1
    20    28    29    1
    21     4     5   ar
    22     8     9   ar
    23     9    10   ar
    24    10    11   ar
    25    11    12    1
    26    12    13   ar
    27    13    14   ar
    28    14    15   ar
    29    15    16    1
    30    15    17   ar
    31    11     6   ar
    32    17    12   ar
    33     5     1   ar
    34    26    22   ar
    35    29    23    1
    36    20    21    1
@<TRIPOS>MOLECULE
*****
 32 36 0 0 0
SMALL
GASTEIGER

@<TRIPOS>ATOM
      1 C          -0.3982    2.7245   20.5737 C.ar    1  UNL1        0.1074
      2 C          -0.2803    4.2109   20.4102 C.ar    1  UNL1        0.0588
      3 S          -1.5923    4.8254   20.7986 S.2     1  UNL1       -0.0508
      4 C          -2.5211    3.7189   21.2021 C.ar    1  UNL1        0.1646
      5 N          -1.7832    2.4205   21.0631 N.ar    1  UNL1       -0.2224
      6 C           3.1527    1.1731   19.7171 C.ar    1  UNL1        0.2416
      7 N           2.0749    2.1788   19.9944 N.ar    1  UNL1       -0.2089
      8 C           0.6795    1.7188   20.2964 C.ar    1  UNL1        0.1026
      9 C           0.3619    0.2529   20.3212 C.ar    1  UNL1        0.0224
     10 C           1.4397   -0.7528   20.0439 C.ar    1  UNL1        0.0239
     11 C           2.8351   -0.2928   19.7419 C.ar    1  UNL1        0.1189
     12 N           3.9128   -1.2985   19.4646 N.ar    1  UNL1       -0.2826
     13 C           4.2316   -1.9039   18.1298 C.ar    1  UNL1        0.1826
     14 N           5.3768   -2.8550   18.3137 N.ar    1  UNL1       -0.2280
     15 C           5.7659   -2.8374   19.7622 C.ar    1  UNL1        0.0786
     16 C           6.8665   -3.6407   20.3894 C.3     1  UNL1        0.0538
     17 C           4.8611   -1.8755   20.4735 C.ar    1  UNL1        0.0963
     18 C           4.9853    1.8180   17.9922 C.3     1  UNL1        0.2543
     19 O           4.5481    1.6331   19.4151 O.3     1  UNL1       -0.4551
     20 N          -3.9391    3.8821   21.6636 N.pl3   1  UNL1       -0.2786
     21 H          -4.6589    4.0145   21.0052 H       1  UNL1        0.1555
     22 C          -4.2602    3.8436   23.1283 C.ar    1  UNL1        0.1276
     23 C          -3.2722    3.6678   24.2432 C.ar    1  UNL1        0.0244
     24 C          -4.0271    3.6897   25.5393 C.ar    1  UNL1        0.0773
     25 N          -5.4816    3.8789   25.2254 N.ar    1  UNL1       -0.1728
     26 N          -5.6257    3.9740   23.7353 N.ar    1  UNL1       -0.2354
     27 C          -3.0391    3.5139   26.6542 C.3     1  UNL1        0.0477
     28 C          -1.6736    3.3835   26.0472 C.3     1  UNL1        0.0112
     29 C          -1.8177    3.4786   24.5571 C.3     1  UNL1        0.0308
     30 C          -6.9098    4.1658   22.9842 C.3     1  UNL1        0.1668
     31 C          -8.1536    4.5739   23.7168 C.3     1  UNL1        0.2195
     32 F          -9.2588    3.5822   23.9285 F       1  UNL1       -0.2321
@<TRIPOS>BOND
     1    18    19    1
     2    19     6    1
     3     6     7   ar
     4     7     8   ar
     5     8     1    1
     6     1     2   ar
     7     2     3   ar
     8     3     4   ar
     9     4    20    1
    10    20    22    1
    11    22    23   ar
    12    23    24   ar
    13    24    25   ar
    14    25    26   ar
    15    26    30    1
    16    30    31    1
    17    31    32    1
    18    24    27    1
    19    27    28    1
    20    28    29    1
    21     4     5   ar
    22     8     9   ar
    23     9    10   ar
    24    10    11   ar
    25    11    12    1
    26    12    13   ar
    27    13    14   ar
    28    14    15   ar
    29    15    16    1
    30    15    17   ar
    31    11     6   ar
    32    17    12   ar
    33     5     1   ar
    34    26    22   ar
    35    29    23    1
    36    20    21    1
@<TRIPOS>MOLECULE
*****
 32 36 0 0 0
SMALL
GASTEIGER

@<TRIPOS>ATOM
      1 C           2.1737    2.2861   33.1148 C.ar    1  UNL1        0.1074
      2 C           3.3751    1.5926   33.6854 C.ar    1  UNL1        0.0588
      3 S           3.4469    1.9178   35.1480 S.2     1  UNL1       -0.0508
      4 C           2.2898    2.8123   35.4812 C.ar    1  UNL1        0.1646
      5 N           1.5029    3.0398   34.2247 N.ar    1  UNL1       -0.2224
      6 C           0.7026    0.9140   29.6938 C.ar    1  UNL1        0.2416
      7 N           1.1541    0.9653   31.1233 N.ar    1  UNL1       -0.2089
      8 C           1.7223    2.2347   31.6853 C.ar    1  UNL1        0.1026
      9 C           1.8390    3.4528   30.8176 C.ar    1  UNL1        0.0224
     10 C           1.3876    3.4015   29.3881 C.ar    1  UNL1        0.0239
     11 C           0.8194    2.1321   28.8261 C.ar    1  UNL1        0.1189
     12 N           0.3680    2.0808   27.3966 N.ar    1  UNL1       -0.2826
     13 C          -0.9481    2.5707   26.8695 C.ar    1  UNL1        0.1826
     14 N          -0.9761    2.3232   25.3904 N.ar    1  UNL1       -0.2280
     15 C           0.3227    1.6804   25.0033 C.ar    1  UNL1        0.0786
     16 C           0.7210    1.2610   23.6192 C.3     1  UNL1        0.0538
     17 C           1.1534    1.5305   26.2432 C.ar    1  UNL1        0.0963
     18 C          -1.3466   -0.4930   28.9384 C.3     1  UNL1        0.2543
     19 O           0.1344   -0.3554   29.1318 O.3     1  UNL1       -0.4551
     20 N           1.9748    3.3796   36.8337 N.pl3   1  UNL1       -0.2786
     21 H           1.0804    3.7480   37.0168 H       1  UNL1        0.1555
     22 C           3.0227    3.3856   37.9070 C.ar    1  UNL1        0.1276
     23 C           3.8873    4.5504   38.2887 C.ar    1  UNL1        0.0244
     24 C           4.7888    4.1125   39.4047 C.ar    1  UNL1        0.0773
     25 N           4.4814    2.6770   39.7127 N.ar    1  UNL1       -0.1728
     26 N           3.3899    2.2277   38.7872 N.ar    1  UNL1       -0.2354
     27 C           5.6534    5.2773   39.7863 C.3     1  UNL1        0.0477
     28 C           5.2862    6.4351   38.9062 C.3     1  UNL1        0.0112
     29 C           4.1947    5.9858   37.9806 C.3     1  UNL1        0.0308
     30 C           2.7738    0.8607   38.7485 C.3     1  UNL1        0.1668
     31 C           1.3751    0.6539   39.2497 C.3     1  UNL1        0.2195
     32 F           0.9583   -0.6866   39.7781 F       1  UNL1       -0.2321
@<TRIPOS>BOND
     1    18    19    1
     2    19     6    1
     3     6     7   ar
     4     7     8   ar
     5     8     1    1
     6     1     2   ar
     7     2     3   ar
     8     3     4   ar
     9     4    20    1
    10    20    22    1
    11    22    23   ar
    12    23    24   ar
    13    24    25   ar
    14    25    26   ar
    15    26    30    1
    16    30    31    1
    17    31    32    1
    18    24    27    1
    19    27    28    1
    20    28    29    1
    21     4     5   ar
    22     8     9   ar
    23     9    10   ar
    24    10    11   ar
    25    11    12    1
    26    12    13   ar
    27    13    14   ar
    28    14    15   ar
    29    15    16    1
    30    15    17   ar
    31    11     6   ar
    32    17    12   ar
    33     5     1   ar
    34    26    22   ar
    35    29    23    1
    36    20    21    1
@<TRIPOS>MOLECULE
*****
 32 36 0 0 0
SMALL
GASTEIGER

@<TRIPOS>ATOM
      1 C           3.6025    0.1165   32.9535 C.ar    1  UNL1        0.1074
      2 C           4.4565   -1.0594   33.3248 C.ar    1  UNL1        0.0588
      3 S           4.8924   -0.8843   34.7493 S.2     1  UNL1       -0.0508
      4 C           4.3079    0.3999   35.2584 C.ar    1  UNL1        0.1646
      5 N           3.5107    1.0184   34.1485 N.ar    1  UNL1       -0.2224
      6 C           2.5449   -0.3762   29.1603 C.ar    1  UNL1        0.2416
      7 N           3.1932   -0.6093   30.4927 N.ar    1  UNL1       -0.2089
      8 C           2.9542    0.3496   31.6211 C.ar    1  UNL1        0.1026
      9 C           2.0668    1.5417   31.4171 C.ar    1  UNL1        0.0224
     10 C           1.4185    1.7748   30.0847 C.ar    1  UNL1        0.0239
     11 C           1.6575    0.8159   28.9562 C.ar    1  UNL1        0.1189
     12 N           1.0092    1.0490   27.6238 N.ar    1  UNL1       -0.2826
     13 C          -0.4535    1.2782   27.3831 C.ar    1  UNL1        0.1826
     14 N          -0.6569    1.4647   25.9087 N.ar    1  UNL1       -0.2280
     15 C           0.6800    1.3507   25.2382 C.ar    1  UNL1        0.0786
     16 C           0.9414    1.4723   23.7662 C.3     1  UNL1        0.0538
     17 C           1.7097    1.0938   26.2982 C.ar    1  UNL1        0.0963
     18 C           4.1728   -1.5407   27.5039 C.3     1  UNL1        0.2543
     19 O           2.7840   -1.3351   28.0318 O.3     1  UNL1       -0.4551
     20 N           4.4888    0.9662   36.6356 N.pl3   1  UNL1       -0.2786
     21 H           5.2879    0.7346   37.1620 H       1  UNL1        0.1555
     22 C           3.4523    1.8854   37.2107 C.ar    1  UNL1        0.1276
     23 C           2.3937    1.5088   38.2044 C.ar    1  UNL1        0.0244
     24 C           1.5795    2.7332   38.5009 C.ar    1  UNL1        0.0773
     25 N           2.1349    3.8666   37.6904 N.ar    1  UNL1       -0.1728
     26 N           3.2924    3.3427   36.8929 N.ar    1  UNL1       -0.2354
     27 C           0.5210    2.3566   39.4947 C.3     1  UNL1        0.0477
     28 C           0.6810    0.8994   39.8124 C.3     1  UNL1        0.0112
     29 C           1.8384    0.3754   39.0150 C.3     1  UNL1        0.0308
     30 C           4.1408    4.1365   35.9444 C.3     1  UNL1        0.1668
     31 C           3.5644    4.6185   34.6461 C.3     1  UNL1        0.2195
     32 F           3.0996    6.0384   34.5130 F       1  UNL1       -0.2321
@<TRIPOS>BOND
     1    18    19    1
     2    19     6    1
     3     6     7   ar
     4     7     8   ar
     5     8     1    1
     6     1     2   ar
     7     2     3   ar
     8     3     4   ar
     9     4    20    1
    10    20    22    1
    11    22    23   ar
    12    23    24   ar
    13    24    25   ar
    14    25    26   ar
    15    26    30    1
    16    30    31    1
    17    31    32    1
    18    24    27    1
    19    27    28    1
    20    28    29    1
    21     4     5   ar
    22     8     9   ar
    23     9    10   ar
    24    10    11   ar
    25    11    12    1
    26    12    13   ar
    27    13    14   ar
    28    14    15   ar
    29    15    16    1
    30    15    17   ar
    31    11     6   ar
    32    17    12   ar
    33     5     1   ar
    34    26    22   ar
    35    29    23    1
    36    20    21    1
@<TRIPOS>MOLECULE
*****
 32 36 0 0 0
SMALL
GASTEIGER

@<TRIPOS>ATOM
      1 C           3.8826   -1.2985   23.6465 C.ar    1  UNL1        0.1074
      2 C           2.8919   -0.1749   23.5689 C.ar    1  UNL1        0.0588
      3 S           2.4547   -0.0403   22.1404 S.2     1  UNL1       -0.0508
      4 C           3.1752   -1.0807   21.3351 C.ar    1  UNL1        0.1646
      5 N           4.0576   -1.8583   22.2659 N.ar    1  UNL1       -0.2224
      6 C           6.4602   -3.1644   26.0180 C.ar    1  UNL1        0.2416
      7 N           5.7664   -2.6847   24.7776 N.ar    1  UNL1       -0.2089
      8 C           4.5764   -1.7782   24.8868 C.ar    1  UNL1        0.1026
      9 C           4.0801   -1.3512   26.2365 C.ar    1  UNL1        0.0224
     10 C           4.7739   -1.8309   27.4769 C.ar    1  UNL1        0.0239
     11 C           5.9640   -2.7374   27.3677 C.ar    1  UNL1        0.1189
     12 N           6.6578   -3.2171   28.6081 N.ar    1  UNL1       -0.2826
     13 C           7.5799   -2.4081   29.4713 C.ar    1  UNL1        0.1826
     14 N           8.0432   -3.2809   30.5997 N.ar    1  UNL1       -0.2280
     15 C           7.4075   -4.6294   30.4339 C.ar    1  UNL1        0.0786
     16 C           7.5952   -5.8101   31.3399 C.3     1  UNL1        0.0538
     17 C           6.5513   -4.5899   29.2030 C.ar    1  UNL1        0.0963
     18 C           9.0299   -3.4896   25.8164 C.3     1  UNL1        0.2543
     19 O           7.6503   -4.0709   25.9088 O.3     1  UNL1       -0.4551
     20 N           3.0374   -1.3042   19.8582 N.pl3   1  UNL1       -0.2786
     21 H           2.1453   -1.4264   19.4599 H       1  UNL1        0.1555
     22 C           4.2587   -1.3416   18.9881 C.ar    1  UNL1        0.1276
     23 C           4.8824   -0.1677   18.2932 C.ar    1  UNL1        0.0244
     24 C           6.0799   -0.6600   17.5358 C.ar    1  UNL1        0.0773
     25 N           6.1963   -2.1381   17.7627 N.ar    1  UNL1       -0.1728
     26 N           5.0708   -2.5594   18.6603 N.ar    1  UNL1       -0.2354
     27 C           6.7036    0.5139   16.8408 C.3     1  UNL1        0.0477
     28 C           5.8915    1.7317   17.1687 C.3     1  UNL1        0.0112
     29 C           4.7659    1.3105   18.0662 C.3     1  UNL1        0.0308
     30 C           4.8041   -3.9536   19.1450 C.3     1  UNL1        0.1668
     31 C           3.4120   -4.5104   19.0988 C.3     1  UNL1        0.2195
     32 F           3.0501   -5.6961   19.9430 F       1  UNL1       -0.2321
@<TRIPOS>BOND
     1    18    19    1
     2    19     6    1
     3     6     7   ar
     4     7     8   ar
     5     8     1    1
     6     1     2   ar
     7     2     3   ar
     8     3     4   ar
     9     4    20    1
    10    20    22    1
    11    22    23   ar
    12    23    24   ar
    13    24    25   ar
    14    25    26   ar
    15    26    30    1
    16    30    31    1
    17    31    32    1
    18    24    27    1
    19    27    28    1
    20    28    29    1
    21     4     5   ar
    22     8     9   ar
    23     9    10   ar
    24    10    11   ar
    25    11    12    1
    26    12    13   ar
    27    13    14   ar
    28    14    15   ar
    29    15    16    1
    30    15    17   ar
    31    11     6   ar
    32    17    12   ar
    33     5     1   ar
    34    26    22   ar
    35    29    23    1
    36    20    21    1
@<TRIPOS>MOLECULE
*****
 32 36 0 0 0
SMALL
GASTEIGER

@<TRIPOS>ATOM
      1 C           3.8645   -0.9377   26.7068 C.ar    1  UNL1        0.1074
      2 C           5.0463   -0.5610   27.5502 C.ar    1  UNL1        0.0588
      3 S           4.5801   -0.4321   28.9701 S.2     1  UNL1       -0.0508
      4 C           3.1102   -0.7292   29.0042 C.ar    1  UNL1        0.1646
      5 N           2.6680   -1.0417   27.6055 N.ar    1  UNL1       -0.2224
      6 C           2.9156   -0.6769   22.8622 C.ar    1  UNL1        0.2416
      7 N           2.9031   -0.4449   24.3440 N.ar    1  UNL1       -0.2089
      8 C           3.8770   -1.1697   25.2250 C.ar    1  UNL1        0.1026
      9 C           4.8635   -2.1267   24.6239 C.ar    1  UNL1        0.0224
     10 C           4.8761   -2.3587   23.1420 C.ar    1  UNL1        0.0239
     11 C           3.9021   -1.6338   22.2611 C.ar    1  UNL1        0.1189
     12 N           3.9146   -1.8659   20.7792 N.ar    1  UNL1       -0.2826
     13 C           3.8791   -3.2005   20.0955 C.ar    1  UNL1        0.1826
     14 N           3.9074   -2.9635   18.6146 N.ar    1  UNL1       -0.2280
     15 C           3.9604   -1.4824   18.3832 C.ar    1  UNL1        0.0786
     16 C           4.0017   -0.7995   17.0482 C.3     1  UNL1        0.0538
     17 C           3.9649   -0.8041   19.7209 C.ar    1  UNL1        0.0963
     18 C           1.0721    1.1276   22.5541 C.3     1  UNL1        0.2543
     19 O           1.9417    0.0480   21.9812 O.3     1  UNL1       -0.4551
     20 N           2.2361   -0.7162   30.2232 N.pl3   1  UNL1       -0.2786
     21 H           1.9697   -1.5639   30.6470 H       1  UNL1        0.1555
     22 C           1.7677    0.5885   30.7962 C.ar    1  UNL1        0.1276
     23 C           2.2239    1.1984   32.0885 C.ar    1  UNL1        0.0244
     24 C           1.4991    2.4992   32.2686 C.ar    1  UNL1        0.0773
     25 N           0.5949    2.6934   31.0876 N.ar    1  UNL1       -0.1728
     26 N           0.7609    1.5125   30.1776 N.ar    1  UNL1       -0.2354
     27 C           1.9553    3.1091   33.5609 C.3     1  UNL1        0.0477
     28 C           2.9621    2.1851   34.1795 C.3     1  UNL1        0.0112
     29 C           3.1281    1.0042   33.2695 C.3     1  UNL1        0.0308
     30 C           0.0457    1.2940   28.8774 C.3     1  UNL1        0.1668
     31 C          -1.1884    0.4425   28.8340 C.3     1  UNL1        0.2195
     32 F          -1.1000   -1.0226   29.1430 F       1  UNL1       -0.2321
@<TRIPOS>BOND
     1    18    19    1
     2    19     6    1
     3     6     7   ar
     4     7     8   ar
     5     8     1    1
     6     1     2   ar
     7     2     3   ar
     8     3     4   ar
     9     4    20    1
    10    20    22    1
    11    22    23   ar
    12    23    24   ar
    13    24    25   ar
    14    25    26   ar
    15    26    30    1
    16    30    31    1
    17    31    32    1
    18    24    27    1
    19    27    28    1
    20    28    29    1
    21     4     5   ar
    22     8     9   ar
    23     9    10   ar
    24    10    11   ar
    25    11    12    1
    26    12    13   ar
    27    13    14   ar
    28    14    15   ar
    29    15    16    1
    30    15    17   ar
    31    11     6   ar
    32    17    12   ar
    33     5     1   ar
    34    26    22   ar
    35    29    23    1
    36    20    21    1
