@<TRIPOS>MOLECULE
*****
 27 30 0 0 0
SMALL
GASTEIGER

@<TRIPOS>ATOM
      1 C         -10.2780  -19.2338   19.6534 C.3     1  UNL1        0.1305
      2 N          -8.8493  -19.3768   20.0872 N.ar    1  UNL1       -0.3238
      3 C          -7.8625  -20.3744   19.5571 C.ar    1  UNL1        0.0761
      4 C          -6.5598  -20.1615   20.2696 C.ar    1  UNL1        0.0229
      5 C          -6.7414  -19.0323   21.2401 C.ar    1  UNL1        0.0491
      6 C          -5.8012  -18.3829   22.2118 C.ar    1  UNL1        0.1335
      7 N          -6.2759  -17.2487   23.0709 N.ar    1  UNL1       -0.2288
      8 C          -7.6908  -16.7637   22.9582 C.ar    1  UNL1        0.1062
      9 C          -8.6311  -17.4131   21.9864 C.ar    1  UNL1        0.0885
     10 C          -8.1564  -18.5473   21.1274 C.ar    1  UNL1        0.0686
     11 C         -10.0461  -16.9280   21.8738 C.2     1  UNL1        0.2521
     12 O         -10.4086  -15.9070   20.8365 O.2     1  UNL1       -0.2698
     13 N         -11.0985  -17.4640   22.7985 N.am    1  UNL1       -0.2708
     14 C         -10.7360  -18.4850   23.8359 C.3     1  UNL1        0.1258
     15 C         -11.7885  -19.0210   24.7605 C.3     1  UNL1        0.1637
     16 O         -13.2034  -18.5359   24.6478 O.3     1  UNL1       -0.3501
     17 C         -13.5659  -17.5149   23.6105 C.3     1  UNL1        0.1637
     18 C         -12.5134  -16.9790   22.6858 C.3     1  UNL1        0.1258
     19 N          -4.3862  -18.8679   22.3245 N.pl3   1  UNL1       -0.2979
     20 H          -4.1811  -19.6675   22.8610 H       1  UNL1        0.1536
     21 C          -3.2837  -18.1346   21.6197 C.ar    1  UNL1        0.0502
     22 C          -2.5043  -17.0768   22.3434 C.ar    1  UNL1        0.0147
     23 C          -1.4018  -16.3435   21.6386 C.ar    1  UNL1        0.0021
     24 C          -1.0786  -16.6681   20.2101 C.ar    1  UNL1        0.0115
     25 C          -1.8580  -17.7258   19.4866 C.ar    1  UNL1        0.0589
     26 CL         -1.5349  -18.0504   18.0582 Cl      1  UNL1       -0.0822
     27 C          -2.9606  -18.4592   20.1914 C.ar    1  UNL1        0.0260
@<TRIPOS>BOND
     1     1     2    1
     2     2     3   ar
     3     3     4   ar
     4     4     5   ar
     5     5     6   ar
     6     6    19    1
     7    19    21    1
     8    21    22   ar
     9    22    23   ar
    10    23    24   ar
    11    24    25   ar
    12    25    26    1
    13    25    27   ar
    14     6     7   ar
    15     7     8   ar
    16     8     9   ar
    17     9    11    1
    18    11    12    2
    19    11    13   am
    20    13    14    1
    21    14    15    1
    22    15    16    1
    23    16    17    1
    24    17    18    1
    25     9    10   ar
    26    10     2   ar
    27    10     5   ar
    28    27    21   ar
    29    18    13    1
    30    19    20    1
@<TRIPOS>MOLECULE
*****
 27 30 0 0 0
SMALL
GASTEIGER

@<TRIPOS>ATOM
      1 C          -7.9917  -15.2621   24.3690 C.3     1  UNL1        0.1305
      2 N          -6.8224  -16.0692   23.8880 N.ar    1  UNL1       -0.3238
      3 C          -5.3857  -15.6385   23.9081 C.ar    1  UNL1        0.0761
      4 C          -4.5599  -16.7518   23.3350 C.ar    1  UNL1        0.0229
      5 C          -5.4862  -17.8707   22.9607 C.ar    1  UNL1        0.0491
      6 C          -5.2370  -19.2192   22.3528 C.ar    1  UNL1        0.1335
      7 N          -6.3862  -20.1458   22.0867 N.ar    1  UNL1       -0.2288
      8 C          -7.7844  -19.7239   22.4284 C.ar    1  UNL1        0.1062
      9 C          -8.0336  -18.3754   23.0364 C.ar    1  UNL1        0.0885
     10 C          -6.8844  -17.4488   23.3025 C.ar    1  UNL1        0.0686
     11 C          -9.4320  -17.9536   23.3781 C.2     1  UNL1        0.2521
     12 O          -9.8463  -17.8236   24.8138 O.2     1  UNL1       -0.2698
     13 N         -10.4158  -17.6618   22.2841 N.am    1  UNL1       -0.2708
     14 C         -10.0015  -17.7919   20.8484 C.3     1  UNL1        0.1258
     15 C         -10.9854  -17.5001   19.7544 C.3     1  UNL1        0.1637
     16 O         -12.3837  -17.0783   20.0963 O.3     1  UNL1       -0.3501
     17 C         -12.7981  -16.9483   21.5320 C.3     1  UNL1        0.1637
     18 C         -11.8141  -17.2400   22.6259 C.3     1  UNL1        0.1258
     19 N          -3.8387  -19.6411   22.0111 N.pl3   1  UNL1       -0.2979
     20 H          -3.4031  -20.3612   22.5218 H       1  UNL1        0.1536
     21 C          -3.1041  -18.9657   20.8911 C.ar    1  UNL1        0.0502
     22 C          -3.8090  -18.6759   19.5991 C.ar    1  UNL1        0.0147
     23 C          -3.0744  -18.0005   18.4792 C.ar    1  UNL1        0.0021
     24 C          -1.6349  -17.6150   18.6513 C.ar    1  UNL1        0.0115
     25 C          -0.9302  -17.9049   19.9432 C.ar    1  UNL1        0.0589
     26 CL          0.5092  -17.5194   20.1153 Cl      1  UNL1       -0.0822
     27 C          -1.6648  -18.5803   21.0632 C.ar    1  UNL1        0.0260
@<TRIPOS>BOND
     1     1     2    1
     2     2     3   ar
     3     3     4   ar
     4     4     5   ar
     5     5     6   ar
     6     6    19    1
     7    19    21    1
     8    21    22   ar
     9    22    23   ar
    10    23    24   ar
    11    24    25   ar
    12    25    26    1
    13    25    27   ar
    14     6     7   ar
    15     7     8   ar
    16     8     9   ar
    17     9    11    1
    18    11    12    2
    19    11    13   am
    20    13    14    1
    21    14    15    1
    22    15    16    1
    23    16    17    1
    24    17    18    1
    25     9    10   ar
    26    10     2   ar
    27    10     5   ar
    28    27    21   ar
    29    18    13    1
    30    19    20    1
@<TRIPOS>MOLECULE
*****
 27 30 0 0 0
SMALL
GASTEIGER

@<TRIPOS>ATOM
      1 C          -4.9685  -15.5429   23.8207 C.3     1  UNL1        0.1305
      2 N          -6.2477  -16.2747   23.5414 N.ar    1  UNL1       -0.3238
      3 C          -7.6321  -15.7666   23.8156 C.ar    1  UNL1        0.0761
      4 C          -8.6072  -16.8209   23.3824 C.ar    1  UNL1        0.0229
      5 C          -7.8254  -17.9807   22.8404 C.ar    1  UNL1        0.0491
      6 C          -8.2529  -19.3005   22.2702 C.ar    1  UNL1        0.1335
      7 N          -7.2222  -20.2827   21.7981 N.ar    1  UNL1       -0.2288
      8 C          -5.7641  -19.9452   21.8963 C.ar    1  UNL1        0.1062
      9 C          -5.3365  -18.6253   22.4666 C.ar    1  UNL1        0.0885
     10 C          -6.3672  -17.6430   22.9387 C.ar    1  UNL1        0.0686
     11 C          -3.8782  -18.2877   22.5648 C.2     1  UNL1        0.2521
     12 O          -3.2699  -17.9711   23.8989 O.2     1  UNL1       -0.2698
     13 N          -3.0284  -18.2669   21.3290 N.am    1  UNL1       -0.2708
     14 C          -3.6367  -18.5835   19.9949 C.3     1  UNL1        0.1258
     15 C          -2.7867  -18.5626   18.7592 C.3     1  UNL1        0.1637
     16 O          -1.3285  -18.2251   18.8575 O.3     1  UNL1       -0.3501
     17 C          -0.7202  -17.9084   20.1915 C.3     1  UNL1        0.1637
     18 C          -1.5701  -17.9293   21.4273 C.3     1  UNL1        0.1258
     19 N          -9.7111  -19.6381   22.1719 N.pl3   1  UNL1       -0.2979
     20 H         -10.0054  -20.5748   22.2435 H       1  UNL1        0.1536
     21 C         -10.7209  -18.5485   21.9646 C.ar    1  UNL1        0.0502
     22 C         -11.7775  -18.2983   22.9996 C.ar    1  UNL1        0.0147
     23 C         -12.7873  -17.2087   22.7923 C.ar    1  UNL1        0.0021
     24 C         -12.7406  -16.3692   21.5500 C.ar    1  UNL1        0.0115
     25 C         -11.6841  -16.6194   20.5151 C.ar    1  UNL1        0.0589
     26 CL        -11.6373  -15.7800   19.2728 Cl      1  UNL1       -0.0822
     27 C         -10.6742  -17.7091   20.7224 C.ar    1  UNL1        0.0260
@<TRIPOS>BOND
     1     1     2    1
     2     2     3   ar
     3     3     4   ar
     4     4     5   ar
     5     5     6   ar
     6     6    19    1
     7    19    21    1
     8    21    22   ar
     9    22    23   ar
    10    23    24   ar
    11    24    25   ar
    12    25    26    1
    13    25    27   ar
    14     6     7   ar
    15     7     8   ar
    16     8     9   ar
    17     9    11    1
    18    11    12    2
    19    11    13   am
    20    13    14    1
    21    14    15    1
    22    15    16    1
    23    16    17    1
    24    17    18    1
    25     9    10   ar
    26    10     2   ar
    27    10     5   ar
    28    27    21   ar
    29    18    13    1
    30    19    20    1
@<TRIPOS>MOLECULE
*****
 27 30 0 0 0
SMALL
GASTEIGER

@<TRIPOS>ATOM
      1 C          -8.5895  -15.5530   23.6298 C.3     1  UNL1        0.1305
      2 N          -7.4466  -16.4550   23.2689 N.ar    1  UNL1       -0.3238
      3 C          -6.0565  -16.3837   23.8280 C.ar    1  UNL1        0.0761
      4 C          -5.2439  -17.4713   23.1901 C.ar    1  UNL1        0.0229
      5 C          -6.1318  -18.2148   22.2367 C.ar    1  UNL1        0.0491
      6 C          -5.8766  -19.3825   21.3305 C.ar    1  UNL1        0.1335
      7 N          -6.9827  -19.9222   20.4730 N.ar    1  UNL1       -0.2288
      8 C          -8.3439  -19.2941   20.5217 C.ar    1  UNL1        0.1062
      9 C          -8.5992  -18.1263   21.4279 C.ar    1  UNL1        0.0885
     10 C          -7.4931  -17.5866   22.2854 C.ar    1  UNL1        0.0686
     11 C          -9.9605  -17.4982   21.4765 C.2     1  UNL1        0.2521
     12 O         -10.3573  -16.4870   20.4421 O.2     1  UNL1       -0.2698
     13 N         -10.9250  -17.8814   22.5595 N.am    1  UNL1       -0.2708
     14 C         -10.5283  -18.8926   23.5939 C.3     1  UNL1        0.1258
     15 C         -11.4929  -19.2757   24.6768 C.3     1  UNL1        0.1637
     16 O         -12.8542  -18.6476   24.7254 O.3     1  UNL1       -0.3501
     17 C         -13.2509  -17.6364   23.6909 C.3     1  UNL1        0.1637
     18 C         -12.2863  -17.2533   22.6080 C.3     1  UNL1        0.1258
     19 N          -4.5153  -20.0106   21.2819 N.pl3   1  UNL1       -0.2979
     20 H          -4.3809  -20.9218   21.6296 H       1  UNL1        0.1536
     21 C          -3.3588  -19.2505   20.7034 C.ar    1  UNL1        0.0502
     22 C          -2.0455  -19.2177   21.4274 C.ar    1  UNL1        0.0147
     23 C          -0.8890  -18.4575   20.8489 C.ar    1  UNL1        0.0021
     24 C          -1.0458  -17.7301   19.5464 C.ar    1  UNL1        0.0115
     25 C          -2.3590  -17.7629   18.8225 C.ar    1  UNL1        0.0589
     26 CL         -2.5159  -17.0356   17.5201 Cl      1  UNL1       -0.0822
     27 C          -3.5156  -18.5231   19.4009 C.ar    1  UNL1        0.0260
@<TRIPOS>BOND
     1     1     2    1
     2     2     3   ar
     3     3     4   ar
     4     4     5   ar
     5     5     6   ar
     6     6    19    1
     7    19    21    1
     8    21    22   ar
     9    22    23   ar
    10    23    24   ar
    11    24    25   ar
    12    25    26    1
    13    25    27   ar
    14     6     7   ar
    15     7     8   ar
    16     8     9   ar
    17     9    11    1
    18    11    12    2
    19    11    13   am
    20    13    14    1
    21    14    15    1
    22    15    16    1
    23    16    17    1
    24    17    18    1
    25     9    10   ar
    26    10     2   ar
    27    10     5   ar
    28    27    21   ar
    29    18    13    1
    30    19    20    1
@<TRIPOS>MOLECULE
*****
 27 30 0 0 0
SMALL
GASTEIGER

@<TRIPOS>ATOM
      1 C          -4.9785  -16.7305   23.5824 C.3     1  UNL1        0.1305
      2 N          -6.2841  -17.0444   22.9138 N.ar    1  UNL1       -0.3238
      3 C          -7.5739  -16.3031   23.1062 C.ar    1  UNL1        0.0761
      4 C          -8.6160  -16.9552   22.2467 C.ar    1  UNL1        0.0229
      5 C          -7.9703  -18.0995   21.5231 C.ar    1  UNL1        0.0491
      6 C          -8.5085  -19.0985   20.5420 C.ar    1  UNL1        0.1335
      7 N          -7.6054  -20.1525   19.9732 N.ar    1  UNL1       -0.2288
      8 C          -6.1643  -20.2076   20.3855 C.ar    1  UNL1        0.1062
      9 C          -5.6261  -19.2086   21.3666 C.ar    1  UNL1        0.0885
     10 C          -6.5291  -18.1546   21.9354 C.ar    1  UNL1        0.0686
     11 C          -4.1849  -19.2638   21.7788 C.2     1  UNL1        0.2521
     12 O          -3.8130  -19.7747   23.1392 O.2     1  UNL1       -0.2698
     13 N          -3.1157  -18.8080   20.8306 N.am    1  UNL1       -0.2708
     14 C          -3.4875  -18.2971   19.4702 C.3     1  UNL1        0.1258
     15 C          -2.4182  -17.8414   18.5221 C.3     1  UNL1        0.1637
     16 O          -0.9771  -17.8966   18.9344 O.3     1  UNL1       -0.3501
     17 C          -0.6052  -18.4075   20.2948 C.3     1  UNL1        0.1637
     18 C          -1.6745  -18.8632   21.2429 C.3     1  UNL1        0.1258
     19 N          -9.9497  -19.0434   20.1298 N.pl3   1  UNL1       -0.2979
     20 H         -10.2188  -19.3597   19.2372 H       1  UNL1        0.1536
     21 C         -10.9809  -18.5064   21.0775 C.ar    1  UNL1        0.0502
     22 C         -11.9202  -17.4258   20.6302 C.ar    1  UNL1        0.0147
     23 C         -12.9514  -16.8888   21.5779 C.ar    1  UNL1        0.0021
     24 C         -13.0433  -17.4324   22.9730 C.ar    1  UNL1        0.0115
     25 C         -12.1040  -18.5129   23.4203 C.ar    1  UNL1        0.0589
     26 CL        -12.1959  -19.0565   24.8153 Cl      1  UNL1       -0.0822
     27 C         -11.0727  -19.0500   22.4725 C.ar    1  UNL1        0.0260
@<TRIPOS>BOND
     1     1     2    1
     2     2     3   ar
     3     3     4   ar
     4     4     5   ar
     5     5     6   ar
     6     6    19    1
     7    19    21    1
     8    21    22   ar
     9    22    23   ar
    10    23    24   ar
    11    24    25   ar
    12    25    26    1
    13    25    27   ar
    14     6     7   ar
    15     7     8   ar
    16     8     9   ar
    17     9    11    1
    18    11    12    2
    19    11    13   am
    20    13    14    1
    21    14    15    1
    22    15    16    1
    23    16    17    1
    24    17    18    1
    25     9    10   ar
    26    10     2   ar
    27    10     5   ar
    28    27    21   ar
    29    18    13    1
    30    19    20    1
@<TRIPOS>MOLECULE
*****
 27 30 0 0 0
SMALL
GASTEIGER

@<TRIPOS>ATOM
      1 C          -8.9244  -16.6037   25.4591 C.3     1  UNL1        0.1305
      2 N          -8.0855  -16.7834   24.2287 N.ar    1  UNL1       -0.3238
      3 C          -6.9834  -15.8740   23.7723 C.ar    1  UNL1        0.0761
      4 C          -6.4182  -16.4327   22.5002 C.ar    1  UNL1        0.0229
      5 C          -7.1710  -17.6874   22.1702 C.ar    1  UNL1        0.0491
      6 C          -7.0514  -18.6606   21.0351 C.ar    1  UNL1        0.1335
      7 N          -7.9622  -19.8506   20.9682 N.ar    1  UNL1       -0.2288
      8 C          -8.9926  -20.0673   22.0364 C.ar    1  UNL1        0.1062
      9 C          -9.1123  -19.0941   23.1716 C.ar    1  UNL1        0.0885
     10 C          -8.2015  -17.9042   23.2385 C.ar    1  UNL1        0.0686
     11 C         -10.1428  -19.3110   24.2399 C.2     1  UNL1        0.2521
     12 O          -9.7944  -20.0961   25.4696 O.2     1  UNL1       -0.2698
     13 N         -11.5215  -18.7427   24.0784 N.am    1  UNL1       -0.2708
     14 C         -11.8698  -17.9576   22.8487 C.3     1  UNL1        0.1258
     15 C         -13.2486  -17.3893   22.6872 C.3     1  UNL1        0.1637
     16 O         -14.2790  -17.6062   23.7555 O.3     1  UNL1       -0.3501
     17 C         -13.9307  -18.3913   24.9853 C.3     1  UNL1        0.1637
     18 C         -12.5519  -18.9596   25.1467 C.3     1  UNL1        0.1258
     19 N          -6.0209  -18.4439   19.9668 N.pl3   1  UNL1       -0.2979
     20 H          -6.2948  -18.1276   19.0756 H       1  UNL1        0.1536
     21 C          -4.5732  -18.7090   20.2563 C.ar    1  UNL1        0.0502
     22 C          -4.1841  -19.5071   21.4653 C.ar    1  UNL1        0.0147
     23 C          -2.7364  -19.7722   21.7549 C.ar    1  UNL1        0.0021
     24 C          -1.6778  -19.2392   20.8354 C.ar    1  UNL1        0.0115
     25 C          -2.0669  -18.4411   19.6265 C.ar    1  UNL1        0.0589
     26 CL         -1.0084  -17.9080   18.7071 Cl      1  UNL1       -0.0822
     27 C          -3.5147  -18.1759   19.3369 C.ar    1  UNL1        0.0260
@<TRIPOS>BOND
     1     1     2    1
     2     2     3   ar
     3     3     4   ar
     4     4     5   ar
     5     5     6   ar
     6     6    19    1
     7    19    21    1
     8    21    22   ar
     9    22    23   ar
    10    23    24   ar
    11    24    25   ar
    12    25    26    1
    13    25    27   ar
    14     6     7   ar
    15     7     8   ar
    16     8     9   ar
    17     9    11    1
    18    11    12    2
    19    11    13   am
    20    13    14    1
    21    14    15    1
    22    15    16    1
    23    16    17    1
    24    17    18    1
    25     9    10   ar
    26    10     2   ar
    27    10     5   ar
    28    27    21   ar
    29    18    13    1
    30    19    20    1
@<TRIPOS>MOLECULE
*****
 27 30 0 0 0
SMALL
GASTEIGER

@<TRIPOS>ATOM
      1 C           6.0815    1.3055   17.7857 C.3     1  UNL1        0.1305
      2 N           4.9059    2.1741   18.1227 N.ar    1  UNL1       -0.3238
      3 C           4.9514    3.6443   18.4166 C.ar    1  UNL1        0.0761
      4 C           3.5521    4.1038   18.7005 C.ar    1  UNL1        0.0229
      5 C           2.6417    2.9176   18.5820 C.ar    1  UNL1        0.0491
      6 C           1.1589    2.7694   18.7532 C.ar    1  UNL1        0.1335
      7 N           0.5128    1.4285   18.5672 N.ar    1  UNL1       -0.2288
      8 C           1.3494    0.2359   18.2101 C.ar    1  UNL1        0.1062
      9 C           2.8323    0.3841   18.0389 C.ar    1  UNL1        0.0885
     10 C           3.4784    1.7250   18.2249 C.ar    1  UNL1        0.0686
     11 C           3.6690   -0.8086   17.6818 C.2     1  UNL1        0.2521
     12 O           4.0166   -1.0786   16.2478 O.2     1  UNL1       -0.2698
     13 N           4.1580   -1.7312   18.7586 N.am    1  UNL1       -0.2708
     14 C           3.8104   -1.4613   20.1926 C.3     1  UNL1        0.1258
     15 C           4.2995   -2.3839   21.2694 C.3     1  UNL1        0.1637
     16 O           5.1362   -3.5766   20.9121 O.3     1  UNL1       -0.3501
     17 C           5.4837   -3.8466   19.4782 C.3     1  UNL1        0.1637
     18 C           4.9947   -2.9239   18.4014 C.3     1  UNL1        0.1258
     19 N           0.3221    3.9620   19.1103 N.pl3   1  UNL1       -0.2979
     20 H           0.7505    4.7778   19.4571 H       1  UNL1        0.1536
     21 C          -1.1672    3.9117   18.9390 C.ar    1  UNL1        0.0502
     22 C          -1.7795    4.2196   17.6047 C.ar    1  UNL1        0.0147
     23 C          -3.2688    4.1693   17.4334 C.ar    1  UNL1        0.0021
     24 C          -4.1459    3.8111   18.5965 C.ar    1  UNL1        0.0115
     25 C          -3.5336    3.5032   19.9307 C.ar    1  UNL1        0.0589
     26 CL         -4.4106    3.1451   21.0937 Cl      1  UNL1       -0.0822
     27 C          -2.0442    3.5535   20.1020 C.ar    1  UNL1        0.0260
@<TRIPOS>BOND
     1     1     2    1
     2     2     3   ar
     3     3     4   ar
     4     4     5   ar
     5     5     6   ar
     6     6    19    1
     7    19    21    1
     8    21    22   ar
     9    22    23   ar
    10    23    24   ar
    11    24    25   ar
    12    25    26    1
    13    25    27   ar
    14     6     7   ar
    15     7     8   ar
    16     8     9   ar
    17     9    11    1
    18    11    12    2
    19    11    13   am
    20    13    14    1
    21    14    15    1
    22    15    16    1
    23    16    17    1
    24    17    18    1
    25     9    10   ar
    26    10     2   ar
    27    10     5   ar
    28    27    21   ar
    29    18    13    1
    30    19    20    1
@<TRIPOS>MOLECULE
*****
 27 30 0 0 0
SMALL
GASTEIGER

@<TRIPOS>ATOM
      1 C           6.3026    1.0014   18.7670 C.3     1  UNL1        0.1305
      2 N           6.9553   -0.1520   19.4695 N.ar    1  UNL1       -0.3238
      3 C           8.2667   -0.1136   20.1967 C.ar    1  UNL1        0.0761
      4 C           8.5331   -1.4842   20.7449 C.ar    1  UNL1        0.0229
      5 C           7.3863   -2.3697   20.3565 C.ar    1  UNL1        0.0491
      6 C           7.1040   -3.8194   20.6188 C.ar    1  UNL1        0.1335
      7 N           5.8466   -4.4457   20.0928 N.ar    1  UNL1       -0.2288
      8 C           4.8715   -3.6224   19.3047 C.ar    1  UNL1        0.1062
      9 C           5.1538   -2.1726   19.0424 C.ar    1  UNL1        0.0885
     10 C           6.4112   -1.5463   19.5683 C.ar    1  UNL1        0.0686
     11 C           4.1786   -1.3493   18.2542 C.2     1  UNL1        0.2521
     12 O           4.3264   -1.2326   16.7661 O.2     1  UNL1       -0.2698
     13 N           3.0557   -0.6428   18.9541 N.am    1  UNL1       -0.2708
     14 C           2.9079   -0.7596   20.4423 C.3     1  UNL1        0.1258
     15 C           1.7849   -0.0530   21.1421 C.3     1  UNL1        0.1637
     16 O           0.8098    0.7703   20.3538 O.3     1  UNL1       -0.3501
     17 C           0.9576    0.8870   18.8657 C.3     1  UNL1        0.1637
     18 C           2.0805    0.1804   18.1659 C.3     1  UNL1        0.1258
     19 N           8.0791   -4.6427   21.4069 N.pl3   1  UNL1       -0.2979
     20 H           8.9041   -4.9702   20.9810 H       1  UNL1        0.1536
     21 C           7.7972   -4.9673   22.8440 C.ar    1  UNL1        0.0502
     22 C           6.9807   -4.0260   23.6792 C.ar    1  UNL1        0.0147
     23 C           6.6989   -4.3506   25.1163 C.ar    1  UNL1        0.0021
     24 C           7.2335   -5.6163   25.7182 C.ar    1  UNL1        0.0115
     25 C           8.0499   -6.5574   24.8830 C.ar    1  UNL1        0.0589
     26 CL          8.5845   -7.8231   25.4849 Cl      1  UNL1       -0.0822
     27 C           8.3318   -6.2330   23.4459 C.ar    1  UNL1        0.0260
@<TRIPOS>BOND
     1     1     2    1
     2     2     3   ar
     3     3     4   ar
     4     4     5   ar
     5     5     6   ar
     6     6    19    1
     7    19    21    1
     8    21    22   ar
     9    22    23   ar
    10    23    24   ar
    11    24    25   ar
    12    25    26    1
    13    25    27   ar
    14     6     7   ar
    15     7     8   ar
    16     8     9   ar
    17     9    11    1
    18    11    12    2
    19    11    13   am
    20    13    14    1
    21    14    15    1
    22    15    16    1
    23    16    17    1
    24    17    18    1
    25     9    10   ar
    26    10     2   ar
    27    10     5   ar
    28    27    21   ar
    29    18    13    1
    30    19    20    1
@<TRIPOS>MOLECULE
*****
 27 30 0 0 0
SMALL
GASTEIGER

@<TRIPOS>ATOM
      1 C           8.8878   -0.5619   31.7435 C.3     1  UNL1        0.1305
      2 N           8.2130   -0.3364   33.0640 N.ar    1  UNL1       -0.3238
      3 C           8.8372    0.2844   34.2785 C.ar    1  UNL1        0.0761
      4 C           7.8055    0.3123   35.3670 C.ar    1  UNL1        0.0229
      5 C           6.5436   -0.2913   34.8252 C.ar    1  UNL1        0.0491
      6 C           5.1978   -0.5276   35.4440 C.ar    1  UNL1        0.1335
      7 N           4.1039   -1.1648   34.6395 N.ar    1  UNL1       -0.2288
      8 C           4.3557   -1.5657   33.2163 C.ar    1  UNL1        0.1062
      9 C           5.7016   -1.3294   32.5974 C.ar    1  UNL1        0.0885
     10 C           6.7955   -0.6922   33.4019 C.ar    1  UNL1        0.0686
     11 C           5.9534   -1.7303   31.1740 C.2     1  UNL1        0.2521
     12 O           5.7721   -0.7310   30.0701 O.2     1  UNL1       -0.2698
     13 N           6.3865   -3.1304   30.8546 N.am    1  UNL1       -0.2708
     14 C           6.5677   -4.1297   31.9585 C.3     1  UNL1        0.1258
     15 C           7.0008   -5.5298   31.6391 C.3     1  UNL1        0.1637
     16 O           7.2526   -5.9307   30.2157 O.3     1  UNL1       -0.3501
     17 C           7.0713   -4.9314   29.1118 C.3     1  UNL1        0.1637
     18 C           6.6382   -3.5313   29.4313 C.3     1  UNL1        0.1258
     19 N           4.9459   -0.1267   36.8673 N.pl3   1  UNL1       -0.2979
     20 H           5.4067   -0.5960   37.5999 H       1  UNL1        0.1536
     21 C           3.9919    0.9894   37.1746 C.ar    1  UNL1        0.0502
     22 C           4.0801    2.2812   36.4172 C.ar    1  UNL1        0.0147
     23 C           3.1261    3.3972   36.7245 C.ar    1  UNL1        0.0021
     24 C           2.0840    3.2214   37.7891 C.ar    1  UNL1        0.0115
     25 C           1.9959    1.9297   38.5463 C.ar    1  UNL1        0.0589
     26 CL          0.9539    1.7539   39.6108 Cl      1  UNL1       -0.0822
     27 C           2.9499    0.8136   38.2391 C.ar    1  UNL1        0.0260
@<TRIPOS>BOND
     1     1     2    1
     2     2     3   ar
     3     3     4   ar
     4     4     5   ar
     5     5     6   ar
     6     6    19    1
     7    19    21    1
     8    21    22   ar
     9    22    23   ar
    10    23    24   ar
    11    24    25   ar
    12    25    26    1
    13    25    27   ar
    14     6     7   ar
    15     7     8   ar
    16     8     9   ar
    17     9    11    1
    18    11    12    2
    19    11    13   am
    20    13    14    1
    21    14    15    1
    22    15    16    1
    23    16    17    1
    24    17    18    1
    25     9    10   ar
    26    10     2   ar
    27    10     5   ar
    28    27    21   ar
    29    18    13    1
    30    19    20    1
