@<TRIPOS>MOLECULE
*****
 29 32 0 0 0
SMALL
GASTEIGER

@<TRIPOS>ATOM
      1 N          -6.0388  -18.1831   22.2398 N.ar    1  UNL1       -0.2880
      2 C          -7.0896  -19.2487   22.1378 C.ar    1  UNL1        0.0847
      3 C          -8.2659  -18.8201   22.9640 C.ar    1  UNL1        0.0595
      4 C          -7.9421  -17.4897   23.5766 C.ar    1  UNL1        0.0391
      5 C          -8.7228  -16.5860   24.4841 C.ar    1  UNL1        0.0047
      6 C          -8.1270  -15.2885   24.9440 C.ar    1  UNL1        0.0208
      7 C          -6.7505  -14.8948   24.4964 C.ar    1  UNL1        0.1005
      8 N          -5.9699  -15.7986   23.5889 N.ar    1  UNL1       -0.2264
      9 C          -6.5656  -17.0961   23.1290 C.ar    1  UNL1        0.1478
     10 C          -2.0124  -18.2380   20.2308 C.ar    1  UNL1        0.0163
     11 C          -3.2567  -18.4602   19.4231 C.ar    1  UNL1        0.0028
     12 C          -4.5988  -18.4419   20.0928 C.ar    1  UNL1        0.0199
     13 C          -4.6967  -18.2014   21.5701 C.ar    1  UNL1        0.0927
     14 C          -3.4523  -17.9793   22.3778 C.ar    1  UNL1        0.1562
     15 F          -3.5501  -17.7388   23.8552 F       1  UNL1       -0.2026
     16 C          -2.1102  -17.9976   21.7082 C.ar    1  UNL1        0.0323
     17 O          -0.5678  -18.0368   18.0808 O.co2   1  UNL1       -0.5446
     18 C          -0.6703  -18.2563   19.5611 C.2     1  UNL1        0.0729
     19 O           0.5692  -18.4941   20.3717 O.co2   1  UNL1       -0.5446
     20 C          -9.5420  -19.5873   23.1458 C.2     1  UNL1        0.1987
     21 O          -9.5081  -20.9763   23.7107 O.2     1  UNL1       -0.2865
     22 C         -10.8522  -18.9652   22.7626 C.ar    1  UNL1        0.0601
     23 C         -11.1648  -18.7044   21.3189 C.ar    1  UNL1        0.0615
     24 CL        -10.1673  -19.0656   20.2584 Cl      1  UNL1       -0.0821
     25 C         -12.4748  -18.0824   20.9357 C.ar    1  UNL1        0.0115
     26 C         -13.4722  -17.7212   21.9962 C.ar    1  UNL1        0.0017
     27 C         -13.1596  -17.9821   23.4399 C.ar    1  UNL1        0.0115
     28 C         -11.8496  -18.6041   23.8231 C.ar    1  UNL1        0.0615
     29 CL        -11.5369  -18.8649   25.2668 Cl      1  UNL1       -0.0821
@<TRIPOS>UNITY_ATOM_ATTR
17 1
charge -1
@<TRIPOS>BOND
     1    17    18   ar
     2    18    19   ar
     3    18    10    1
     4    10    11   ar
     5    11    12   ar
     6    12    13   ar
     7    13     1    1
     8     1     2   ar
     9     2     3   ar
    10     3    20    1
    11    20    21    2
    12    20    22    1
    13    22    23   ar
    14    23    24    1
    15    23    25   ar
    16    25    26   ar
    17    26    27   ar
    18    27    28   ar
    19    28    29    1
    20     3     4   ar
    21     4     5   ar
    22     5     6   ar
    23     6     7   ar
    24     7     8   ar
    25     8     9   ar
    26    13    14   ar
    27    14    15    1
    28    14    16   ar
    29    16    10   ar
    30     9     1   ar
    31    28    22   ar
    32     9     4   ar
@<TRIPOS>MOLECULE
*****
 29 32 0 0 0
SMALL
GASTEIGER

@<TRIPOS>ATOM
      1 N          -6.0352  -18.1903   22.2450 N.ar    1  UNL1       -0.2880
      2 C          -7.0860  -19.2554   22.1387 C.ar    1  UNL1        0.0847
      3 C          -8.2630  -18.8293   22.9653 C.ar    1  UNL1        0.0595
      4 C          -7.9396  -17.5010   23.5824 C.ar    1  UNL1        0.0391
      5 C          -8.7209  -16.6000   24.4922 C.ar    1  UNL1        0.0047
      6 C          -8.1254  -15.3041   24.9567 C.ar    1  UNL1        0.0208
      7 C          -6.7485  -14.9091   24.5115 C.ar    1  UNL1        0.1005
      8 N          -5.9672  -15.8101   23.6017 N.ar    1  UNL1       -0.2264
      9 C          -6.5627  -17.1060   23.1372 C.ar    1  UNL1        0.1478
     10 C          -2.0072  -18.2391   20.2392 C.ar    1  UNL1        0.0163
     11 C          -3.2507  -18.4606   19.4301 C.ar    1  UNL1        0.0028
     12 C          -4.5934  -18.4443   20.0987 C.ar    1  UNL1        0.0199
     13 C          -4.6926  -18.2066   21.5763 C.ar    1  UNL1        0.0927
     14 C          -3.4490  -17.9851   22.3855 C.ar    1  UNL1        0.1562
     15 F          -3.5481  -17.7474   23.8632 F       1  UNL1       -0.2026
     16 C          -2.1063  -18.0014   21.7169 C.ar    1  UNL1        0.0323
     17 O          -0.5616  -18.0404   18.0896 O.co2   1  UNL1       -0.5446
     18 C          -0.6646  -18.2554   19.5705 C.2     1  UNL1        0.0729
     19 O           0.5751  -18.4867   20.3828 O.co2   1  UNL1       -0.5446
     20 C          -9.5393  -19.5969   23.1435 C.2     1  UNL1        0.1987
     21 O          -9.5061  -20.9877   23.7043 O.2     1  UNL1       -0.2865
     22 C         -10.8491  -18.9736   22.7610 C.ar    1  UNL1        0.0601
     23 C         -11.8478  -18.6164   23.8216 C.ar    1  UNL1        0.0615
     24 CL        -11.5369  -18.8824   25.2647 Cl      1  UNL1       -0.0821
     25 C         -13.1575  -17.9931   23.4391 C.ar    1  UNL1        0.0115
     26 C         -13.4684  -17.7271   21.9960 C.ar    1  UNL1        0.0017
     27 C         -12.4696  -18.0844   20.9354 C.ar    1  UNL1        0.0115
     28 C         -11.1600  -18.7076   21.3179 C.ar    1  UNL1        0.0615
     29 CL        -10.1612  -19.0649   20.2573 Cl      1  UNL1       -0.0821
@<TRIPOS>UNITY_ATOM_ATTR
17 1
charge -1
@<TRIPOS>BOND
     1    17    18   ar
     2    18    19   ar
     3    18    10    1
     4    10    11   ar
     5    11    12   ar
     6    12    13   ar
     7    13     1    1
     8     1     2   ar
     9     2     3   ar
    10     3    20    1
    11    20    21    2
    12    20    22    1
    13    22    23   ar
    14    23    24    1
    15    23    25   ar
    16    25    26   ar
    17    26    27   ar
    18    27    28   ar
    19    28    29    1
    20     3     4   ar
    21     4     5   ar
    22     5     6   ar
    23     6     7   ar
    24     7     8   ar
    25     8     9   ar
    26    13    14   ar
    27    14    15    1
    28    14    16   ar
    29    16    10   ar
    30     9     1   ar
    31    28    22   ar
    32     9     4   ar
@<TRIPOS>MOLECULE
*****
 29 32 0 0 0
SMALL
GASTEIGER

@<TRIPOS>ATOM
      1 N          -6.0128  -18.1785   21.6419 N.ar    1  UNL1       -0.2880
      2 C          -6.5824  -17.5363   22.8719 C.ar    1  UNL1        0.0847
      3 C          -8.0639  -17.7710   22.8735 C.ar    1  UNL1        0.0595
      4 C          -8.4099  -18.5584   21.6446 C.ar    1  UNL1        0.0391
      5 C          -9.7154  -19.0785   21.1203 C.ar    1  UNL1        0.0047
      6 C          -9.7533  -19.8505   19.8348 C.ar    1  UNL1        0.0208
      7 C          -8.4855  -20.1024   19.0736 C.ar    1  UNL1        0.1005
      8 N          -7.1800  -19.5823   19.5979 N.ar    1  UNL1       -0.2264
      9 C          -7.1422  -18.8103   20.8834 C.ar    1  UNL1        0.1478
     10 C          -1.6766  -18.2056   20.4388 C.ar    1  UNL1        0.0163
     11 C          -2.7441  -18.3882   19.4010 C.ar    1  UNL1        0.0028
     12 C          -4.1895  -18.3792   19.8020 C.ar    1  UNL1        0.0199
     13 C          -4.5674  -18.1876   21.2409 C.ar    1  UNL1        0.0927
     14 C          -3.4999  -18.0049   22.2788 C.ar    1  UNL1        0.1562
     15 F          -3.8777  -17.8132   23.7177 F       1  UNL1       -0.2026
     16 C          -2.0545  -18.0139   21.8777 C.ar    1  UNL1        0.0323
     17 O           0.5515  -16.9352   20.0253 O.co2   1  UNL1       -0.5446
     18 C          -0.2312  -18.2146   20.0377 C.2     1  UNL1        0.0729
     19 O           0.4312  -19.5030   19.6491 O.co2   1  UNL1       -0.5446
     20 C          -9.0300  -17.3010   23.9204 C.2     1  UNL1        0.1987
     21 O          -8.5242  -16.6073   25.1504 O.2     1  UNL1       -0.2865
     22 C         -10.5019  -17.5246   23.7372 C.ar    1  UNL1        0.0601
     23 C         -11.1913  -18.6288   24.4824 C.ar    1  UNL1        0.0615
     24 CL        -10.4086  -19.5095   25.4108 Cl      1  UNL1       -0.0821
     25 C         -12.6631  -18.8525   24.2992 C.ar    1  UNL1        0.0115
     26 C         -13.4457  -17.9718   23.3708 C.ar    1  UNL1        0.0017
     27 C         -12.7563  -16.8675   22.6255 C.ar    1  UNL1        0.0115
     28 C         -11.2845  -16.6439   22.8087 C.ar    1  UNL1        0.0615
     29 CL        -10.5951  -15.5396   22.0635 Cl      1  UNL1       -0.0821
@<TRIPOS>UNITY_ATOM_ATTR
17 1
charge -1
@<TRIPOS>BOND
     1    17    18   ar
     2    18    19   ar
     3    18    10    1
     4    10    11   ar
     5    11    12   ar
     6    12    13   ar
     7    13     1    1
     8     1     2   ar
     9     2     3   ar
    10     3    20    1
    11    20    21    2
    12    20    22    1
    13    22    23   ar
    14    23    24    1
    15    23    25   ar
    16    25    26   ar
    17    26    27   ar
    18    27    28   ar
    19    28    29    1
    20     3     4   ar
    21     4     5   ar
    22     5     6   ar
    23     6     7   ar
    24     7     8   ar
    25     8     9   ar
    26    13    14   ar
    27    14    15    1
    28    14    16   ar
    29    16    10   ar
    30     9     1   ar
    31    28    22   ar
    32     9     4   ar
@<TRIPOS>MOLECULE
*****
 29 32 0 0 0
SMALL
GASTEIGER

@<TRIPOS>ATOM
      1 N         -13.6502   -5.9504   18.7960 N.ar    1  UNL1       -0.2880
      2 C         -14.0912   -4.5172   18.7601 C.ar    1  UNL1        0.0847
      3 C         -12.8666   -3.6536   18.8273 C.ar    1  UNL1        0.0595
      4 C         -11.6687   -4.5530   18.9048 C.ar    1  UNL1        0.0391
      5 C         -10.1996   -4.2629   18.9905 C.ar    1  UNL1        0.0047
      6 C          -9.2147   -5.3923   19.0568 C.ar    1  UNL1        0.0208
      7 C          -9.6990   -6.8118   19.0374 C.ar    1  UNL1        0.1005
      8 N         -11.1681   -7.1020   18.9517 N.ar    1  UNL1       -0.2264
      9 C         -12.1530   -5.9726   18.8854 C.ar    1  UNL1        0.1478
     10 C         -16.3452   -9.5516   18.6593 C.ar    1  UNL1        0.0163
     11 C         -16.6186   -8.4468   19.6364 C.ar    1  UNL1        0.0028
     12 C         -15.7202   -7.2465   19.6820 C.ar    1  UNL1        0.0199
     13 C         -14.5485   -7.1508   18.7504 C.ar    1  UNL1        0.0927
     14 C         -14.2751   -8.2556   17.7733 C.ar    1  UNL1        0.1562
     15 F         -13.1034   -8.1600   16.8417 F       1  UNL1       -0.2026
     16 C         -15.1735   -9.4559   17.7277 C.ar    1  UNL1        0.0323
     17 O         -18.6729  -10.6030   18.1839 O.co2   1  UNL1       -0.5446
     18 C         -17.2436  -10.7519   18.6138 C.2     1  UNL1        0.0729
     19 O         -16.7127  -12.1011   18.9981 O.co2   1  UNL1       -0.5446
     20 C         -12.8439   -2.1538   18.8187 C.2     1  UNL1        0.1987
     21 O         -11.7169   -1.4169   19.4796 O.2     1  UNL1       -0.2865
     22 C         -13.9482   -1.3908   18.1490 C.ar    1  UNL1        0.0601
     23 C         -13.7879   -0.9288   16.7310 C.ar    1  UNL1        0.0615
     24 CL        -12.5232   -1.2297   15.9826 Cl      1  UNL1       -0.0821
     25 C         -14.8921   -0.1658   16.0613 C.ar    1  UNL1        0.0115
     26 C         -16.1568    0.1351   16.8097 C.ar    1  UNL1        0.0017
     27 C         -16.3171   -0.3269   18.2277 C.ar    1  UNL1        0.0115
     28 C         -15.2129   -1.0898   18.8974 C.ar    1  UNL1        0.0615
     29 CL        -15.3732   -1.5518   20.3154 Cl      1  UNL1       -0.0821
@<TRIPOS>UNITY_ATOM_ATTR
17 1
charge -1
@<TRIPOS>BOND
     1    17    18   ar
     2    18    19   ar
     3    18    10    1
     4    10    11   ar
     5    11    12   ar
     6    12    13   ar
     7    13     1    1
     8     1     2   ar
     9     2     3   ar
    10     3    20    1
    11    20    21    2
    12    20    22    1
    13    22    23   ar
    14    23    24    1
    15    23    25   ar
    16    25    26   ar
    17    26    27   ar
    18    27    28   ar
    19    28    29    1
    20     3     4   ar
    21     4     5   ar
    22     5     6   ar
    23     6     7   ar
    24     7     8   ar
    25     8     9   ar
    26    13    14   ar
    27    14    15    1
    28    14    16   ar
    29    16    10   ar
    30     9     1   ar
    31    28    22   ar
    32     9     4   ar
@<TRIPOS>MOLECULE
*****
 29 32 0 0 0
SMALL
GASTEIGER

@<TRIPOS>ATOM
      1 N         -13.7049   -5.9746   18.5771 N.ar    1  UNL1       -0.2880
      2 C         -14.1612   -4.5514   18.4488 C.ar    1  UNL1        0.0847
      3 C         -12.9500   -3.6689   18.5121 C.ar    1  UNL1        0.0595
      4 C         -11.7451   -4.5465   18.6795 C.ar    1  UNL1        0.0391
      5 C         -10.2835   -4.2322   18.8006 C.ar    1  UNL1        0.0047
      6 C          -9.2884   -5.3429   18.9619 C.ar    1  UNL1        0.0208
      7 C          -9.7550   -6.7679   19.0020 C.ar    1  UNL1        0.1005
      8 N         -11.2166   -7.0823   18.8809 N.ar    1  UNL1       -0.2264
      9 C         -12.2117   -5.9715   18.7197 C.ar    1  UNL1        0.1478
     10 C         -16.3511   -9.6142   18.5406 C.ar    1  UNL1        0.0163
     11 C         -15.0102   -9.6550   17.8695 C.ar    1  UNL1        0.0028
     12 C         -14.1282   -8.4418   17.8817 C.ar    1  UNL1        0.0199
     13 C         -14.5870   -7.1878   18.5649 C.ar    1  UNL1        0.0927
     14 C         -15.9279   -7.1469   19.2360 C.ar    1  UNL1        0.1562
     15 F         -16.3867   -5.8929   19.9193 F       1  UNL1       -0.2026
     16 C         -16.8099   -8.3602   19.2239 C.ar    1  UNL1        0.0323
     17 O         -18.6241  -10.7378   17.9742 O.co2   1  UNL1       -0.5446
     18 C         -17.2331  -10.8274   18.5284 C.2     1  UNL1        0.0729
     19 O         -16.7242  -12.1301   19.0705 O.co2   1  UNL1       -0.5446
     20 C         -12.9446   -2.1715   18.4235 C.2     1  UNL1        0.1987
     21 O         -11.6448   -1.4316   18.3100 O.2     1  UNL1       -0.2865
     22 C         -14.2391   -1.4140   18.4485 C.ar    1  UNL1        0.0601
     23 C         -15.0750   -1.3982   19.6939 C.ar    1  UNL1        0.0615
     24 CL        -14.6163   -2.1400   20.9144 Cl      1  UNL1       -0.0821
     25 C         -16.3694   -0.6408   19.7190 C.ar    1  UNL1        0.0115
     26 C         -16.8280    0.1010   18.4986 C.ar    1  UNL1        0.0017
     27 C         -15.9921    0.0852   17.2531 C.ar    1  UNL1        0.0115
     28 C         -14.6977   -0.6722   17.2281 C.ar    1  UNL1        0.0615
     29 CL        -13.8619   -0.6879   15.9826 Cl      1  UNL1       -0.0821
@<TRIPOS>UNITY_ATOM_ATTR
17 1
charge -1
@<TRIPOS>BOND
     1    17    18   ar
     2    18    19   ar
     3    18    10    1
     4    10    11   ar
     5    11    12   ar
     6    12    13   ar
     7    13     1    1
     8     1     2   ar
     9     2     3   ar
    10     3    20    1
    11    20    21    2
    12    20    22    1
    13    22    23   ar
    14    23    24    1
    15    23    25   ar
    16    25    26   ar
    17    26    27   ar
    18    27    28   ar
    19    28    29    1
    20     3     4   ar
    21     4     5   ar
    22     5     6   ar
    23     6     7   ar
    24     7     8   ar
    25     8     9   ar
    26    13    14   ar
    27    14    15    1
    28    14    16   ar
    29    16    10   ar
    30     9     1   ar
    31    28    22   ar
    32     9     4   ar
@<TRIPOS>MOLECULE
*****
 29 32 0 0 0
SMALL
GASTEIGER

@<TRIPOS>ATOM
      1 N          -7.2290  -16.9302   22.9972 N.ar    1  UNL1       -0.2880
      2 C          -6.0568  -17.6269   22.3724 C.ar    1  UNL1        0.0847
      3 C          -4.8553  -17.3767   23.2349 C.ar    1  UNL1        0.0595
      4 C          -5.2850  -16.5253   24.3927 C.ar    1  UNL1        0.0391
      5 C          -4.5299  -15.9657   25.5617 C.ar    1  UNL1        0.0047
      6 C          -5.2420  -15.1302   26.5839 C.ar    1  UNL1        0.0208
      7 C          -6.7090  -14.8542   26.4370 C.ar    1  UNL1        0.1005
      8 N          -7.4641  -15.4138   25.2679 N.ar    1  UNL1       -0.2264
      9 C          -6.7521  -16.2493   24.2458 C.ar    1  UNL1        0.1478
     10 C         -11.4379  -16.8894   21.4053 C.ar    1  UNL1        0.0163
     11 C         -10.9643  -18.0394   22.2438 C.ar    1  UNL1        0.0028
     12 C          -9.5613  -18.0530   22.7744 C.ar    1  UNL1        0.0199
     13 C          -8.6320  -16.9166   22.4666 C.ar    1  UNL1        0.0927
     14 C          -9.1056  -15.7665   21.6280 C.ar    1  UNL1        0.1562
     15 F          -8.1763  -14.6301   21.3201 F       1  UNL1       -0.2026
     16 C         -10.5086  -15.7530   21.0974 C.ar    1  UNL1        0.0323
     17 O         -13.8522  -17.8490   21.4039 O.co2   1  UNL1       -0.5446
     18 C         -12.8408  -16.8758   20.8746 C.2     1  UNL1        0.0729
     19 O         -13.2324  -15.8892   19.8149 O.co2   1  UNL1       -0.5446
     20 C          -3.4677  -17.8880   22.9836 C.2     1  UNL1        0.1987
     21 O          -2.5862  -18.2633   24.1377 O.2     1  UNL1       -0.2865
     22 C          -2.9616  -18.0242   21.5781 C.ar    1  UNL1        0.0601
     23 C          -3.3311  -19.2266   20.7611 C.ar    1  UNL1        0.0615
     24 CL         -4.2068  -20.2929   21.3495 Cl      1  UNL1       -0.0821
     25 C          -2.8250  -19.3628   19.3556 C.ar    1  UNL1        0.0115
     26 C          -1.9494  -18.2965   18.7672 C.ar    1  UNL1        0.0017
     27 C          -1.5798  -17.0940   19.5843 C.ar    1  UNL1        0.0115
     28 C          -2.0859  -16.9578   20.9897 C.ar    1  UNL1        0.0615
     29 CL         -1.7164  -15.7554   21.8068 Cl      1  UNL1       -0.0821
@<TRIPOS>UNITY_ATOM_ATTR
17 1
charge -1
@<TRIPOS>BOND
     1    17    18   ar
     2    18    19   ar
     3    18    10    1
     4    10    11   ar
     5    11    12   ar
     6    12    13   ar
     7    13     1    1
     8     1     2   ar
     9     2     3   ar
    10     3    20    1
    11    20    21    2
    12    20    22    1
    13    22    23   ar
    14    23    24    1
    15    23    25   ar
    16    25    26   ar
    17    26    27   ar
    18    27    28   ar
    19    28    29    1
    20     3     4   ar
    21     4     5   ar
    22     5     6   ar
    23     6     7   ar
    24     7     8   ar
    25     8     9   ar
    26    13    14   ar
    27    14    15    1
    28    14    16   ar
    29    16    10   ar
    30     9     1   ar
    31    28    22   ar
    32     9     4   ar
@<TRIPOS>MOLECULE
*****
 29 32 0 0 0
SMALL
GASTEIGER

@<TRIPOS>ATOM
      1 N           1.3205    1.4819   22.1047 N.ar    1  UNL1       -0.2880
      2 C           1.8187    1.6296   23.5118 C.ar    1  UNL1        0.0847
      3 C           0.8142    2.4396   24.2766 C.ar    1  UNL1        0.0595
      4 C          -0.3049    2.7924   23.3422 C.ar    1  UNL1        0.0391
      5 C          -1.5684    3.5762   23.5402 C.ar    1  UNL1        0.0047
      6 C          -2.5190    3.7680   22.3959 C.ar    1  UNL1        0.0208
      7 C          -2.2061    3.1762   21.0536 C.ar    1  UNL1        0.1005
      8 N          -0.9426    2.3924   20.8556 N.ar    1  UNL1       -0.2264
      9 C           0.0080    2.2005   21.9999 C.ar    1  UNL1        0.1478
     10 C           3.3982   -0.7290   18.7813 C.ar    1  UNL1        0.0163
     11 C           2.9787   -1.4610   20.0215 C.ar    1  UNL1        0.0028
     12 C           2.2861   -0.7240   21.1293 C.ar    1  UNL1        0.0199
     13 C           2.0130    0.7449   20.9970 C.ar    1  UNL1        0.0927
     14 C           2.4326    1.4769   19.7567 C.ar    1  UNL1        0.1562
     15 F           2.1596    2.9459   19.6242 F       1  UNL1       -0.2026
     16 C           3.1252    0.7400   18.6489 C.ar    1  UNL1        0.0323
     17 O           4.9929   -2.6217   17.9909 O.co2   1  UNL1       -0.5446
     18 C           4.0908   -1.4660   17.6735 C.2     1  UNL1        0.0729
     19 O           3.8814   -1.0473   16.2485 O.co2   1  UNL1       -0.5446
     20 C           0.9116    2.8284   25.7220 C.2     1  UNL1        0.1987
     21 O           1.3346    4.2174   26.0982 O.2     1  UNL1       -0.2865
     22 C           0.5860    1.8281   26.7914 C.ar    1  UNL1        0.0601
     23 C           1.6537    0.9118   27.3114 C.ar    1  UNL1        0.0615
     24 CL          3.0470    0.9958   26.7620 Cl      1  UNL1       -0.0821
     25 C           1.3282   -0.0885   28.3807 C.ar    1  UNL1        0.0115
     26 C          -0.0651   -0.1724   28.9301 C.ar    1  UNL1        0.0017
     27 C          -1.1327    0.7439   28.4101 C.ar    1  UNL1        0.0115
     28 C          -0.8072    1.7442   27.3408 C.ar    1  UNL1        0.0615
     29 CL         -1.8749    2.6605   26.8208 Cl      1  UNL1       -0.0821
@<TRIPOS>UNITY_ATOM_ATTR
17 1
charge -1
@<TRIPOS>BOND
     1    17    18   ar
     2    18    19   ar
     3    18    10    1
     4    10    11   ar
     5    11    12   ar
     6    12    13   ar
     7    13     1    1
     8     1     2   ar
     9     2     3   ar
    10     3    20    1
    11    20    21    2
    12    20    22    1
    13    22    23   ar
    14    23    24    1
    15    23    25   ar
    16    25    26   ar
    17    26    27   ar
    18    27    28   ar
    19    28    29    1
    20     3     4   ar
    21     4     5   ar
    22     5     6   ar
    23     6     7   ar
    24     7     8   ar
    25     8     9   ar
    26    13    14   ar
    27    14    15    1
    28    14    16   ar
    29    16    10   ar
    30     9     1   ar
    31    28    22   ar
    32     9     4   ar
@<TRIPOS>MOLECULE
*****
 29 32 0 0 0
SMALL
GASTEIGER

@<TRIPOS>ATOM
      1 N           1.3018    1.4940   22.0955 N.ar    1  UNL1       -0.2880
      2 C           1.7957    1.6425   23.5041 C.ar    1  UNL1        0.0847
      3 C           0.7886    2.4525   24.2653 C.ar    1  UNL1        0.0595
      4 C          -0.3277    2.8048   23.3273 C.ar    1  UNL1        0.0391
      5 C          -1.5919    3.5884   23.5210 C.ar    1  UNL1        0.0047
      6 C          -2.5390    3.7796   22.3736 C.ar    1  UNL1        0.0208
      7 C          -2.2218    3.1871   21.0325 C.ar    1  UNL1        0.1005
      8 N          -0.9575    2.4035   20.8388 N.ar    1  UNL1       -0.2264
      9 C          -0.0104    2.2124   21.9862 C.ar    1  UNL1        0.1478
     10 C           3.3905   -0.7179   18.7796 C.ar    1  UNL1        0.0163
     11 C           2.9502   -1.4532   20.0106 C.ar    1  UNL1        0.0028
     12 C           2.2540   -0.7159   21.1159 C.ar    1  UNL1        0.0199
     13 C           1.9980    0.7567   20.9902 C.ar    1  UNL1        0.0927
     14 C           2.4384    1.4921   19.7591 C.ar    1  UNL1        0.1562
     15 F           2.1824    2.9647   19.6334 F       1  UNL1       -0.2026
     16 C           3.1346    0.7547   18.6538 C.ar    1  UNL1        0.0323
     17 O           4.9993   -2.6013   17.9960 O.co2   1  UNL1       -0.5446
     18 C           4.0867   -1.4552   17.6743 C.2     1  UNL1        0.0729
     19 O           3.8702   -1.0464   16.2474 O.co2   1  UNL1       -0.5446
     20 C           0.8814    2.8421   25.7109 C.2     1  UNL1        0.1987
     21 O           1.2885    4.2357   26.0875 O.2     1  UNL1       -0.2865
     22 C           0.5671    1.8378   26.7800 C.ar    1  UNL1        0.0601
     23 C          -0.8228    1.7446   27.3362 C.ar    1  UNL1        0.0615
     24 CL         -1.8985    2.6558   26.8234 Cl      1  UNL1       -0.0821
     25 C          -1.1372    0.7404   28.4052 C.ar    1  UNL1        0.0115
     26 C          -0.0615   -0.1706   28.9179 C.ar    1  UNL1        0.0017
     27 C           1.3284   -0.0775   28.3617 C.ar    1  UNL1        0.0115
     28 C           1.6427    0.9267   27.2927 C.ar    1  UNL1        0.0615
     29 CL          3.0327    1.0198   26.7365 Cl      1  UNL1       -0.0821
@<TRIPOS>UNITY_ATOM_ATTR
17 1
charge -1
@<TRIPOS>BOND
     1    17    18   ar
     2    18    19   ar
     3    18    10    1
     4    10    11   ar
     5    11    12   ar
     6    12    13   ar
     7    13     1    1
     8     1     2   ar
     9     2     3   ar
    10     3    20    1
    11    20    21    2
    12    20    22    1
    13    22    23   ar
    14    23    24    1
    15    23    25   ar
    16    25    26   ar
    17    26    27   ar
    18    27    28   ar
    19    28    29    1
    20     3     4   ar
    21     4     5   ar
    22     5     6   ar
    23     6     7   ar
    24     7     8   ar
    25     8     9   ar
    26    13    14   ar
    27    14    15    1
    28    14    16   ar
    29    16    10   ar
    30     9     1   ar
    31    28    22   ar
    32     9     4   ar
@<TRIPOS>MOLECULE
*****
 29 32 0 0 0
SMALL
GASTEIGER

@<TRIPOS>ATOM
      1 N          -7.2504  -16.9328   23.0113 N.ar    1  UNL1       -0.2880
      2 C          -6.0746  -17.6229   22.3858 C.ar    1  UNL1        0.0847
      3 C          -4.8750  -17.3698   23.2500 C.ar    1  UNL1        0.0595
      4 C          -5.3093  -16.5234   24.4096 C.ar    1  UNL1        0.0391
      5 C          -4.5577  -15.9637   25.5808 C.ar    1  UNL1        0.0047
      6 C          -5.2742  -15.1338   26.6045 C.ar    1  UNL1        0.0208
      7 C          -6.7423  -14.8637   26.4570 C.ar    1  UNL1        0.1005
      8 N          -7.4939  -15.4235   25.2858 N.ar    1  UNL1       -0.2264
      9 C          -6.7774  -16.2533   24.2622 C.ar    1  UNL1        0.1478
     10 C         -11.4580  -16.9060   21.4158 C.ar    1  UNL1        0.0163
     11 C         -10.5281  -15.7726   21.0981 C.ar    1  UNL1        0.0028
     12 C          -9.1256  -15.7816   21.6299 C.ar    1  UNL1        0.0199
     13 C          -8.6529  -16.9238   22.4795 C.ar    1  UNL1        0.0927
     14 C          -9.5828  -18.0572   22.7972 C.ar    1  UNL1        0.1562
     15 F          -9.1101  -19.1995   23.6467 F       1  UNL1       -0.2026
     16 C         -10.9853  -18.0483   22.2653 C.ar    1  UNL1        0.0323
     17 O         -13.2536  -15.9130   19.8222 O.co2   1  UNL1       -0.5446
     18 C         -12.8605  -16.8970   20.8839 C.2     1  UNL1        0.0729
     19 O         -13.8698  -17.8719   21.4137 O.co2   1  UNL1       -0.5446
     20 C          -3.4850  -17.8746   22.9987 C.2     1  UNL1        0.1987
     21 O          -2.5944  -18.2260   24.1533 O.2     1  UNL1       -0.2865
     22 C          -2.9856  -18.0281   21.5925 C.ar    1  UNL1        0.0601
     23 C          -2.1030  -16.9749   20.9910 C.ar    1  UNL1        0.0615
     24 CL         -1.7198  -15.7683   21.7956 Cl      1  UNL1       -0.0821
     25 C          -1.6035  -17.1283   19.5849 C.ar    1  UNL1        0.0115
     26 C          -1.9867  -18.3350   18.7804 C.ar    1  UNL1        0.0017
     27 C          -2.8693  -19.3881   19.3820 C.ar    1  UNL1        0.0115
     28 C          -3.3687  -19.2347   20.7880 C.ar    1  UNL1        0.0615
     29 CL         -4.2513  -20.2879   21.3896 Cl      1  UNL1       -0.0821
@<TRIPOS>UNITY_ATOM_ATTR
17 1
charge -1
@<TRIPOS>BOND
     1    17    18   ar
     2    18    19   ar
     3    18    10    1
     4    10    11   ar
     5    11    12   ar
     6    12    13   ar
     7    13     1    1
     8     1     2   ar
     9     2     3   ar
    10     3    20    1
    11    20    21    2
    12    20    22    1
    13    22    23   ar
    14    23    24    1
    15    23    25   ar
    16    25    26   ar
    17    26    27   ar
    18    27    28   ar
    19    28    29    1
    20     3     4   ar
    21     4     5   ar
    22     5     6   ar
    23     6     7   ar
    24     7     8   ar
    25     8     9   ar
    26    13    14   ar
    27    14    15    1
    28    14    16   ar
    29    16    10   ar
    30     9     1   ar
    31    28    22   ar
    32     9     4   ar
