@<TRIPOS>MOLECULE
*****
 30 33 0 0 0
SMALL
GASTEIGER

@<TRIPOS>ATOM
      1 C          -8.6075  -16.0560   26.2083 C.ar    1  UNL1        0.2172
      2 N          -8.9079  -17.4651   26.6258 N.ar    1  UNL1       -0.2126
      3 C          -9.6901  -18.3659   25.7166 C.ar    1  UNL1        0.0994
      4 C         -10.1718  -17.8578   24.3900 C.ar    1  UNL1        0.0207
      5 C          -9.8713  -16.4487   23.9726 C.ar    1  UNL1        0.0994
      6 N          -9.0892  -15.5478   24.8818 N.ar    1  UNL1       -0.2126
      7 N          -7.8253  -15.1551   27.1175 N.pl3   1  UNL1       -0.2990
      8 H          -8.2961  -14.5377   27.7228 H       1  UNL1        0.1500
      9 C          -6.3259  -15.1947   27.1044 C.3     1  UNL1        0.1181
     10 C          -4.1382  -16.3388   23.3421 C.ar    1  UNL1        0.2533
     11 N          -4.9907  -15.1049   23.3682 N.ar    1  UNL1       -0.2085
     12 C          -5.7199  -14.7235   24.6224 C.ar    1  UNL1        0.0995
     13 C          -5.5966  -15.5761   25.8503 C.ar    1  UNL1        0.0191
     14 C          -4.7442  -16.8101   25.8242 C.ar    1  UNL1        0.0334
     15 C          -4.0150  -17.1914   24.5701 C.ar    1  UNL1        0.1927
     16 F          -3.1626  -18.4254   24.5439 F       1  UNL1       -0.1993
     17 C          -2.0698  -16.1157   21.7858 C.3     1  UNL1        0.2543
     18 O          -3.4090  -16.7202   22.0880 O.3     1  UNL1       -0.4546
     19 C         -10.9540  -18.7587   23.4808 C.3     1  UNL1        0.0575
     20 C         -10.5729  -18.8792   22.0350 C.ar    1  UNL1        0.0044
     21 C         -11.5078  -18.7837   20.8659 C.ar    1  UNL1        0.0966
     22 N         -10.7027  -18.9619   19.6129 N.ar    1  UNL1       -0.2273
     23 C          -9.2703  -19.1675   20.0076 C.ar    1  UNL1        0.1402
     24 N          -8.0286  -19.3947   19.1973 N.ar    1  UNL1       -0.3377
     25 C          -6.7067  -19.5707   19.8839 C.ar    1  UNL1        0.0691
     26 C          -6.6265  -19.5197   21.3809 C.ar    1  UNL1       -0.0047
     27 C          -5.3045  -19.6957   22.0676 C.3     1  UNL1        0.0326
     28 C          -7.8681  -19.2925   22.1912 C.ar    1  UNL1       -0.0001
     29 C          -9.1900  -19.1164   21.5046 C.ar    1  UNL1        0.0315
     30 H          -8.0813  -19.4282   18.2147 H       1  UNL1        0.1674
@<TRIPOS>BOND
     1    17    18    1
     2    18    10    1
     3    10    11   ar
     4    11    12   ar
     5    12    13   ar
     6    13     9    1
     7     9     7    1
     8     7     1    1
     9     1     2   ar
    10     2     3   ar
    11     3     4   ar
    12     4    19    1
    13    19    20    1
    14    20    21   ar
    15    21    22   ar
    16    22    23   ar
    17    23    24   ar
    18    24    25   ar
    19    25    26   ar
    20    26    27    1
    21    26    28   ar
    22    28    29   ar
    23     4     5   ar
    24     5     6   ar
    25    13    14   ar
    26    14    15   ar
    27    15    16    1
    28    15    10   ar
    29     6     1   ar
    30    29    20   ar
    31    29    23    1
    32     7     8    1
    33    24    30    1
@<TRIPOS>MOLECULE
*****
 30 33 0 0 0
SMALL
GASTEIGER

@<TRIPOS>ATOM
      1 C          -6.2238  -15.8746   24.4404 C.ar    1  UNL1        0.2172
      2 N          -7.2342  -16.3086   25.4605 N.ar    1  UNL1       -0.2126
      3 C          -8.6892  -16.3612   25.0996 C.ar    1  UNL1        0.0994
      4 C          -9.1337  -15.9800   23.7187 C.ar    1  UNL1        0.0207
      5 C          -8.1233  -15.5460   22.6986 C.ar    1  UNL1        0.0994
      6 N          -6.6683  -15.4933   23.0594 N.ar    1  UNL1       -0.2126
      7 N          -4.7688  -15.8219   24.8011 N.pl3   1  UNL1       -0.2990
      8 H          -4.3857  -14.9991   25.1826 H       1  UNL1        0.1500
      9 C          -3.8973  -17.0228   24.5808 C.3     1  UNL1        0.1181
     10 C          -2.7389  -18.2259   20.4023 C.ar    1  UNL1        0.2533
     11 N          -2.3850  -16.8615   20.9153 N.ar    1  UNL1       -0.2085
     12 C          -2.7711  -16.4605   22.3081 C.ar    1  UNL1        0.0995
     13 C          -3.5112  -17.4239   23.1880 C.ar    1  UNL1        0.0191
     14 C          -3.8651  -18.7883   22.6750 C.ar    1  UNL1        0.0334
     15 C          -3.4790  -19.1893   21.2822 C.ar    1  UNL1        0.1927
     16 F          -3.8329  -20.5537   20.7692 F       1  UNL1       -0.1993
     17 C          -1.6396  -17.6530   18.1190 C.3     1  UNL1        0.2543
     18 O          -2.3528  -18.6269   19.0095 O.3     1  UNL1       -0.4546
     19 C         -10.5888  -16.0327   23.3579 C.3     1  UNL1        0.0575
     20 C         -11.0205  -16.6797   22.0753 C.ar    1  UNL1        0.0044
     21 C         -12.2965  -16.4062   21.3357 C.ar    1  UNL1        0.0966
     22 N         -12.3165  -17.2714   20.1105 N.ar    1  UNL1       -0.2273
     23 C         -11.0530  -18.0796   20.0930 C.ar    1  UNL1        0.1402
     24 N         -10.5284  -19.1013   19.1281 N.ar    1  UNL1       -0.3377
     25 C          -9.2028  -19.7573   19.3777 C.ar    1  UNL1        0.0691
     26 C          -8.4018  -19.3916   20.5921 C.ar    1  UNL1       -0.0047
     27 C          -7.0761  -20.0477   20.8416 C.3     1  UNL1        0.0326
     28 C          -8.9264  -18.3700   21.5569 C.ar    1  UNL1       -0.0001
     29 C         -10.2520  -17.7140   21.3073 C.ar    1  UNL1        0.0315
     30 H         -11.0541  -19.3412   18.3311 H       1  UNL1        0.1674
@<TRIPOS>BOND
     1    17    18    1
     2    18    10    1
     3    10    11   ar
     4    11    12   ar
     5    12    13   ar
     6    13     9    1
     7     9     7    1
     8     7     1    1
     9     1     2   ar
    10     2     3   ar
    11     3     4   ar
    12     4    19    1
    13    19    20    1
    14    20    21   ar
    15    21    22   ar
    16    22    23   ar
    17    23    24   ar
    18    24    25   ar
    19    25    26   ar
    20    26    27    1
    21    26    28   ar
    22    28    29   ar
    23     4     5   ar
    24     5     6   ar
    25    13    14   ar
    26    14    15   ar
    27    15    16    1
    28    15    10   ar
    29     6     1   ar
    30    29    20   ar
    31    29    23    1
    32     7     8    1
    33    24    30    1
@<TRIPOS>MOLECULE
*****
 30 33 0 0 0
SMALL
GASTEIGER

@<TRIPOS>ATOM
      1 C          -0.7849    2.2159   20.3436 C.ar    1  UNL1        0.2172
      2 N          -0.1966    2.9090   19.1504 N.ar    1  UNL1       -0.2126
      3 C           0.9399    2.2784   18.4017 C.ar    1  UNL1        0.0994
      4 C           1.4881    0.9548   18.8460 C.ar    1  UNL1        0.0207
      5 C           0.8999    0.2617   20.0392 C.ar    1  UNL1        0.0994
      6 N          -0.2366    0.8923   20.7879 N.ar    1  UNL1       -0.2126
      7 N          -1.9214    2.8465   21.0924 N.pl3   1  UNL1       -0.2990
      8 H          -1.8544    2.9829   22.0651 H       1  UNL1        0.1500
      9 C          -3.1599    3.2692   20.3593 C.3     1  UNL1        0.1181
     10 C          -6.9011    4.2683   22.6516 C.ar    1  UNL1        0.2533
     11 N          -6.8498    4.4855   21.1683 N.ar    1  UNL1       -0.2085
     12 C          -5.6027    4.1524   20.4042 C.ar    1  UNL1        0.0995
     13 C          -4.4069    3.6022   21.1234 C.ar    1  UNL1        0.0191
     14 C          -4.4582    3.3850   22.6067 C.ar    1  UNL1        0.0334
     15 C          -5.7053    3.7181   23.3708 C.ar    1  UNL1        0.1927
     16 F          -5.7565    3.5009   24.8541 F       1  UNL1       -0.1993
     17 C          -8.1919    5.8242   24.2835 C.3     1  UNL1        0.2543
     18 O          -8.1481    4.6014   23.4158 O.3     1  UNL1       -0.4546
     19 C           2.6247    0.3242   18.0972 C.3     1  UNL1        0.0575
     20 C           3.8912   -0.0326   18.8174 C.ar    1  UNL1        0.0044
     21 C           4.9885    0.9178   19.1949 C.ar    1  UNL1        0.0966
     22 N           6.0581    0.1353   19.8974 N.ar    1  UNL1       -0.2273
     23 C           5.6219   -1.2987   19.9542 C.ar    1  UNL1        0.1402
     24 N           6.2711   -2.5234   20.5274 N.ar    1  UNL1       -0.3377
     25 C           5.5810   -3.8518   20.4332 C.ar    1  UNL1        0.0691
     26 C           4.2417   -3.9556   19.7657 C.ar    1  UNL1       -0.0047
     27 C           3.5517   -5.2842   19.6715 C.3     1  UNL1        0.0326
     28 C           3.5925   -2.7310   19.1925 C.ar    1  UNL1       -0.0001
     29 C           4.2826   -1.4025   19.2867 C.ar    1  UNL1        0.0315
     30 H           7.1501   -2.4552   20.9655 H       1  UNL1        0.1674
@<TRIPOS>BOND
     1    17    18    1
     2    18    10    1
     3    10    11   ar
     4    11    12   ar
     5    12    13   ar
     6    13     9    1
     7     9     7    1
     8     7     1    1
     9     1     2   ar
    10     2     3   ar
    11     3     4   ar
    12     4    19    1
    13    19    20    1
    14    20    21   ar
    15    21    22   ar
    16    22    23   ar
    17    23    24   ar
    18    24    25   ar
    19    25    26   ar
    20    26    27    1
    21    26    28   ar
    22    28    29   ar
    23     4     5   ar
    24     5     6   ar
    25    13    14   ar
    26    14    15   ar
    27    15    16    1
    28    15    10   ar
    29     6     1   ar
    30    29    20   ar
    31    29    23    1
    32     7     8    1
    33    24    30    1
@<TRIPOS>MOLECULE
*****
 30 33 0 0 0
SMALL
GASTEIGER

@<TRIPOS>ATOM
      1 C         -12.3522   -5.9699   19.0664 C.ar    1  UNL1        0.2172
      2 N         -11.2392   -5.4101   18.2310 N.ar    1  UNL1       -0.2126
      3 C         -10.9840   -3.9321   18.2149 C.ar    1  UNL1        0.0994
      4 C         -11.8418   -3.0139   19.0341 C.ar    1  UNL1        0.0207
      5 C         -12.9547   -3.5737   19.8695 C.ar    1  UNL1        0.0994
      6 N         -13.2099   -5.0517   19.8856 N.ar    1  UNL1       -0.2126
      7 N         -12.6074   -7.4480   19.0825 N.pl3   1  UNL1       -0.2990
      8 H         -12.1369   -8.0217   19.7296 H       1  UNL1        0.1500
      9 C         -13.5795   -8.0519   18.1128 C.3     1  UNL1        0.1181
     10 C         -17.7720   -9.0139   19.4346 C.ar    1  UNL1        0.2533
     11 N         -17.1912   -7.6585   19.7098 N.ar    1  UNL1       -0.2085
     12 C         -15.7937   -7.3379   19.2692 C.ar    1  UNL1        0.0995
     13 C         -14.9770   -8.3726   18.5534 C.ar    1  UNL1        0.0191
     14 C         -15.5578   -9.7280   18.2781 C.ar    1  UNL1        0.0334
     15 C         -16.9553  -10.0486   18.7187 C.ar    1  UNL1        0.1927
     16 F         -17.5361  -11.4039   18.4435 F       1  UNL1       -0.1993
     17 C         -19.9134   -8.3813   20.7629 C.3     1  UNL1        0.2543
     18 O         -19.1695   -9.3345   19.8751 O.3     1  UNL1       -0.4546
     19 C         -11.5865   -1.5358   19.0179 C.3     1  UNL1        0.0575
     20 C         -12.3416   -0.6546   18.0674 C.ar    1  UNL1        0.0044
     21 C         -11.8038   -0.0608   16.7993 C.ar    1  UNL1        0.0966
     22 N         -12.8969    0.7482   16.1664 N.ar    1  UNL1       -0.2273
     23 C         -14.1103    0.6543   17.0433 C.ar    1  UNL1        0.1402
     24 N         -15.4833    1.2463   16.9236 N.ar    1  UNL1       -0.3377
     25 C         -16.5132    0.9712   17.9790 C.ar    1  UNL1        0.0691
     26 C         -16.1699    0.1042   19.1539 C.ar    1  UNL1       -0.0047
     27 C         -17.1998   -0.1709   20.2093 C.3     1  UNL1        0.0326
     28 C         -14.7969   -0.4878   19.2735 C.ar    1  UNL1       -0.0001
     29 C         -13.7671   -0.2127   18.2182 C.ar    1  UNL1        0.0315
     30 H         -15.7086    1.8153   16.1525 H       1  UNL1        0.1674
@<TRIPOS>BOND
     1    17    18    1
     2    18    10    1
     3    10    11   ar
     4    11    12   ar
     5    12    13   ar
     6    13     9    1
     7     9     7    1
     8     7     1    1
     9     1     2   ar
    10     2     3   ar
    11     3     4   ar
    12     4    19    1
    13    19    20    1
    14    20    21   ar
    15    21    22   ar
    16    22    23   ar
    17    23    24   ar
    18    24    25   ar
    19    25    26   ar
    20    26    27    1
    21    26    28   ar
    22    28    29   ar
    23     4     5   ar
    24     5     6   ar
    25    13    14   ar
    26    14    15   ar
    27    15    16    1
    28    15    10   ar
    29     6     1   ar
    30    29    20   ar
    31    29    23    1
    32     7     8    1
    33    24    30    1
@<TRIPOS>MOLECULE
*****
 30 33 0 0 0
SMALL
GASTEIGER

@<TRIPOS>ATOM
      1 C           5.9259   -2.2671   25.0558 C.ar    1  UNL1        0.2172
      2 N           6.5918   -3.4426   24.4041 N.ar    1  UNL1       -0.2126
      3 C           6.0562   -3.9870   23.1131 C.ar    1  UNL1        0.0994
      4 C           4.8549   -3.3560   22.4738 C.ar    1  UNL1        0.0207
      5 C           4.1891   -2.1805   23.1256 C.ar    1  UNL1        0.0994
      6 N           4.7246   -1.6361   24.4166 N.ar    1  UNL1       -0.2126
      7 N           6.4614   -1.7226   26.3469 N.pl3   1  UNL1       -0.2990
      8 H           7.3033   -1.2123   26.3543 H       1  UNL1        0.1500
      9 C           5.7142   -1.9555   27.6265 C.3     1  UNL1        0.1181
     10 C           6.9640   -5.2814   30.3881 C.ar    1  UNL1        0.2533
     11 N           6.7387   -5.5606   28.9316 N.ar    1  UNL1       -0.2085
     12 C           6.3221   -4.4520   28.0111 C.ar    1  UNL1        0.0995
     13 C           6.1308   -3.0641   28.5471 C.ar    1  UNL1        0.0191
     14 C           6.3561   -2.7849   30.0035 C.ar    1  UNL1        0.0334
     15 C           6.7727   -3.8935   30.9240 C.ar    1  UNL1        0.1927
     16 F           6.9980   -3.6143   32.3805 F       1  UNL1       -0.1993
     17 C           8.8366   -6.6834   31.5185 C.3     1  UNL1        0.2543
     18 O           7.3806   -6.3899   31.3087 O.3     1  UNL1       -0.4546
     19 C           4.3194   -3.9005   21.1827 C.3     1  UNL1        0.0575
     20 C           4.4274   -3.0905   19.9249 C.ar    1  UNL1        0.0044
     21 C           5.4569   -3.2669   18.8483 C.ar    1  UNL1        0.0966
     22 N           5.1907   -2.2472   17.7809 N.ar    1  UNL1       -0.2273
     23 C           3.9967   -1.4406   18.1977 C.ar    1  UNL1        0.1402
     24 N           3.2780   -0.2990   17.5419 N.ar    1  UNL1       -0.3377
     25 C           2.0876    0.3215   18.2112 C.ar    1  UNL1        0.0691
     26 C           1.6159   -0.1997   19.5363 C.ar    1  UNL1       -0.0047
     27 C           0.4255    0.4208   20.2056 C.3     1  UNL1        0.0326
     28 C           2.3346   -1.3413   20.1921 C.ar    1  UNL1       -0.0001
     29 C           3.5249   -1.9618   19.5228 C.ar    1  UNL1        0.0315
     30 H           3.5876    0.0431   16.6722 H       1  UNL1        0.1674
@<TRIPOS>BOND
     1    17    18    1
     2    18    10    1
     3    10    11   ar
     4    11    12   ar
     5    12    13   ar
     6    13     9    1
     7     9     7    1
     8     7     1    1
     9     1     2   ar
    10     2     3   ar
    11     3     4   ar
    12     4    19    1
    13    19    20    1
    14    20    21   ar
    15    21    22   ar
    16    22    23   ar
    17    23    24   ar
    18    24    25   ar
    19    25    26   ar
    20    26    27    1
    21    26    28   ar
    22    28    29   ar
    23     4     5   ar
    24     5     6   ar
    25    13    14   ar
    26    14    15   ar
    27    15    16    1
    28    15    10   ar
    29     6     1   ar
    30    29    20   ar
    31    29    23    1
    32     7     8    1
    33    24    30    1
@<TRIPOS>MOLECULE
*****
 30 33 0 0 0
SMALL
GASTEIGER

@<TRIPOS>ATOM
      1 C         -10.8868   -2.8360   17.9640 C.ar    1  UNL1        0.2172
      2 N         -11.7625   -3.0102   16.7586 N.ar    1  UNL1       -0.2126
      3 C         -12.9534   -2.1198   16.5618 C.ar    1  UNL1        0.0994
      4 C         -13.2687   -1.0551   17.5703 C.ar    1  UNL1        0.0207
      5 C         -12.3930   -0.8808   18.7756 C.ar    1  UNL1        0.0994
      6 N         -11.2021   -1.7713   18.9724 N.ar    1  UNL1       -0.2126
      7 N          -9.6959   -3.7264   18.1609 N.pl3   1  UNL1       -0.2990
      8 H          -8.8158   -3.4554   17.8126 H       1  UNL1        0.1500
      9 C          -9.8457   -5.0296   18.8884 C.3     1  UNL1        0.1181
     10 C         -13.2503   -7.7927   17.8766 C.ar    1  UNL1        0.2533
     11 N         -11.9675   -7.8686   17.1030 N.ar    1  UNL1       -0.2085
     12 C         -10.8326   -6.9476   17.4403 C.ar    1  UNL1        0.0995
     13 C         -10.9806   -5.9506   18.5512 C.ar    1  UNL1        0.0191
     14 C         -12.2635   -5.8746   19.3248 C.ar    1  UNL1        0.0334
     15 C         -13.3983   -6.7957   18.9875 C.ar    1  UNL1        0.1927
     16 F         -14.6812   -6.7197   19.7612 F       1  UNL1       -0.1993
     17 C         -15.6610   -8.1580   16.9793 C.3     1  UNL1        0.2543
     18 O         -14.3852   -8.7137   17.5395 O.3     1  UNL1       -0.4546
     19 C         -14.4597   -0.1646   17.3734 C.3     1  UNL1        0.0575
     20 C         -15.5142   -0.0765   18.4365 C.ar    1  UNL1        0.0044
     21 C         -15.8833    1.1530   19.2124 C.ar    1  UNL1        0.0966
     22 N         -16.9820    0.7869   20.1658 N.ar    1  UNL1       -0.2273
     23 C         -17.2918   -0.6689   19.9792 C.ar    1  UNL1        0.1402
     24 N         -18.2827   -1.5775   20.6443 N.ar    1  UNL1       -0.3377
     25 C         -18.3665   -3.0197   20.2406 C.ar    1  UNL1        0.0691
     26 C         -17.4594   -3.5533   19.1718 C.ar    1  UNL1       -0.0047
     27 C         -17.5432   -4.9956   18.7682 C.3     1  UNL1        0.0326
     28 C         -16.4684   -2.6447   18.5067 C.ar    1  UNL1       -0.0001
     29 C         -16.3847   -1.2025   18.9104 C.ar    1  UNL1        0.0315
     30 H         -18.8781   -1.2272   21.3458 H       1  UNL1        0.1674
@<TRIPOS>BOND
     1    17    18    1
     2    18    10    1
     3    10    11   ar
     4    11    12   ar
     5    12    13   ar
     6    13     9    1
     7     9     7    1
     8     7     1    1
     9     1     2   ar
    10     2     3   ar
    11     3     4   ar
    12     4    19    1
    13    19    20    1
    14    20    21   ar
    15    21    22   ar
    16    22    23   ar
    17    23    24   ar
    18    24    25   ar
    19    25    26   ar
    20    26    27    1
    21    26    28   ar
    22    28    29   ar
    23     4     5   ar
    24     5     6   ar
    25    13    14   ar
    26    14    15   ar
    27    15    16    1
    28    15    10   ar
    29     6     1   ar
    30    29    20   ar
    31    29    23    1
    32     7     8    1
    33    24    30    1
@<TRIPOS>MOLECULE
*****
 30 33 0 0 0
SMALL
GASTEIGER

@<TRIPOS>ATOM
      1 C           5.5553   -2.1940   24.9701 C.ar    1  UNL1        0.2172
      2 N           6.4818   -3.1496   24.2783 N.ar    1  UNL1       -0.2126
      3 C           6.1155   -3.7103   22.9362 C.ar    1  UNL1        0.0994
      4 C           4.8228   -3.3154   22.2858 C.ar    1  UNL1        0.0207
      5 C           3.8963   -2.3599   22.9776 C.ar    1  UNL1        0.0994
      6 N           4.2626   -1.7992   24.3197 N.ar    1  UNL1       -0.2126
      7 N           5.9215   -1.6333   26.3123 N.pl3   1  UNL1       -0.2990
      8 H           6.5140   -2.1409   26.9127 H       1  UNL1        0.1500
      9 C           5.3850   -0.2993   26.7396 C.3     1  UNL1        0.1181
     10 C           1.3956   -0.0355   28.8048 C.ar    1  UNL1        0.2533
     11 N           2.4989   -0.8544   29.4064 N.ar    1  UNL1       -0.2085
     12 C           3.8287   -0.9424   28.7180 C.ar    1  UNL1        0.0995
     13 C           4.0552   -0.2113   27.4280 C.ar    1  UNL1        0.0191
     14 C           2.9519    0.6077   26.8263 C.ar    1  UNL1        0.0334
     15 C           1.6221    0.6956   27.5147 C.ar    1  UNL1        0.1927
     16 F           0.5188    1.5146   26.9131 F       1  UNL1       -0.1993
     17 C          -1.1551   -0.5277   28.8429 C.3     1  UNL1        0.2543
     18 O           0.0658    0.0525   29.4931 O.3     1  UNL1       -0.4546
     19 C           4.4565   -3.8762   20.9435 C.3     1  UNL1        0.0575
     20 C           4.4912   -2.9971   19.7286 C.ar    1  UNL1        0.0044
     21 C           5.4936   -3.0709   18.6152 C.ar    1  UNL1        0.0966
     22 N           5.1514   -2.0092   17.6123 N.ar    1  UNL1       -0.2273
     23 C           3.9375   -1.2793   18.1059 C.ar    1  UNL1        0.1402
     24 N           3.1510   -0.1375   17.5334 N.ar    1  UNL1       -0.3377
     25 C           1.9565    0.3936   18.2688 C.ar    1  UNL1        0.0691
     26 C           1.5485   -0.2169   19.5767 C.ar    1  UNL1       -0.0047
     27 C           0.3538    0.3144   20.3121 C.3     1  UNL1        0.0326
     28 C           2.3349   -1.3586   20.1493 C.ar    1  UNL1       -0.0001
     29 C           3.5295   -1.8898   19.4139 C.ar    1  UNL1        0.0315
     30 H           3.4189    0.2632   16.6749 H       1  UNL1        0.1674
@<TRIPOS>BOND
     1    17    18    1
     2    18    10    1
     3    10    11   ar
     4    11    12   ar
     5    12    13   ar
     6    13     9    1
     7     9     7    1
     8     7     1    1
     9     1     2   ar
    10     2     3   ar
    11     3     4   ar
    12     4    19    1
    13    19    20    1
    14    20    21   ar
    15    21    22   ar
    16    22    23   ar
    17    23    24   ar
    18    24    25   ar
    19    25    26   ar
    20    26    27    1
    21    26    28   ar
    22    28    29   ar
    23     4     5   ar
    24     5     6   ar
    25    13    14   ar
    26    14    15   ar
    27    15    16    1
    28    15    10   ar
    29     6     1   ar
    30    29    20   ar
    31    29    23    1
    32     7     8    1
    33    24    30    1
@<TRIPOS>MOLECULE
*****
 30 33 0 0 0
SMALL
GASTEIGER

@<TRIPOS>ATOM
      1 C           0.1939    2.6349   23.4166 C.ar    1  UNL1        0.2172
      2 N           1.2044    1.5327   23.5354 N.ar    1  UNL1       -0.2126
      3 C           1.4776    0.6364   22.3641 C.ar    1  UNL1        0.0994
      4 C           0.7403    0.8421   21.0741 C.ar    1  UNL1        0.0207
      5 C          -0.2702    1.9443   20.9553 C.ar    1  UNL1        0.0994
      6 N          -0.5433    2.8407   22.1266 N.ar    1  UNL1       -0.2126
      7 N          -0.0793    3.5314   24.5877 N.pl3   1  UNL1       -0.2990
      8 H           0.3336    4.4240   24.6312 H       1  UNL1        0.1500
      9 C          -0.9817    3.0678   25.6927 C.3     1  UNL1        0.1181
     10 C           0.6855    0.6233   29.0830 C.ar    1  UNL1        0.2533
     11 N           1.5809    1.5501   28.3155 N.ar    1  UNL1       -0.2085
     12 C           1.0252    2.3650   27.1854 C.ar    1  UNL1        0.0995
     13 C          -0.4260    2.2530   26.8228 C.ar    1  UNL1        0.0191
     14 C          -1.3215    1.3261   27.5903 C.ar    1  UNL1        0.0334
     15 C          -0.7657    0.5112   28.7204 C.ar    1  UNL1        0.1927
     16 F          -1.6611   -0.4156   29.4879 F       1  UNL1       -0.1993
     17 C           2.6881   -0.5872   30.2119 C.3     1  UNL1        0.2543
     18 O           1.2412   -0.1916   30.2131 O.3     1  UNL1       -0.4546
     19 C           1.0136   -0.0544   19.9028 C.3     1  UNL1        0.0575
     20 C           2.3362    0.0140   19.1985 C.ar    1  UNL1        0.0044
     21 C           2.9555    1.2437   18.6032 C.ar    1  UNL1        0.0966
     22 N           4.2737    0.8543   18.0026 N.ar    1  UNL1       -0.2273
     23 C           4.4691   -0.6159   18.2267 C.ar    1  UNL1        0.1402
     24 N           5.5827   -1.5488   17.8533 N.ar    1  UNL1       -0.3377
     25 C           5.4988   -3.0011   18.2190 C.ar    1  UNL1        0.0691
     26 C           4.3013   -3.5205   18.9581 C.ar    1  UNL1       -0.0047
     27 C           4.2175   -4.9728   19.3238 C.3     1  UNL1        0.0326
     28 C           3.1877   -2.5875   19.3316 C.ar    1  UNL1       -0.0001
     29 C           3.2716   -1.1353   18.9659 C.ar    1  UNL1        0.0315
     30 H           6.3686   -1.2080   17.3682 H       1  UNL1        0.1674
@<TRIPOS>BOND
     1    17    18    1
     2    18    10    1
     3    10    11   ar
     4    11    12   ar
     5    12    13   ar
     6    13     9    1
     7     9     7    1
     8     7     1    1
     9     1     2   ar
    10     2     3   ar
    11     3     4   ar
    12     4    19    1
    13    19    20    1
    14    20    21   ar
    15    21    22   ar
    16    22    23   ar
    17    23    24   ar
    18    24    25   ar
    19    25    26   ar
    20    26    27    1
    21    26    28   ar
    22    28    29   ar
    23     4     5   ar
    24     5     6   ar
    25    13    14   ar
    26    14    15   ar
    27    15    16    1
    28    15    10   ar
    29     6     1   ar
    30    29    20   ar
    31    29    23    1
    32     7     8    1
    33    24    30    1
@<TRIPOS>MOLECULE
*****
 30 33 0 0 0
SMALL
GASTEIGER

@<TRIPOS>ATOM
      1 C           6.9332   -4.2447   22.5739 C.ar    1  UNL1        0.2172
      2 N           7.1948   -4.3720   21.1023 N.ar    1  UNL1       -0.2126
      3 C           6.1061   -4.0639   20.1177 C.ar    1  UNL1        0.0994
      4 C           4.7557   -3.6286   20.6044 C.ar    1  UNL1        0.0207
      5 C           4.4941   -3.5013   22.0760 C.ar    1  UNL1        0.0994
      6 N           5.5828   -3.8093   23.0606 N.ar    1  UNL1       -0.2126
      7 N           8.0219   -4.5527   23.5586 N.pl3   1  UNL1       -0.2990
      8 H           8.7690   -3.9230   23.6795 H       1  UNL1        0.1500
      9 C           7.9726   -5.8202   24.3593 C.3     1  UNL1        0.1181
     10 C           7.0425   -5.6675   28.7594 C.ar    1  UNL1        0.2533
     11 N           7.8501   -6.8022   28.2025 N.ar    1  UNL1       -0.2085
     12 C           8.1601   -6.8531   26.7358 C.ar    1  UNL1        0.0995
     13 C           7.6625   -5.7693   25.8260 C.ar    1  UNL1        0.0191
     14 C           6.8549   -4.6345   26.3829 C.ar    1  UNL1        0.0334
     15 C           6.5449   -4.5836   27.8496 C.ar    1  UNL1        0.1927
     16 F           5.7373   -3.4489   28.4065 F       1  UNL1       -0.1993
     17 C           7.6091   -4.8251   31.1509 C.3     1  UNL1        0.2543
     18 O           6.7325   -5.6165   30.2261 O.3     1  UNL1       -0.4546
     19 C           3.6669   -3.3205   19.6196 C.3     1  UNL1        0.0575
     20 C           3.6412   -1.9935   18.9207 C.ar    1  UNL1        0.0044
     21 C           4.3622   -1.6520   17.6505 C.ar    1  UNL1        0.0966
     22 N           4.0566   -0.2225   17.3141 N.ar    1  UNL1       -0.2273
     23 C           3.1467    0.3194   18.3764 C.ar    1  UNL1        0.1402
     24 N           2.5187    1.6681   18.5678 N.ar    1  UNL1       -0.3377
     25 C           1.6341    1.9222   19.7521 C.ar    1  UNL1        0.0691
     26 C           1.3773    0.8276   20.7451 C.ar    1  UNL1       -0.0047
     27 C           0.4926    1.0817   21.9295 C.3     1  UNL1        0.0326
     28 C           2.0052   -0.5211   20.5537 C.ar    1  UNL1       -0.0001
     29 C           2.8899   -0.7752   19.3693 C.ar    1  UNL1        0.0315
     30 H           2.6872    2.3865   17.9161 H       1  UNL1        0.1674
@<TRIPOS>BOND
     1    17    18    1
     2    18    10    1
     3    10    11   ar
     4    11    12   ar
     5    12    13   ar
     6    13     9    1
     7     9     7    1
     8     7     1    1
     9     1     2   ar
    10     2     3   ar
    11     3     4   ar
    12     4    19    1
    13    19    20    1
    14    20    21   ar
    15    21    22   ar
    16    22    23   ar
    17    23    24   ar
    18    24    25   ar
    19    25    26   ar
    20    26    27    1
    21    26    28   ar
    22    28    29   ar
    23     4     5   ar
    24     5     6   ar
    25    13    14   ar
    26    14    15   ar
    27    15    16    1
    28    15    10   ar
    29     6     1   ar
    30    29    20   ar
    31    29    23    1
    32     7     8    1
    33    24    30    1
