@<TRIPOS>MOLECULE
*****
 22 24 0 0 0
SMALL
GASTEIGER

@<TRIPOS>ATOM
      1 C          -7.7251  -18.0661   22.7260 C.3     1  UNL1        0.2067
      2 C          -6.4105  -18.4215   22.0972 C.ar    1  UNL1        0.0986
      3 C          -6.3785  -19.1737   20.7999 C.ar    1  UNL1        0.0183
      4 C          -5.0638  -19.5291   20.1712 C.ar    1  UNL1        0.0029
      5 C          -3.7811  -19.1323   20.8398 C.ar    1  UNL1        0.0207
      6 C          -3.8130  -18.3801   22.1372 C.ar    1  UNL1        0.0986
      7 N          -5.1277  -18.0247   22.7659 N.ar    1  UNL1       -0.2446
      8 C          -7.8757  -16.7715   23.4686 C.3     1  UNL1        0.0631
      9 C          -8.4395  -16.6074   24.8489 C.3     1  UNL1        0.0225
     10 C          -8.4012  -15.1482   25.1947 C.3     1  UNL1        0.0687
     11 N          -7.8137  -14.4107   24.0281 N.3     1  UNL1       -0.2973
     12 C          -7.4890  -15.4139   22.9613 C.3     1  UNL1        0.0726
     13 H          -6.9643  -13.9257   24.3173 H       1  UNL1        0.1232
     14 O          -8.8892  -19.0052   22.6121 O.3     1  UNL1       -0.4723
     15 CL        -13.8254  -18.0031   23.8888 Cl      1  UNL1       -0.0813
     16 C         -12.7128  -17.9773   22.8831 C.ar    1  UNL1        0.0712
     17 C         -12.9558  -17.4246   21.5099 C.ar    1  UNL1        0.0125
     18 C         -11.8432  -17.3988   20.5042 C.ar    1  UNL1        0.0040
     19 C         -10.4877  -17.9256   20.8716 C.ar    1  UNL1        0.0378
     20 C         -10.2448  -18.4783   22.2447 C.ar    1  UNL1        0.1502
     21 C         -11.3573  -18.5042   23.2504 C.ar    1  UNL1        0.1020
     22 CL        -11.1143  -19.0569   24.6236 Cl      1  UNL1       -0.0782
@<TRIPOS>BOND
     1    15    16    1
     2    16    17   ar
     3    17    18   ar
     4    18    19   ar
     5    19    20   ar
     6    20    14    1
     7    14     1    1
     8     1     2    1
     9     2     3   ar
    10     3     4   ar
    11     4     5   ar
    12     5     6   ar
    13     6     7   ar
    14     8     1    1
    15     8     9    1
    16     9    10    1
    17    10    11    1
    18    11    12    1
    19    20    21   ar
    20    21    22    1
    21    21    16   ar
    22     7     2   ar
    23    12     8    1
    24    11    13    1
@<TRIPOS>MOLECULE
*****
 22 24 0 0 0
SMALL
GASTEIGER

@<TRIPOS>ATOM
      1 C          -8.1556  -17.2807   21.8842 C.3     1  UNL1        0.2067
      2 C          -9.6455  -17.4395   21.8151 C.ar    1  UNL1        0.0986
      3 C         -10.3406  -18.4016   22.7323 C.ar    1  UNL1        0.0183
      4 C         -11.8305  -18.5604   22.6632 C.ar    1  UNL1        0.0029
      5 C         -12.6255  -17.7571   21.6769 C.ar    1  UNL1        0.0207
      6 C         -11.9304  -16.7950   20.7596 C.ar    1  UNL1        0.0986
      7 N         -10.4405  -16.6362   20.8287 N.ar    1  UNL1       -0.2446
      8 C          -7.2612  -18.4275   21.5166 C.3     1  UNL1        0.0631
      9 C          -7.4508  -19.3557   20.3536 C.3     1  UNL1        0.0225
     10 C          -6.3271  -20.3494   20.3657 C.3     1  UNL1        0.0687
     11 N          -5.4431  -20.0351   21.5361 N.3     1  UNL1       -0.2973
     12 C          -6.0204  -18.8474   22.2474 C.3     1  UNL1        0.0726
     13 H          -4.5010  -19.8192   21.2102 H       1  UNL1        0.1232
     14 O          -7.5599  -15.9752   22.3209 O.3     1  UNL1       -0.4723
     15 CL         -8.4248  -15.3208   27.4026 Cl      1  UNL1       -0.0813
     16 C          -7.4694  -15.4922   26.2589 C.ar    1  UNL1        0.0712
     17 C          -5.9911  -15.5078   26.5125 C.ar    1  UNL1        0.0125
     18 C          -5.0357  -15.6791   25.3690 C.ar    1  UNL1        0.0040
     19 C          -5.5587  -15.8349   23.9718 C.ar    1  UNL1        0.0378
     20 C          -7.0370  -15.8193   23.7182 C.ar    1  UNL1        0.1502
     21 C          -7.9924  -15.6480   24.8617 C.ar    1  UNL1        0.1020
     22 CL         -9.4707  -15.6324   24.6081 Cl      1  UNL1       -0.0782
@<TRIPOS>BOND
     1    15    16    1
     2    16    17   ar
     3    17    18   ar
     4    18    19   ar
     5    19    20   ar
     6    20    14    1
     7    14     1    1
     8     1     2    1
     9     2     3   ar
    10     3     4   ar
    11     4     5   ar
    12     5     6   ar
    13     6     7   ar
    14     8     1    1
    15     8     9    1
    16     9    10    1
    17    10    11    1
    18    11    12    1
    19    20    21   ar
    20    21    22    1
    21    21    16   ar
    22     7     2   ar
    23    12     8    1
    24    11    13    1
@<TRIPOS>MOLECULE
*****
 22 24 0 0 0
SMALL
GASTEIGER

@<TRIPOS>ATOM
      1 C          -7.0105  -18.4280   22.1286 C.3     1  UNL1        0.2067
      2 C          -5.6621  -18.7921   21.5815 C.ar    1  UNL1        0.0986
      3 C          -4.5640  -19.2137   22.5122 C.ar    1  UNL1        0.0183
      4 C          -3.2156  -19.5778   21.9651 C.ar    1  UNL1        0.0029
      5 C          -2.9653  -19.5202   20.4873 C.ar    1  UNL1        0.0207
      6 C          -4.0635  -19.0985   19.5565 C.ar    1  UNL1        0.0986
      7 N          -5.4119  -18.7344   20.1036 N.ar    1  UNL1       -0.2446
      8 C          -7.2426  -17.0623   22.7040 C.3     1  UNL1        0.0631
      9 C          -6.6224  -16.5160   23.9558 C.3     1  UNL1        0.0225
     10 C          -7.1321  -15.1192   24.1542 C.3     1  UNL1        0.0687
     11 N          -8.0674  -14.8024   23.0250 N.3     1  UNL1       -0.2973
     12 C          -8.1357  -16.0033   22.1288 C.3     1  UNL1        0.0726
     13 H          -7.7187  -13.9993   22.5016 H       1  UNL1        0.1232
     14 O          -8.1267  -19.4296   22.1003 O.3     1  UNL1       -0.4723
     15 CL        -13.0110  -17.7724   21.4693 Cl      1  UNL1       -0.0813
     16 C         -11.9066  -18.2497   22.3652 C.ar    1  UNL1        0.0712
     17 C         -12.1401  -18.3757   23.8416 C.ar    1  UNL1        0.0125
     18 C         -11.0358  -18.8529   24.7375 C.ar    1  UNL1        0.0040
     19 C          -9.6980  -19.2042   24.1571 C.ar    1  UNL1        0.0378
     20 C          -9.4646  -19.0783   22.6807 C.ar    1  UNL1        0.1502
     21 C         -10.5688  -18.6010   21.7848 C.ar    1  UNL1        0.1020
     22 CL        -10.3354  -18.4751   20.3084 Cl      1  UNL1       -0.0782
@<TRIPOS>BOND
     1    15    16    1
     2    16    17   ar
     3    17    18   ar
     4    18    19   ar
     5    19    20   ar
     6    20    14    1
     7    14     1    1
     8     1     2    1
     9     2     3   ar
    10     3     4   ar
    11     4     5   ar
    12     5     6   ar
    13     6     7   ar
    14     8     1    1
    15     8     9    1
    16     9    10    1
    17    10    11    1
    18    11    12    1
    19    20    21   ar
    20    21    22    1
    21    21    16   ar
    22     7     2   ar
    23    12     8    1
    24    11    13    1
@<TRIPOS>MOLECULE
*****
 22 24 0 0 0
SMALL
GASTEIGER

@<TRIPOS>ATOM
      1 C          -7.9755  -17.8244   22.5957 C.3     1  UNL1        0.2067
      2 C          -9.0625  -17.9755   21.5732 C.ar    1  UNL1        0.0986
      3 C          -9.2520  -19.2858   20.8682 C.ar    1  UNL1        0.0183
      4 C         -10.3390  -19.4370   19.8456 C.ar    1  UNL1        0.0029
      5 C         -11.2365  -18.2778   19.5282 C.ar    1  UNL1        0.0207
      6 C         -11.0470  -16.9674   20.2332 C.ar    1  UNL1        0.0986
      7 N          -9.9600  -16.8163   21.2558 N.ar    1  UNL1       -0.2446
      8 C          -7.9394  -16.6120   23.4784 C.3     1  UNL1        0.0631
      9 C          -8.5231  -16.5069   24.8561 C.3     1  UNL1        0.0225
     10 C          -8.2577  -15.1218   25.3675 C.3     1  UNL1        0.0687
     11 N          -7.5100  -14.3711   24.3056 N.3     1  UNL1       -0.2973
     12 C          -7.3133  -15.2921   23.1381 C.3     1  UNL1        0.0726
     13 H          -6.6043  -14.0712   24.6664 H       1  UNL1        0.1232
     14 O          -6.9247  -18.8855   22.7357 O.3     1  UNL1       -0.4723
     15 CL         -3.0877  -19.3958   19.2690 Cl      1  UNL1       -0.0813
     16 C          -3.5959  -18.8606   20.5749 C.ar    1  UNL1        0.0712
     17 C          -2.6939  -18.0454   21.4534 C.ar    1  UNL1        0.0125
     18 C          -3.2020  -17.5102   22.7592 C.ar    1  UNL1        0.0040
     19 C          -4.6123  -17.7903   23.1866 C.ar    1  UNL1        0.0378
     20 C          -5.5143  -18.6055   22.3082 C.ar    1  UNL1        0.1502
     21 C          -5.0062  -19.1407   21.0023 C.ar    1  UNL1        0.1020
     22 CL         -5.9083  -19.9559   20.1239 Cl      1  UNL1       -0.0782
@<TRIPOS>BOND
     1    15    16    1
     2    16    17   ar
     3    17    18   ar
     4    18    19   ar
     5    19    20   ar
     6    20    14    1
     7    14     1    1
     8     1     2    1
     9     2     3   ar
    10     3     4   ar
    11     4     5   ar
    12     5     6   ar
    13     6     7   ar
    14     8     1    1
    15     8     9    1
    16     9    10    1
    17    10    11    1
    18    11    12    1
    19    20    21   ar
    20    21    22    1
    21    21    16   ar
    22     7     2   ar
    23    12     8    1
    24    11    13    1
@<TRIPOS>MOLECULE
*****
 22 24 0 0 0
SMALL
GASTEIGER

@<TRIPOS>ATOM
      1 C          -7.6587  -18.5690   22.4588 C.3     1  UNL1        0.2067
      2 C          -7.5628  -17.2969   23.2478 C.ar    1  UNL1        0.0986
      3 C          -8.6527  -16.9270   24.2097 C.ar    1  UNL1        0.0183
      4 C          -8.5569  -15.6549   24.9987 C.ar    1  UNL1        0.0029
      5 C          -7.3711  -14.7526   24.8258 C.ar    1  UNL1        0.0207
      6 C          -6.2812  -15.1225   23.8639 C.ar    1  UNL1        0.0986
      7 N          -6.3770  -16.3946   23.0749 N.ar    1  UNL1       -0.2446
      8 C          -6.4891  -19.0360   21.6438 C.3     1  UNL1        0.0631
      9 C          -5.1910  -19.5587   22.1837 C.3     1  UNL1        0.0225
     10 C          -4.3119  -19.9080   21.0194 C.3     1  UNL1        0.0687
     11 N          -5.0669  -19.6011   19.7601 N.3     1  UNL1       -0.2973
     12 C          -6.4125  -19.0622   20.1460 C.3     1  UNL1        0.0726
     13 H          -5.1799  -20.4515   19.2083 H       1  UNL1        0.1232
     14 O          -8.9240  -19.3741   22.4848 O.3     1  UNL1       -0.4723
     15 CL        -13.7642  -18.0081   23.7913 Cl      1  UNL1       -0.0813
     16 C         -12.6514  -18.0452   22.7861 C.ar    1  UNL1        0.0712
     17 C         -12.8459  -17.4365   21.4291 C.ar    1  UNL1        0.0125
     18 C         -11.7331  -17.4736   20.4239 C.ar    1  UNL1        0.0040
     19 C         -10.4258  -18.1194   20.7758 C.ar    1  UNL1        0.0378
     20 C         -10.2314  -18.7282   22.1329 C.ar    1  UNL1        0.1502
     21 C         -11.3441  -18.6911   23.1380 C.ar    1  UNL1        0.1020
     22 CL        -11.1496  -19.2999   24.4951 Cl      1  UNL1       -0.0782
@<TRIPOS>BOND
     1    15    16    1
     2    16    17   ar
     3    17    18   ar
     4    18    19   ar
     5    19    20   ar
     6    20    14    1
     7    14     1    1
     8     1     2    1
     9     2     3   ar
    10     3     4   ar
    11     4     5   ar
    12     5     6   ar
    13     6     7   ar
    14     8     1    1
    15     8     9    1
    16     9    10    1
    17    10    11    1
    18    11    12    1
    19    20    21   ar
    20    21    22    1
    21    21    16   ar
    22     7     2   ar
    23    12     8    1
    24    11    13    1
@<TRIPOS>MOLECULE
*****
 22 24 0 0 0
SMALL
GASTEIGER

@<TRIPOS>ATOM
      1 C          -8.4163  -17.2735   21.9420 C.3     1  UNL1        0.2067
      2 C          -9.9067  -17.4348   21.8901 C.ar    1  UNL1        0.0986
      3 C         -10.7089  -16.6709   20.8788 C.ar    1  UNL1        0.0183
      4 C         -12.1993  -16.8322   20.8269 C.ar    1  UNL1        0.0029
      5 C         -12.8875  -17.7575   21.7863 C.ar    1  UNL1        0.0207
      6 C         -12.0852  -18.5214   22.7976 C.ar    1  UNL1        0.0986
      7 N         -10.5948  -18.3601   22.8495 N.ar    1  UNL1       -0.2446
      8 C          -7.5246  -18.3944   21.4963 C.3     1  UNL1        0.0631
      9 C          -6.2182  -18.7839   22.1222 C.3     1  UNL1        0.0225
     10 C          -5.6689  -19.9528   21.3592 C.3     1  UNL1        0.0687
     11 N          -6.6359  -20.2857   20.2618 N.3     1  UNL1       -0.2973
     12 C          -7.7828  -19.3226   20.3466 C.3     1  UNL1        0.0726
     13 H          -6.9762  -21.2402   20.3781 H       1  UNL1        0.1232
     14 O          -7.8175  -15.9914   22.4395 O.3     1  UNL1       -0.4723
     15 CL         -4.6563  -14.8625   26.4060 Cl      1  UNL1       -0.0813
     16 C          -6.0192  -15.2216   25.8926 C.ar    1  UNL1        0.0712
     17 C          -7.1645  -15.3754   26.8491 C.ar    1  UNL1        0.0125
     18 C          -8.5273  -15.7344   26.3357 C.ar    1  UNL1        0.0040
     19 C          -8.7450  -15.9398   24.8659 C.ar    1  UNL1        0.0378
     20 C          -7.5998  -15.7860   23.9094 C.ar    1  UNL1        0.1502
     21 C          -6.2369  -15.4270   24.4228 C.ar    1  UNL1        0.1020
     22 CL         -5.0917  -15.2732   23.4663 Cl      1  UNL1       -0.0782
@<TRIPOS>BOND
     1    15    16    1
     2    16    17   ar
     3    17    18   ar
     4    18    19   ar
     5    19    20   ar
     6    20    14    1
     7    14     1    1
     8     1     2    1
     9     2     3   ar
    10     3     4   ar
    11     4     5   ar
    12     5     6   ar
    13     6     7   ar
    14     8     1    1
    15     8     9    1
    16     9    10    1
    17    10    11    1
    18    11    12    1
    19    20    21   ar
    20    21    22    1
    21    21    16   ar
    22     7     2   ar
    23    12     8    1
    24    11    13    1
@<TRIPOS>MOLECULE
*****
 22 24 0 0 0
SMALL
GASTEIGER

@<TRIPOS>ATOM
      1 C          -9.5823  -17.9875   24.0723 C.3     1  UNL1        0.2067
      2 C          -8.8083  -17.1263   25.0259 C.ar    1  UNL1        0.0986
      3 C          -9.0323  -17.2547   26.5034 C.ar    1  UNL1        0.0183
      4 C          -8.2583  -16.3935   27.4570 C.ar    1  UNL1        0.0029
      5 C          -7.2604  -15.4038   26.9330 C.ar    1  UNL1        0.0207
      6 C          -7.0364  -15.2753   25.4553 C.ar    1  UNL1        0.0986
      7 N          -7.8104  -16.1365   24.5018 N.ar    1  UNL1       -0.2446
      8 C         -10.9393  -17.5540   23.6024 C.3     1  UNL1        0.0631
      9 C         -12.2301  -18.2772   23.8488 C.3     1  UNL1        0.0225
     10 C         -13.3323  -17.4914   23.2023 C.3     1  UNL1        0.0687
     11 N         -12.7225  -16.2827   22.5564 N.3     1  UNL1       -0.2973
     12 C         -11.2436  -16.3214   22.8037 C.3     1  UNL1        0.0726
     13 H         -13.1194  -15.4356   22.9631 H       1  UNL1        0.1232
     14 O          -8.9993  -19.2821   23.5886 O.3     1  UNL1       -0.4723
     15 CL         -8.9712  -19.9097   18.4305 Cl      1  UNL1       -0.0813
     16 C          -8.2364  -19.6424   19.7107 C.ar    1  UNL1        0.0712
     17 C          -6.7529  -19.4216   19.6919 C.ar    1  UNL1        0.0125
     18 C          -6.0181  -19.1543   20.9720 C.ar    1  UNL1        0.0040
     19 C          -6.7669  -19.1078   22.2709 C.ar    1  UNL1        0.0378
     20 C          -8.2505  -19.3286   22.2896 C.ar    1  UNL1        0.1502
     21 C          -8.9852  -19.5959   21.0096 C.ar    1  UNL1        0.1020
     22 CL        -10.4688  -19.8167   21.0283 Cl      1  UNL1       -0.0782
@<TRIPOS>BOND
     1    15    16    1
     2    16    17   ar
     3    17    18   ar
     4    18    19   ar
     5    19    20   ar
     6    20    14    1
     7    14     1    1
     8     1     2    1
     9     2     3   ar
    10     3     4   ar
    11     4     5   ar
    12     5     6   ar
    13     6     7   ar
    14     8     1    1
    15     8     9    1
    16     9    10    1
    17    10    11    1
    18    11    12    1
    19    20    21   ar
    20    21    22    1
    21    21    16   ar
    22     7     2   ar
    23    12     8    1
    24    11    13    1
@<TRIPOS>MOLECULE
*****
 22 24 0 0 0
SMALL
GASTEIGER

@<TRIPOS>ATOM
      1 C          -9.4869  -17.1923   22.8330 C.3     1  UNL1        0.2067
      2 C         -10.5707  -16.8204   21.8649 C.ar    1  UNL1        0.0986
      3 C         -10.2408  -16.0165   20.6423 C.ar    1  UNL1        0.0183
      4 C         -11.3246  -15.6446   19.6742 C.ar    1  UNL1        0.0029
      5 C         -12.7383  -16.0765   19.9289 C.ar    1  UNL1        0.0207
      6 C         -13.0682  -16.8805   21.1515 C.ar    1  UNL1        0.0986
      7 N         -11.9845  -17.2524   22.1196 N.ar    1  UNL1       -0.2446
      8 C          -9.5764  -18.4774   23.6015 C.3     1  UNL1        0.0631
      9 C          -9.0243  -19.8034   23.1691 C.3     1  UNL1        0.0225
     10 C          -9.3403  -20.8077   24.2377 C.3     1  UNL1        0.0687
     11 N         -10.0876  -20.1022   25.3304 N.3     1  UNL1       -0.2973
     12 C         -10.2335  -18.6620   24.9372 C.3     1  UNL1        0.0726
     13 H          -9.5681  -20.1712   26.2055 H       1  UNL1        0.1232
     14 O          -8.3138  -16.2792   23.0325 O.3     1  UNL1       -0.4723
     15 CL         -4.4159  -15.7750   26.4315 Cl      1  UNL1       -0.0813
     16 C          -5.8818  -15.7186   26.1181 C.ar    1  UNL1        0.0712
     17 C          -6.8646  -15.3537   27.1910 C.ar    1  UNL1        0.0125
     18 C          -8.3304  -15.2973   26.8777 C.ar    1  UNL1        0.0040
     19 C          -8.8134  -15.6058   25.4915 C.ar    1  UNL1        0.0378
     20 C          -7.8307  -15.9707   24.4187 C.ar    1  UNL1        0.1502
     21 C          -6.3649  -16.0271   24.7320 C.ar    1  UNL1        0.1020
     22 CL         -5.3821  -16.3920   23.6591 Cl      1  UNL1       -0.0782
@<TRIPOS>BOND
     1    15    16    1
     2    16    17   ar
     3    17    18   ar
     4    18    19   ar
     5    19    20   ar
     6    20    14    1
     7    14     1    1
     8     1     2    1
     9     2     3   ar
    10     3     4   ar
    11     4     5   ar
    12     5     6   ar
    13     6     7   ar
    14     8     1    1
    15     8     9    1
    16     9    10    1
    17    10    11    1
    18    11    12    1
    19    20    21   ar
    20    21    22    1
    21    21    16   ar
    22     7     2   ar
    23    12     8    1
    24    11    13    1
@<TRIPOS>MOLECULE
*****
 22 24 0 0 0
SMALL
GASTEIGER

@<TRIPOS>ATOM
      1 C          -9.0408  -17.7329   22.3862 C.3     1  UNL1        0.2067
      2 C          -7.9399  -18.5816   21.8226 C.ar    1  UNL1        0.0986
      3 C          -7.5784  -19.8780   22.4848 C.ar    1  UNL1        0.0183
      4 C          -6.4774  -20.7267   21.9212 C.ar    1  UNL1        0.0029
      5 C          -5.7380  -20.2790   20.6953 C.ar    1  UNL1        0.0207
      6 C          -6.0995  -18.9825   20.0330 C.ar    1  UNL1        0.0986
      7 N          -7.2005  -18.1338   20.5967 N.ar    1  UNL1       -0.2446
      8 C         -10.1676  -17.2831   21.5041 C.3     1  UNL1        0.0631
      9 C         -10.5477  -17.8850   20.1837 C.3     1  UNL1        0.0225
     10 C         -11.7271  -17.1264   19.6510 C.3     1  UNL1        0.0687
     11 N         -12.0758  -16.0558   20.6421 N.3     1  UNL1       -0.2973
     12 C         -11.1120  -16.1527   21.7874 C.3     1  UNL1        0.0726
     13 H         -13.0287  -16.1931   20.9791 H       1  UNL1        0.1232
     14 O          -9.0150  -17.3340   23.8320 O.3     1  UNL1       -0.4723
     15 CL         -6.5756  -15.0898   27.8337 Cl      1  UNL1       -0.0813
     16 C          -6.6402  -15.4215   26.3722 C.ar    1  UNL1        0.0712
     17 C          -5.5497  -14.9627   25.4501 C.ar    1  UNL1        0.0125
     18 C          -5.6142  -15.2943   23.9887 C.ar    1  UNL1        0.0040
     19 C          -6.7693  -16.0847   23.4493 C.ar    1  UNL1        0.0378
     20 C          -7.8599  -16.5435   24.3714 C.ar    1  UNL1        0.1502
     21 C          -7.7953  -16.2119   25.8328 C.ar    1  UNL1        0.1020
     22 CL         -8.8859  -16.6707   26.7549 Cl      1  UNL1       -0.0782
@<TRIPOS>BOND
     1    15    16    1
     2    16    17   ar
     3    17    18   ar
     4    18    19   ar
     5    19    20   ar
     6    20    14    1
     7    14     1    1
     8     1     2    1
     9     2     3   ar
    10     3     4   ar
    11     4     5   ar
    12     5     6   ar
    13     6     7   ar
    14     8     1    1
    15     8     9    1
    16     9    10    1
    17    10    11    1
    18    11    12    1
    19    20    21   ar
    20    21    22    1
    21    21    16   ar
    22     7     2   ar
    23    12     8    1
    24    11    13    1
