@<TRIPOS>MOLECULE
*****
 16 17 0 0 0
SMALL
GASTEIGER

@<TRIPOS>ATOM
      1 C          -4.0169  -19.1809   19.8957 C.ar    1  UNL1        0.1342
      2 C          -4.2637  -20.6521   20.0533 C.ar    1  UNL1        0.0370
      3 C          -5.7345  -20.8551   20.2664 C.ar    1  UNL1        0.0403
      4 C          -6.3968  -19.5094   20.2405 C.ar    1  UNL1        0.1464
      5 O          -5.3353  -18.4747   20.0114 O.2     1  UNL1       -0.4568
      6 C          -7.8632  -19.2450   20.4134 C.ar    1  UNL1        0.0537
      7 C          -8.8319  -19.6659   19.3483 C.ar    1  UNL1        0.0062
      8 C         -10.2982  -19.4014   19.5212 C.ar    1  UNL1        0.0208
      9 C         -10.7958  -18.7160   20.7592 C.ar    1  UNL1        0.0989
     10 N          -9.8271  -18.2951   21.8243 N.ar    1  UNL1       -0.2422
     11 C          -8.3608  -18.5596   21.6514 C.ar    1  UNL1        0.1019
     12 C          -2.6856  -18.5301   19.6632 C.3     1  UNL1        0.1291
     13 S          -1.8886  -18.0166   20.8256 S.3     1  UNL1       -0.0690
     14 C          -3.0996  -17.9142   23.1219 C.3     1  UNL1        0.0845
     15 C          -2.5627  -17.2218   21.9045 C.2     1  UNL1        0.1996
     16 O          -2.6999  -15.7346   21.7658 O.2     1  UNL1       -0.2845
@<TRIPOS>BOND
     1    14    15    1
     2    15    16    2
     3    15    13    1
     4    13    12    1
     5    12     1    1
     6     1     2   ar
     7     2     3   ar
     8     3     4   ar
     9     4     6    1
    10     6     7   ar
    11     7     8   ar
    12     8     9   ar
    13     9    10   ar
    14    10    11   ar
    15     4     5   ar
    16     5     1   ar
    17    11     6   ar
@<TRIPOS>MOLECULE
*****
 16 17 0 0 0
SMALL
GASTEIGER

@<TRIPOS>ATOM
      1 C          -3.8174  -18.9968   21.3270 C.ar    1  UNL1        0.1342
      2 C          -3.8153  -20.2535   20.5080 C.ar    1  UNL1        0.0370
      3 C          -5.2397  -20.6077   20.1989 C.ar    1  UNL1        0.0403
      4 C          -6.1222  -19.5699   20.8268 C.ar    1  UNL1        0.1464
      5 O          -5.2432  -18.5743   21.5240 O.2     1  UNL1       -0.4568
      6 C          -7.6206  -19.5341   20.7679 C.ar    1  UNL1        0.0537
      7 C          -8.3230  -19.6752   19.4500 C.ar    1  UNL1        0.0062
      8 C          -9.8213  -19.6393   19.3911 C.ar    1  UNL1        0.0208
      9 C         -10.6174  -19.4624   20.6501 C.ar    1  UNL1        0.0989
     10 N          -9.9151  -19.3213   21.9679 N.ar    1  UNL1       -0.2422
     11 C          -8.4167  -19.3571   22.0268 C.ar    1  UNL1        0.1019
     12 C          -2.6064  -18.2871   21.8561 C.3     1  UNL1        0.1291
     13 S          -1.8087  -17.3915   20.9553 S.3     1  UNL1       -0.0690
     14 C          -1.8724  -17.7145   18.3781 C.3     1  UNL1        0.0845
     15 C          -1.1996  -17.9411   19.6995 C.2     1  UNL1        0.1996
     16 O           0.0823  -18.7172   19.7651 O.2     1  UNL1       -0.2845
@<TRIPOS>BOND
     1    14    15    1
     2    15    16    2
     3    15    13    1
     4    13    12    1
     5    12     1    1
     6     1     2   ar
     7     2     3   ar
     8     3     4   ar
     9     4     6    1
    10     6     7   ar
    11     7     8   ar
    12     8     9   ar
    13     9    10   ar
    14    10    11   ar
    15     4     5   ar
    16     5     1   ar
    17    11     6   ar
@<TRIPOS>MOLECULE
*****
 16 17 0 0 0
SMALL
GASTEIGER

@<TRIPOS>ATOM
      1 C          -5.6666  -19.2770   20.5030 C.ar    1  UNL1        0.1342
      2 C          -5.9328  -20.1236   21.7123 C.ar    1  UNL1        0.0370
      3 C          -7.3214  -19.8222   22.1926 C.ar    1  UNL1        0.0403
      4 C          -7.9135  -18.7893   21.2802 C.ar    1  UNL1        0.1464
      5 O          -6.8908  -18.4524   20.2359 O.2     1  UNL1       -0.4568
      6 C          -9.2873  -18.1972   21.3923 C.ar    1  UNL1        0.0537
      7 C         -10.4810  -18.9796   20.9311 C.ar    1  UNL1        0.0062
      8 C         -11.8547  -18.3875   21.0432 C.ar    1  UNL1        0.0208
      9 C         -12.0345  -17.0131   21.6166 C.ar    1  UNL1        0.0989
     10 N         -10.8407  -16.2308   22.0778 N.ar    1  UNL1       -0.2422
     11 C          -9.4671  -16.8229   21.9657 C.ar    1  UNL1        0.1019
     12 C          -4.3989  -19.2584   19.7014 C.3     1  UNL1        0.1291
     13 S          -3.1973  -18.5223   20.2155 S.3     1  UNL1       -0.0690
     14 C          -2.5455  -18.0350   22.6829 C.3     1  UNL1        0.0845
     15 C          -2.5454  -18.9525   21.4962 C.2     1  UNL1        0.1996
     16 O          -1.8936  -20.3002   21.5901 O.2     1  UNL1       -0.2845
@<TRIPOS>BOND
     1    14    15    1
     2    15    16    2
     3    15    13    1
     4    13    12    1
     5    12     1    1
     6     1     2   ar
     7     2     3   ar
     8     3     4   ar
     9     4     6    1
    10     6     7   ar
    11     7     8   ar
    12     8     9   ar
    13     9    10   ar
    14    10    11   ar
    15     4     5   ar
    16     5     1   ar
    17    11     6   ar
@<TRIPOS>MOLECULE
*****
 16 17 0 0 0
SMALL
GASTEIGER

@<TRIPOS>ATOM
      1 C          -7.8413  -18.7543   21.3903 C.ar    1  UNL1        0.1342
      2 C          -7.4745  -19.9415   22.2306 C.ar    1  UNL1        0.0370
      3 C          -5.9941  -20.1529   22.1131 C.ar    1  UNL1        0.0403
      4 C          -5.4460  -19.0965   21.2001 C.ar    1  UNL1        0.1464
      5 O          -6.5877  -18.2321   20.7534 O.2     1  UNL1       -0.4568
      6 C          -4.0086  -18.9331   20.8035 C.ar    1  UNL1        0.0537
      7 C          -3.6577  -18.5512   19.3960 C.ar    1  UNL1        0.0062
      8 C          -2.2204  -18.3879   18.9995 C.ar    1  UNL1        0.0208
      9 C          -1.1339  -18.6063   20.0104 C.ar    1  UNL1        0.0989
     10 N          -1.4849  -18.9881   21.4178 N.ar    1  UNL1       -0.2422
     11 C          -2.9222  -19.1515   21.8144 C.ar    1  UNL1        0.1019
     12 C          -9.2198  -18.1888   21.2172 C.3     1  UNL1        0.1291
     13 S          -9.6338  -16.9721   21.9907 S.3     1  UNL1       -0.0690
     14 C          -8.2561  -15.9469   23.9403 C.3     1  UNL1        0.0845
     15 C          -8.5964  -16.0058   22.4806 C.2     1  UNL1        0.1996
     16 O          -7.8993  -15.0985   21.5107 O.2     1  UNL1       -0.2845
@<TRIPOS>BOND
     1    14    15    1
     2    15    16    2
     3    15    13    1
     4    13    12    1
     5    12     1    1
     6     1     2   ar
     7     2     3   ar
     8     3     4   ar
     9     4     6    1
    10     6     7   ar
    11     7     8   ar
    12     8     9   ar
    13     9    10   ar
    14    10    11   ar
    15     4     5   ar
    16     5     1   ar
    17    11     6   ar
@<TRIPOS>MOLECULE
*****
 16 17 0 0 0
SMALL
GASTEIGER

@<TRIPOS>ATOM
      1 C          -4.6062  -18.9101   21.6326 C.ar    1  UNL1        0.1342
      2 C          -4.9657  -20.0851   20.7721 C.ar    1  UNL1        0.0370
      3 C          -6.4366  -20.3374   20.9234 C.ar    1  UNL1        0.0403
      4 C          -6.9861  -19.3185   21.8773 C.ar    1  UNL1        0.1464
      5 O          -5.8548  -18.4364   22.3156 O.2     1  UNL1       -0.4568
      6 C          -8.4159  -19.2021   22.3158 C.ar    1  UNL1        0.0537
      7 C          -8.9632  -20.1444   23.3466 C.ar    1  UNL1        0.0062
      8 C         -10.3929  -20.0280   23.7851 C.ar    1  UNL1        0.0208
      9 C         -11.2753  -18.9694   23.1929 C.ar    1  UNL1        0.0989
     10 N         -10.7279  -18.0271   22.1621 N.ar    1  UNL1       -0.2422
     11 C          -9.2982  -18.1435   21.7236 C.ar    1  UNL1        0.1019
     12 C          -3.2382  -18.3136   21.7835 C.3     1  UNL1        0.1291
     13 S          -2.0422  -19.0309   21.2312 S.3     1  UNL1       -0.0690
     14 C          -2.1785  -17.8127   18.9404 C.3     1  UNL1        0.0845
     15 C          -1.3745  -18.5272   19.9859 C.2     1  UNL1        0.1996
     16 O           0.0970  -18.7381   19.7862 O.2     1  UNL1       -0.2845
@<TRIPOS>BOND
     1    14    15    1
     2    15    16    2
     3    15    13    1
     4    13    12    1
     5    12     1    1
     6     1     2   ar
     7     2     3   ar
     8     3     4   ar
     9     4     6    1
    10     6     7   ar
    11     7     8   ar
    12     8     9   ar
    13     9    10   ar
    14    10    11   ar
    15     4     5   ar
    16     5     1   ar
    17    11     6   ar
@<TRIPOS>MOLECULE
*****
 16 17 0 0 0
SMALL
GASTEIGER

@<TRIPOS>ATOM
      1 C          -8.7336  -17.7630   22.2976 C.ar    1  UNL1        0.1342
      2 C          -8.8634  -19.2267   22.5994 C.ar    1  UNL1        0.0370
      3 C          -7.5365  -19.8740   22.3343 C.ar    1  UNL1        0.0403
      4 C          -6.5866  -18.8106   21.8687 C.ar    1  UNL1        0.1464
      5 O          -7.3265  -17.5059   21.8460 O.2     1  UNL1       -0.4568
      6 C          -5.1493  -19.0158   21.4919 C.ar    1  UNL1        0.0537
      7 C          -4.7839  -19.3310   20.0717 C.ar    1  UNL1        0.0062
      8 C          -3.3466  -19.5362   19.6949 C.ar    1  UNL1        0.0208
      9 C          -2.2746  -19.4261   20.7384 C.ar    1  UNL1        0.0989
     10 N          -2.6400  -19.1108   22.1586 N.ar    1  UNL1       -0.2422
     11 C          -4.0773  -18.9057   22.5354 C.ar    1  UNL1        0.1019
     12 C          -9.8201  -16.7368   22.4251 C.3     1  UNL1        0.1291
     13 S         -11.2319  -17.0902   22.0620 S.3     1  UNL1       -0.0690
     14 C         -11.0639  -18.2072   19.7223 C.3     1  UNL1        0.0845
     15 C         -11.6420  -17.1542   20.6205 C.2     1  UNL1        0.1996
     16 O         -12.6303  -16.1651   20.0774 O.2     1  UNL1       -0.2845
@<TRIPOS>BOND
     1    14    15    1
     2    15    16    2
     3    15    13    1
     4    13    12    1
     5    12     1    1
     6     1     2   ar
     7     2     3   ar
     8     3     4   ar
     9     4     6    1
    10     6     7   ar
    11     7     8   ar
    12     8     9   ar
    13     9    10   ar
    14    10    11   ar
    15     4     5   ar
    16     5     1   ar
    17    11     6   ar
@<TRIPOS>MOLECULE
*****
 16 17 0 0 0
SMALL
GASTEIGER

@<TRIPOS>ATOM
      1 C          -4.6896  -17.1838   23.2987 C.ar    1  UNL1        0.1342
      2 C          -5.0852  -15.9410   24.0395 C.ar    1  UNL1        0.0370
      3 C          -6.5683  -15.7683   23.8964 C.ar    1  UNL1        0.0403
      4 C          -7.0894  -16.9045   23.0671 C.ar    1  UNL1        0.1464
      5 O          -5.9283  -17.7793   22.6977 O.2     1  UNL1       -0.4568
      6 C          -8.5204  -17.1267   22.6759 C.ar    1  UNL1        0.0537
      7 C          -9.6182  -16.4208   23.4150 C.ar    1  UNL1        0.0062
      8 C         -11.0491  -16.6431   23.0238 C.ar    1  UNL1        0.0208
      9 C         -11.3822  -17.5713   21.8935 C.ar    1  UNL1        0.0989
     10 N         -10.2843  -18.2772   21.1544 N.ar    1  UNL1       -0.2422
     11 C          -8.8534  -18.0549   21.5456 C.ar    1  UNL1        0.1019
     12 C          -3.2994  -17.7346   23.1797 C.3     1  UNL1        0.1291
     13 S          -2.6922  -17.9520   21.8254 S.3     1  UNL1       -0.0690
     14 C          -3.9350  -19.5166   20.1648 C.3     1  UNL1        0.0845
     15 C          -2.8266  -19.2837   21.1483 C.2     1  UNL1        0.1996
     16 O          -1.8526  -20.3824   21.4546 O.2     1  UNL1       -0.2845
@<TRIPOS>BOND
     1    14    15    1
     2    15    16    2
     3    15    13    1
     4    13    12    1
     5    12     1    1
     6     1     2   ar
     7     2     3   ar
     8     3     4   ar
     9     4     6    1
    10     6     7   ar
    11     7     8   ar
    12     8     9   ar
    13     9    10   ar
    14    10    11   ar
    15     4     5   ar
    16     5     1   ar
    17    11     6   ar
@<TRIPOS>MOLECULE
*****
 16 17 0 0 0
SMALL
GASTEIGER

@<TRIPOS>ATOM
      1 C          -9.4084  -19.5084   22.0271 C.ar    1  UNL1        0.1342
      2 C          -9.3561  -19.3005   20.5424 C.ar    1  UNL1        0.0370
      3 C          -7.9162  -19.3162   20.1227 C.ar    1  UNL1        0.0403
      4 C          -7.0785  -19.5338   21.3478 C.ar    1  UNL1        0.1464
      5 O          -8.0008  -19.6526   22.5248 O.2     1  UNL1       -0.4568
      6 C          -5.5814  -19.6178   21.3888 C.ar    1  UNL1        0.0537
      7 C          -4.8143  -18.8398   22.4165 C.ar    1  UNL1        0.0062
      8 C          -3.3173  -18.9239   22.4574 C.ar    1  UNL1        0.0208
      9 C          -2.5873  -19.7860   21.4706 C.ar    1  UNL1        0.0989
     10 N          -3.3543  -20.5641   20.4429 N.ar    1  UNL1       -0.2422
     11 C          -4.8513  -20.4800   20.4020 C.ar    1  UNL1        0.1019
     12 C         -10.6503  -19.5626   22.8666 C.3     1  UNL1        0.1291
     13 S         -11.2769  -18.2928   23.3617 S.3     1  UNL1       -0.0690
     14 C         -12.6834  -17.2493   21.4427 C.3     1  UNL1        0.0845
     15 C         -12.6011  -17.8474   22.8158 C.2     1  UNL1        0.1996
     16 O         -13.8430  -18.0000   23.6431 O.2     1  UNL1       -0.2845
@<TRIPOS>BOND
     1    14    15    1
     2    15    16    2
     3    15    13    1
     4    13    12    1
     5    12     1    1
     6     1     2   ar
     7     2     3   ar
     8     3     4   ar
     9     4     6    1
    10     6     7   ar
    11     7     8   ar
    12     8     9   ar
    13     9    10   ar
    14    10    11   ar
    15     4     5   ar
    16     5     1   ar
    17    11     6   ar
@<TRIPOS>MOLECULE
*****
 16 17 0 0 0
SMALL
GASTEIGER

@<TRIPOS>ATOM
      1 C          -4.1638  -19.4886   21.4091 C.ar    1  UNL1        0.1342
      2 C          -4.9532  -20.2258   20.3681 C.ar    1  UNL1        0.0370
      3 C          -6.3807  -19.7752   20.4636 C.ar    1  UNL1        0.0403
      4 C          -6.4737  -18.7596   21.5636 C.ar    1  UNL1        0.1464
      5 O          -5.1036  -18.5825   22.1479 O.2     1  UNL1       -0.4568
      6 C          -7.7183  -18.0464   22.0023 C.ar    1  UNL1        0.0537
      7 C          -7.6446  -16.9996   23.0741 C.ar    1  UNL1        0.0062
      8 C          -8.8891  -16.2864   23.5127 C.ar    1  UNL1        0.0208
      9 C         -10.2074  -16.6200   22.8794 C.ar    1  UNL1        0.0989
     10 N         -10.2810  -17.6668   21.8076 N.ar    1  UNL1       -0.2422
     11 C          -9.0365  -18.3800   21.3691 C.ar    1  UNL1        0.1019
     12 C          -2.6930  -19.6324   21.6661 C.3     1  UNL1        0.1291
     13 S          -1.7410  -18.5780   21.1846 S.3     1  UNL1       -0.0690
     14 C          -2.3637  -17.5001   18.9042 C.3     1  UNL1        0.0845
     15 C          -2.2528  -17.4083   20.3972 C.2     1  UNL1        0.1996
     16 O          -2.6538  -16.1470   21.1030 O.2     1  UNL1       -0.2845
@<TRIPOS>BOND
     1    14    15    1
     2    15    16    2
     3    15    13    1
     4    13    12    1
     5    12     1    1
     6     1     2   ar
     7     2     3   ar
     8     3     4   ar
     9     4     6    1
    10     6     7   ar
    11     7     8   ar
    12     8     9   ar
    13     9    10   ar
    14    10    11   ar
    15     4     5   ar
    16     5     1   ar
    17    11     6   ar
