@<TRIPOS>MOLECULE
*****
 31 33 0 0 0
SMALL
GASTEIGER

@<TRIPOS>ATOM
      1 C          -7.5109  -18.6417   22.4950 C.2     1  UNL1        0.2494
      2 O          -8.0831  -19.9881   22.8262 O.2     1  UNL1       -0.2700
      3 N          -8.3947  -17.4297   22.4982 N.am    1  UNL1       -0.2991
      4 H          -8.0191  -16.5460   22.2808 H       1  UNL1        0.1500
      5 C          -9.8506  -17.5641   22.8328 C.3     1  UNL1        0.0907
      6 C          -9.8670  -18.0293   21.4069 C.3     1  UNL1        0.0250
      7 C         -11.1581  -18.4512   20.7703 C.3     1  UNL1        0.0194
      8 C         -12.4328  -18.4078   21.5598 C.3     1  UNL1        0.0723
      9 N         -12.4165  -17.9426   22.9857 N.3     1  UNL1       -0.2699
     10 C         -13.6912  -17.8992   23.7751 C.3     1  UNL1        0.0897
     11 C         -11.1254  -17.5207   23.6222 C.3     1  UNL1        0.0945
     12 C          -9.3286  -17.0522   24.1426 C.ar    1  UNL1       -0.0050
     13 C          -9.3555  -17.9330   25.3564 C.ar    1  UNL1       -0.0027
     14 C          -8.8335  -17.4211   26.6662 C.ar    1  UNL1       -0.0003
     15 C          -8.2846  -16.0284   26.7620 C.ar    1  UNL1       -0.0000
     16 C          -8.2578  -15.1476   25.5482 C.ar    1  UNL1       -0.0003
     17 C          -8.7798  -15.6595   24.2384 C.ar    1  UNL1       -0.0027
     18 C          -5.1742  -17.6180   22.9873 C.ar    1  UNL1        0.1434
     19 C          -3.7183  -17.4836   22.6527 C.ar    1  UNL1        0.0409
     20 C          -3.1428  -18.2384   21.4912 C.ar    1  UNL1        0.0749
     21 C          -4.0234  -19.1276   20.6642 C.ar    1  UNL1        0.0103
     22 C          -5.4794  -19.2620   20.9988 C.ar    1  UNL1        0.0325
     23 C          -6.0548  -18.5072   22.1604 C.ar    1  UNL1        0.0929
     24 C          -1.6868  -18.1039   21.1566 C.3     1  UNL1        0.4187
     25 F          -0.2308  -17.9695   20.8220 F       1  UNL1       -0.1659
     26 F          -1.6587  -19.5338   20.7043 F       1  UNL1       -0.1659
     27 F          -1.7148  -16.6741   21.6089 F       1  UNL1       -0.1659
     28 C          -5.0893  -15.6039   24.6262 C.3     1  UNL1        0.2525
     29 O          -5.7497  -16.8632   24.1489 O.3     1  UNL1       -0.4713
     30 S          -6.3600  -20.1513   20.1719 S.3     1  UNL1       -0.1125
     31 C          -6.1021  -21.6282   20.1250 C.3     1  UNL1        0.0742
@<TRIPOS>BOND
     1    28    29    1
     2    29    18    1
     3    18    19   ar
     4    19    20   ar
     5    20    24    1
     6    24    25    1
     7    24    26    1
     8    24    27    1
     9    20    21   ar
    10    21    22   ar
    11    22    30    1
    12    30    31    1
    13    22    23   ar
    14    23     1    1
    15     1     2    2
    16     1     3   am
    17     5     3    1
    18     5    12    1
    19    12    13   ar
    20    13    14   ar
    21    14    15   ar
    22    15    16   ar
    23    16    17   ar
    24     5     6    1
    25     6     7    1
    26     7     8    1
    27     8     9    1
    28     9    10    1
    29     9    11    1
    30    23    18   ar
    31    11     5    1
    32    17    12   ar
    33     3     4    1
@<TRIPOS>MOLECULE
*****
 31 33 0 0 0
SMALL
GASTEIGER

@<TRIPOS>ATOM
      1 C          -8.6998  -18.1026   21.9931 C.2     1  UNL1        0.2494
      2 O          -8.0901  -16.7722   21.6638 O.2     1  UNL1       -0.2700
      3 N          -7.9326  -19.3646   21.7311 N.am    1  UNL1       -0.2991
      4 H          -8.3327  -20.2378   21.9472 H       1  UNL1        0.1500
      5 C          -6.5558  -19.2963   21.1398 C.3     1  UNL1        0.0907
      6 C          -6.3137  -18.5981   22.4451 C.3     1  UNL1        0.0250
      7 C          -4.9447  -18.0823   22.7772 C.3     1  UNL1        0.0194
      8 C          -3.8181  -18.2648   21.8039 C.3     1  UNL1        0.0723
      9 N          -4.0602  -18.9630   20.4986 N.3     1  UNL1       -0.2699
     10 C          -2.9335  -19.1454   19.5253 C.3     1  UNL1        0.0897
     11 C          -5.4290  -19.4788   20.1665 C.3     1  UNL1        0.0945
     12 C          -7.2761  -20.0183   20.0398 C.ar    1  UNL1       -0.0050
     13 C          -8.4944  -19.4070   19.4137 C.ar    1  UNL1       -0.0027
     14 C          -9.2147  -20.1289   18.3137 C.ar    1  UNL1       -0.0003
     15 C          -8.7166  -21.4621   17.8399 C.ar    1  UNL1       -0.0000
     16 C          -7.4983  -22.0734   18.4659 C.ar    1  UNL1       -0.0003
     17 C          -6.7780  -21.3515   19.5660 C.ar    1  UNL1       -0.0027
     18 C         -10.3262  -18.9984   23.8103 C.ar    1  UNL1        0.1434
     19 C         -11.7031  -19.0667   24.4015 C.ar    1  UNL1        0.0409
     20 C         -12.8304  -18.3075   23.7668 C.ar    1  UNL1        0.0749
     21 C         -12.5808  -17.4801   22.5408 C.ar    1  UNL1        0.0103
     22 C         -11.2040  -17.4118   21.9496 C.ar    1  UNL1        0.0325
     23 C         -10.0767  -18.1709   22.5844 C.ar    1  UNL1        0.0929
     24 C         -14.2073  -18.3759   24.3581 C.3     1  UNL1        0.4187
     25 F         -15.5841  -18.4442   24.9494 F       1  UNL1       -0.1659
     26 F         -13.6134  -18.4335   25.7342 F       1  UNL1       -0.1659
     27 F         -14.8012  -18.3183   22.9819 F       1  UNL1       -0.1659
     28 C          -9.2752  -21.2506   24.5672 C.3     1  UNL1        0.2525
     29 O          -9.1989  -19.7575   24.4450 O.3     1  UNL1       -0.4713
     30 S         -10.9544  -16.5843   20.7236 S.3     1  UNL1       -0.1125
     31 C         -12.1081  -15.9834   19.9767 C.3     1  UNL1        0.0742
@<TRIPOS>BOND
     1    28    29    1
     2    29    18    1
     3    18    19   ar
     4    19    20   ar
     5    20    24    1
     6    24    25    1
     7    24    26    1
     8    24    27    1
     9    20    21   ar
    10    21    22   ar
    11    22    30    1
    12    30    31    1
    13    22    23   ar
    14    23     1    1
    15     1     2    2
    16     1     3   am
    17     5     3    1
    18     5    12    1
    19    12    13   ar
    20    13    14   ar
    21    14    15   ar
    22    15    16   ar
    23    16    17   ar
    24     5     6    1
    25     6     7    1
    26     7     8    1
    27     8     9    1
    28     9    10    1
    29     9    11    1
    30    23    18   ar
    31    11     5    1
    32    17    12   ar
    33     3     4    1
@<TRIPOS>MOLECULE
*****
 31 33 0 0 0
SMALL
GASTEIGER

@<TRIPOS>ATOM
      1 C         -14.5662   -5.1280   17.7265 C.2     1  UNL1        0.2494
      2 O         -14.9250   -4.4478   16.4386 O.2     1  UNL1       -0.2700
      3 N         -13.7470   -4.4046   18.7538 N.am    1  UNL1       -0.2991
      4 H         -13.5115   -4.8510   19.5991 H       1  UNL1        0.1500
      5 C         -13.2864   -3.0010   18.4933 C.3     1  UNL1        0.0907
      6 C         -14.7038   -2.7375   18.9076 C.3     1  UNL1        0.0250
      7 C         -15.2240   -1.3311   18.9490 C.3     1  UNL1        0.0194
      8 C         -14.3267   -0.1884   18.5760 C.3     1  UNL1        0.0723
      9 N         -12.9094   -0.4519   18.1617 N.3     1  UNL1       -0.2699
     10 C         -12.0122    0.6909   17.7887 C.3     1  UNL1        0.0897
     11 C         -12.3892   -1.8582   18.1204 C.3     1  UNL1        0.0945
     12 C         -12.0290   -3.7520   18.1695 C.ar    1  UNL1       -0.0050
     13 C         -11.3923   -4.6305   19.2053 C.ar    1  UNL1       -0.0027
     14 C         -10.1348   -5.3815   18.8815 C.ar    1  UNL1       -0.0003
     15 C          -9.5142   -5.2540   17.5219 C.ar    1  UNL1       -0.0000
     16 C         -10.1509   -4.3756   16.4861 C.ar    1  UNL1       -0.0003
     17 C         -11.4083   -3.6245   16.8099 C.ar    1  UNL1       -0.0027
     18 C         -16.1034   -6.7922   18.9984 C.ar    1  UNL1        0.1434
     19 C         -16.5638   -8.1957   19.2589 C.ar    1  UNL1        0.0409
     20 C         -15.9476   -9.3388   18.5080 C.ar    1  UNL1        0.0749
     21 C         -14.8710   -9.0782   17.4967 C.ar    1  UNL1        0.0103
     22 C         -14.4105   -7.6746   17.2362 C.ar    1  UNL1        0.0325
     23 C         -15.0267   -6.5316   17.9870 C.ar    1  UNL1        0.0929
     24 C         -16.4081  -10.7424   18.7686 C.3     1  UNL1        0.4187
     25 F         -16.8687  -12.1459   19.0292 F       1  UNL1       -0.1659
     26 F         -17.5007  -10.2196   19.6534 F       1  UNL1       -0.1659
     27 F         -15.3156  -11.2652   17.8838 F       1  UNL1       -0.1659
     28 C         -17.9781   -5.0100   19.2417 C.3     1  UNL1        0.2525
     29 O         -16.7196   -5.6491   19.7492 O.3     1  UNL1       -0.4713
     30 S         -13.3338   -7.4140   16.2248 S.3     1  UNL1       -0.1125
     31 C         -11.9099   -7.7671   16.5374 C.3     1  UNL1        0.0742
@<TRIPOS>BOND
     1    28    29    1
     2    29    18    1
     3    18    19   ar
     4    19    20   ar
     5    20    24    1
     6    24    25    1
     7    24    26    1
     8    24    27    1
     9    20    21   ar
    10    21    22   ar
    11    22    30    1
    12    30    31    1
    13    22    23   ar
    14    23     1    1
    15     1     2    2
    16     1     3   am
    17     5     3    1
    18     5    12    1
    19    12    13   ar
    20    13    14   ar
    21    14    15   ar
    22    15    16   ar
    23    16    17   ar
    24     5     6    1
    25     6     7    1
    26     7     8    1
    27     8     9    1
    28     9    10    1
    29     9    11    1
    30    23    18   ar
    31    11     5    1
    32    17    12   ar
    33     3     4    1
@<TRIPOS>MOLECULE
*****
 31 33 0 0 0
SMALL
GASTEIGER

@<TRIPOS>ATOM
      1 C          -8.5749  -18.5808   21.7763 C.2     1  UNL1        0.2494
      2 O          -8.4287  -18.3781   20.2973 O.2     1  UNL1       -0.2700
      3 N          -7.3627  -18.8372   22.6217 N.am    1  UNL1       -0.2991
      4 H          -7.4587  -18.9702   23.5924 H       1  UNL1        0.1500
      5 C          -6.0041  -18.8908   21.9881 C.3     1  UNL1        0.0907
      6 C          -6.6404  -20.0856   21.3418 C.3     1  UNL1        0.0250
      7 C          -5.8609  -20.9127   20.3627 C.3     1  UNL1        0.0194
      8 C          -4.4453  -20.5449   20.0300 C.3     1  UNL1        0.0723
      9 N          -3.8091  -19.3501   20.6763 N.3     1  UNL1       -0.2699
     10 C          -2.3934  -18.9824   20.3435 C.3     1  UNL1        0.0897
     11 C          -4.5885  -18.5231   21.6553 C.3     1  UNL1        0.0945
     12 C          -5.8397  -17.6774   22.8545 C.ar    1  UNL1       -0.0050
     13 C          -6.9924  -16.7394   23.0579 C.ar    1  UNL1       -0.0027
     14 C          -6.8280  -15.5259   23.9243 C.ar    1  UNL1       -0.0003
     15 C          -5.5109  -15.2506   24.5871 C.ar    1  UNL1       -0.0000
     16 C          -4.3582  -16.1886   24.3837 C.ar    1  UNL1       -0.0003
     17 C          -4.5226  -17.4020   23.5173 C.ar    1  UNL1       -0.0027
     18 C         -10.3567  -19.6001   23.3689 C.ar    1  UNL1        0.1434
     19 C         -11.7152  -19.5465   24.0026 C.ar    1  UNL1        0.0409
     20 C         -12.6505  -18.4198   23.6773 C.ar    1  UNL1        0.0749
     21 C         -12.2273  -17.3468   22.7184 C.ar    1  UNL1        0.0103
     22 C         -10.8688  -17.4005   22.0847 C.ar    1  UNL1        0.0325
     23 C          -9.9335  -18.5272   22.4100 C.ar    1  UNL1        0.0929
     24 C         -14.0091  -18.3661   24.3110 C.3     1  UNL1        0.4187
     25 F         -15.3676  -18.3125   24.9447 F       1  UNL1       -0.1659
     26 F         -13.3855  -18.5477   25.6630 F       1  UNL1       -0.1659
     27 F         -14.6326  -18.1845   22.9589 F       1  UNL1       -0.1659
     28 C          -9.5880  -21.4947   24.9719 C.3     1  UNL1        0.2525
     29 O          -9.4214  -20.7268   23.6942 O.3     1  UNL1       -0.4713
     30 S         -10.4455  -16.3274   21.1258 S.3     1  UNL1       -0.1125
     31 C         -11.2690  -16.0461   19.9040 C.3     1  UNL1        0.0742
@<TRIPOS>BOND
     1    28    29    1
     2    29    18    1
     3    18    19   ar
     4    19    20   ar
     5    20    24    1
     6    24    25    1
     7    24    26    1
     8    24    27    1
     9    20    21   ar
    10    21    22   ar
    11    22    30    1
    12    30    31    1
    13    22    23   ar
    14    23     1    1
    15     1     2    2
    16     1     3   am
    17     5     3    1
    18     5    12    1
    19    12    13   ar
    20    13    14   ar
    21    14    15   ar
    22    15    16   ar
    23    16    17   ar
    24     5     6    1
    25     6     7    1
    26     7     8    1
    27     8     9    1
    28     9    10    1
    29     9    11    1
    30    23    18   ar
    31    11     5    1
    32    17    12   ar
    33     3     4    1
@<TRIPOS>MOLECULE
*****
 31 33 0 0 0
SMALL
GASTEIGER

@<TRIPOS>ATOM
      1 C          -7.8927  -17.2560   22.1701 C.2     1  UNL1        0.2494
      2 O          -8.1781  -16.4328   20.9492 O.2     1  UNL1       -0.2700
      3 N          -7.8466  -18.7521   22.0720 N.am    1  UNL1       -0.2991
      4 H          -7.6592  -19.2925   22.8734 H       1  UNL1        0.1500
      5 C          -8.0859  -19.4249   20.7529 C.3     1  UNL1        0.0907
      6 C          -9.4974  -19.0911   21.1349 C.3     1  UNL1        0.0250
      7 C         -10.6293  -19.4648   20.2242 C.3     1  UNL1        0.0194
      8 C         -10.3494  -20.1724   18.9315 C.3     1  UNL1        0.0723
      9 N          -8.9378  -20.5063   18.5496 N.3     1  UNL1       -0.2699
     10 C          -8.6580  -21.2140   17.2569 C.3     1  UNL1        0.0897
     11 C          -7.8060  -20.1326   19.4602 C.3     1  UNL1        0.0945
     12 C          -6.5911  -19.5252   20.8291 C.ar    1  UNL1       -0.0050
     13 C          -5.9408  -20.1327   22.0365 C.ar    1  UNL1       -0.0027
     14 C          -4.4460  -20.2329   22.1127 C.ar    1  UNL1       -0.0003
     15 C          -3.6018  -19.7256   20.9814 C.ar    1  UNL1       -0.0000
     16 C          -4.2521  -19.1181   19.7739 C.ar    1  UNL1       -0.0003
     17 C          -5.7468  -19.0178   19.6978 C.ar    1  UNL1       -0.0027
     18 C          -6.2581  -16.2226   23.9051 C.ar    1  UNL1        0.1434
     19 C          -6.0188  -15.5499   25.2242 C.ar    1  UNL1        0.0409
     20 C          -7.1749  -15.2377   26.1275 C.ar    1  UNL1        0.0749
     21 C          -8.5703  -15.5983   25.7117 C.ar    1  UNL1        0.0103
     22 C          -8.8095  -16.2711   24.3926 C.ar    1  UNL1        0.0325
     23 C          -7.6534  -16.5832   23.4893 C.ar    1  UNL1        0.0929
     24 C          -6.9356  -14.5649   27.4467 C.3     1  UNL1        0.4187
     25 F          -6.6963  -13.8921   28.7658 F       1  UNL1       -0.1659
     26 F          -5.4858  -14.3997   27.0994 F       1  UNL1       -0.1659
     27 F          -8.3855  -14.7301   27.7940 F       1  UNL1       -0.1659
     28 C          -3.8589  -17.1591   23.5630 C.3     1  UNL1        0.2525
     29 O          -5.1020  -16.5348   23.0018 O.3     1  UNL1       -0.4713
     30 S         -10.2049  -16.6317   23.9768 S.3     1  UNL1       -0.1125
     31 C         -10.7612  -17.9841   24.3111 C.3     1  UNL1        0.0742
@<TRIPOS>BOND
     1    28    29    1
     2    29    18    1
     3    18    19   ar
     4    19    20   ar
     5    20    24    1
     6    24    25    1
     7    24    26    1
     8    24    27    1
     9    20    21   ar
    10    21    22   ar
    11    22    30    1
    12    30    31    1
    13    22    23   ar
    14    23     1    1
    15     1     2    2
    16     1     3   am
    17     5     3    1
    18     5    12    1
    19    12    13   ar
    20    13    14   ar
    21    14    15   ar
    22    15    16   ar
    23    16    17   ar
    24     5     6    1
    25     6     7    1
    26     7     8    1
    27     8     9    1
    28     9    10    1
    29     9    11    1
    30    23    18   ar
    31    11     5    1
    32    17    12   ar
    33     3     4    1
@<TRIPOS>MOLECULE
*****
 31 33 0 0 0
SMALL
GASTEIGER

@<TRIPOS>ATOM
      1 C         -14.5480   -4.9628   17.5056 C.2     1  UNL1        0.2494
      2 O         -14.9202   -4.2808   16.2225 O.2     1  UNL1       -0.2700
      3 N         -13.7076   -4.2454   18.5200 N.am    1  UNL1       -0.2991
      4 H         -13.4633   -4.6931   19.3621 H       1  UNL1        0.1500
      5 C         -13.2394   -2.8459   18.2514 C.3     1  UNL1        0.0907
      6 C         -14.6630   -2.5747   18.6382 C.3     1  UNL1        0.0250
      7 C         -15.1806   -1.1668   18.6544 C.3     1  UNL1        0.0194
      8 C         -14.2744   -0.0303   18.2839 C.3     1  UNL1        0.0723
      9 N         -12.8508   -0.3016   17.8971 N.3     1  UNL1       -0.2699
     10 C         -11.9446    0.8349   17.5266 C.3     1  UNL1        0.0897
     11 C         -12.3332   -1.7094   17.8809 C.3     1  UNL1        0.0945
     12 C         -11.9783   -3.6033   17.9579 C.ar    1  UNL1       -0.0050
     13 C         -11.4068   -3.5995   16.5711 C.ar    1  UNL1       -0.0027
     14 C         -10.1457   -4.3569   16.2776 C.ar    1  UNL1       -0.0003
     15 C          -9.4563   -5.1180   17.3709 C.ar    1  UNL1       -0.0000
     16 C         -10.0278   -5.1218   18.7577 C.ar    1  UNL1       -0.0003
     17 C         -11.2889   -4.3645   19.0512 C.ar    1  UNL1       -0.0027
     18 C         -14.0365   -7.4980   17.7531 C.ar    1  UNL1        0.1434
     19 C         -14.5047   -8.8975   18.0217 C.ar    1  UNL1        0.0409
     20 C         -15.9526   -9.1613   18.3115 C.ar    1  UNL1        0.0749
     21 C         -16.9323   -8.0257   18.3326 C.ar    1  UNL1        0.0103
     22 C         -16.4641   -6.6262   18.0640 C.ar    1  UNL1        0.0325
     23 C         -15.0162   -6.3624   17.7742 C.ar    1  UNL1        0.0929
     24 C         -16.4208  -10.5609   18.5801 C.3     1  UNL1        0.4187
     25 F         -16.8890  -11.9604   18.8488 F       1  UNL1       -0.1659
     26 F         -17.5730  -10.0227   19.3756 F       1  UNL1       -0.1659
     27 F         -15.2687  -11.0991   17.7846 F       1  UNL1       -0.1659
     28 C         -11.9269   -7.8915   16.2886 C.3     1  UNL1        0.2525
     29 O         -12.5886   -7.2342   17.4633 O.3     1  UNL1       -0.4713
     30 S         -17.4438   -5.4905   18.0851 S.3     1  UNL1       -0.1125
     31 C         -17.6943   -4.7397   19.3593 C.3     1  UNL1        0.0742
@<TRIPOS>BOND
     1    28    29    1
     2    29    18    1
     3    18    19   ar
     4    19    20   ar
     5    20    24    1
     6    24    25    1
     7    24    26    1
     8    24    27    1
     9    20    21   ar
    10    21    22   ar
    11    22    30    1
    12    30    31    1
    13    22    23   ar
    14    23     1    1
    15     1     2    2
    16     1     3   am
    17     5     3    1
    18     5    12    1
    19    12    13   ar
    20    13    14   ar
    21    14    15   ar
    22    15    16   ar
    23    16    17   ar
    24     5     6    1
    25     6     7    1
    26     7     8    1
    27     8     9    1
    28     9    10    1
    29     9    11    1
    30    23    18   ar
    31    11     5    1
    32    17    12   ar
    33     3     4    1
@<TRIPOS>MOLECULE
*****
 31 33 0 0 0
SMALL
GASTEIGER

@<TRIPOS>ATOM
      1 C          -7.6184  -17.7573   22.3054 C.2     1  UNL1        0.2494
      2 O          -8.3192  -16.8558   21.3328 O.2     1  UNL1       -0.2700
      3 N          -8.4026  -18.4678   23.3686 N.am    1  UNL1       -0.2991
      4 H          -7.9427  -19.0595   24.0070 H       1  UNL1        0.1500
      5 C          -9.8876  -18.2768   23.4590 C.3     1  UNL1        0.0907
      6 C          -9.8163  -19.2137   22.2898 C.3     1  UNL1        0.0250
      7 C         -11.0757  -19.6573   21.6062 C.3     1  UNL1        0.0194
      8 C         -12.4063  -19.1638   22.0918 C.3     1  UNL1        0.0723
      9 N         -12.4777  -18.2269   23.2610 N.3     1  UNL1       -0.2699
     10 C         -13.8084  -17.7335   23.7466 C.3     1  UNL1        0.0897
     11 C         -11.2184  -17.7833   23.9446 C.3     1  UNL1        0.0945
     12 C          -9.4432  -17.4061   24.5968 C.ar    1  UNL1       -0.0050
     13 C          -9.1321  -18.0167   25.9312 C.ar    1  UNL1       -0.0027
     14 C          -8.6877  -17.1460   27.0690 C.ar    1  UNL1       -0.0003
     15 C          -8.5545  -15.6650   26.8724 C.ar    1  UNL1       -0.0000
     16 C          -8.8656  -15.0544   25.5381 C.ar    1  UNL1       -0.0003
     17 C          -9.3100  -15.9251   24.4002 C.ar    1  UNL1       -0.0027
     18 C          -5.5664  -19.0013   21.3094 C.ar    1  UNL1        0.1434
     19 C          -4.0814  -19.1923   21.2191 C.ar    1  UNL1        0.0409
     20 C          -3.1633  -18.3306   22.0342 C.ar    1  UNL1        0.0749
     21 C          -3.7303  -17.2777   22.9398 C.ar    1  UNL1        0.0103
     22 C          -5.2153  -17.0867   23.0302 C.ar    1  UNL1        0.0325
     23 C          -6.1333  -17.9484   22.2150 C.ar    1  UNL1        0.0929
     24 C          -1.6782  -18.5217   21.9438 C.3     1  UNL1        0.4187
     25 F          -0.1933  -18.7128   21.8534 F       1  UNL1       -0.1659
     26 F          -1.8754  -20.0050   21.8409 F       1  UNL1       -0.1659
     27 F          -1.4811  -17.0383   22.0467 F       1  UNL1       -0.1659
     28 C          -6.1232  -21.2925   20.2184 C.3     1  UNL1        0.2525
     29 O          -6.4845  -19.8631   20.4943 O.3     1  UNL1       -0.4713
     30 S          -5.7823  -16.0338   23.9358 S.3     1  UNL1       -0.1125
     31 C          -5.1574  -15.7814   25.2759 C.3     1  UNL1        0.0742
@<TRIPOS>BOND
     1    28    29    1
     2    29    18    1
     3    18    19   ar
     4    19    20   ar
     5    20    24    1
     6    24    25    1
     7    24    26    1
     8    24    27    1
     9    20    21   ar
    10    21    22   ar
    11    22    30    1
    12    30    31    1
    13    22    23   ar
    14    23     1    1
    15     1     2    2
    16     1     3   am
    17     5     3    1
    18     5    12    1
    19    12    13   ar
    20    13    14   ar
    21    14    15   ar
    22    15    16   ar
    23    16    17   ar
    24     5     6    1
    25     6     7    1
    26     7     8    1
    27     8     9    1
    28     9    10    1
    29     9    11    1
    30    23    18   ar
    31    11     5    1
    32    17    12   ar
    33     3     4    1
@<TRIPOS>MOLECULE
*****
 31 33 0 0 0
SMALL
GASTEIGER

@<TRIPOS>ATOM
      1 C          -7.9311  -19.0751   22.8065 C.2     1  UNL1        0.2494
      2 O          -7.3400  -20.4529   22.8542 O.2     1  UNL1       -0.2700
      3 N          -7.0604  -17.8961   22.4874 N.am    1  UNL1       -0.2991
      4 H          -7.4484  -16.9918   22.4561 H       1  UNL1        0.1500
      5 C          -5.5987  -18.0949   22.2159 C.3     1  UNL1        0.0907
      6 C          -6.1839  -18.9266   21.1133 C.3     1  UNL1        0.0250
      7 C          -5.2803  -19.6444   20.1549 C.3     1  UNL1        0.0194
      8 C          -3.7917  -19.5303   20.2991 C.3     1  UNL1        0.0723
      9 N          -3.2065  -18.6985   21.4016 N.3     1  UNL1       -0.2699
     10 C          -1.7177  -18.5844   21.5458 C.3     1  UNL1        0.0897
     11 C          -4.1099  -17.9808   22.3600 C.3     1  UNL1        0.0945
     12 C          -5.5211  -17.1940   23.4127 C.ar    1  UNL1       -0.0050
     13 C          -6.5290  -16.0977   23.5928 C.ar    1  UNL1       -0.0027
     14 C          -6.4514  -15.1968   24.7896 C.ar    1  UNL1       -0.0003
     15 C          -5.3661  -15.3923   25.8064 C.ar    1  UNL1       -0.0000
     16 C          -4.3582  -16.4886   25.6264 C.ar    1  UNL1       -0.0003
     17 C          -4.4358  -17.3895   24.4295 C.ar    1  UNL1       -0.0027
     18 C          -9.8635  -18.5806   24.4712 C.ar    1  UNL1        0.1434
     19 C         -11.3253  -18.3818   24.7426 C.ar    1  UNL1        0.0409
     20 C         -12.3164  -18.4786   23.6209 C.ar    1  UNL1        0.0749
     21 C         -11.8457  -18.7743   22.2277 C.ar    1  UNL1        0.0103
     22 C         -10.3840  -18.9731   21.9563 C.ar    1  UNL1        0.0325
     23 C          -9.3929  -18.8763   23.0780 C.ar    1  UNL1        0.0929
     24 C         -13.7782  -18.2798   23.8924 C.3     1  UNL1        0.4187
     25 F         -15.2400  -18.0810   24.1638 F       1  UNL1       -0.1659
     26 F         -14.0152  -18.0292   22.4326 F       1  UNL1       -0.1659
     27 F         -13.5412  -18.5304   25.3522 F       1  UNL1       -0.1659
     28 C          -8.9120  -17.3130   26.5297 C.3     1  UNL1        0.2525
     29 O          -8.8724  -18.4838   25.5930 O.3     1  UNL1       -0.4713
     30 S          -9.9133  -19.2687   20.5630 S.3     1  UNL1       -0.1125
     31 C         -10.6943  -18.7663   19.3850 C.3     1  UNL1        0.0742
@<TRIPOS>BOND
     1    28    29    1
     2    29    18    1
     3    18    19   ar
     4    19    20   ar
     5    20    24    1
     6    24    25    1
     7    24    26    1
     8    24    27    1
     9    20    21   ar
    10    21    22   ar
    11    22    30    1
    12    30    31    1
    13    22    23   ar
    14    23     1    1
    15     1     2    2
    16     1     3   am
    17     5     3    1
    18     5    12    1
    19    12    13   ar
    20    13    14   ar
    21    14    15   ar
    22    15    16   ar
    23    16    17   ar
    24     5     6    1
    25     6     7    1
    26     7     8    1
    27     8     9    1
    28     9    10    1
    29     9    11    1
    30    23    18   ar
    31    11     5    1
    32    17    12   ar
    33     3     4    1
@<TRIPOS>MOLECULE
*****
 31 33 0 0 0
SMALL
GASTEIGER

@<TRIPOS>ATOM
      1 C          -8.1548  -17.5057   22.3765 C.2     1  UNL1        0.2494
      2 O          -7.7317  -16.1946   21.7834 O.2     1  UNL1       -0.2700
      3 N          -7.1524  -18.6076   22.5526 N.am    1  UNL1       -0.2991
      4 H          -7.4301  -19.4682   22.9418 H       1  UNL1        0.1500
      5 C          -5.7268  -18.3983   22.1356 C.3     1  UNL1        0.0907
      6 C          -5.8029  -17.4450   23.2912 C.3     1  UNL1        0.0250
      7 C          -4.5988  -16.6386   23.6788 C.3     1  UNL1        0.0194
      8 C          -3.3188  -16.7857   22.9108 C.3     1  UNL1        0.0723
      9 N          -3.2427  -17.7390   21.7552 N.3     1  UNL1       -0.2699
     10 C          -1.9626  -17.8860   20.9872 C.3     1  UNL1        0.0897
     11 C          -4.4467  -18.5453   21.3676 C.3     1  UNL1        0.0945
     12 C          -6.1458  -19.4243   21.1248 C.ar    1  UNL1       -0.0050
     13 C          -7.1453  -19.0680   20.0646 C.ar    1  UNL1       -0.0027
     14 C          -7.5643  -20.0940   19.0538 C.ar    1  UNL1       -0.0003
     15 C          -6.9839  -21.4763   19.1033 C.ar    1  UNL1       -0.0000
     16 C          -5.9844  -21.8326   20.1635 C.ar    1  UNL1       -0.0003
     17 C          -5.5654  -20.8066   21.1743 C.ar    1  UNL1       -0.0027
     18 C         -10.6420  -17.9278   21.7553 C.ar    1  UNL1        0.1434
     19 C         -12.0676  -18.1371   22.1723 C.ar    1  UNL1        0.0409
     20 C         -12.4315  -18.1338   23.6275 C.ar    1  UNL1        0.0749
     21 C         -11.3700  -17.9211   24.6657 C.ar    1  UNL1        0.0103
     22 C          -9.9444  -17.7118   24.2486 C.ar    1  UNL1        0.0325
     23 C          -9.5804  -17.7151   22.7935 C.ar    1  UNL1        0.0929
     24 C         -13.8572  -18.3432   24.0445 C.3     1  UNL1        0.4187
     25 F         -15.2827  -18.5525   24.4615 F       1  UNL1       -0.1659
     26 F         -13.4139  -18.5319   25.4650 F       1  UNL1       -0.1659
     27 F         -14.3004  -18.1544   22.6240 F       1  UNL1       -0.1659
     28 C         -10.8586  -18.9673   19.3842 C.3     1  UNL1        0.2525
     29 O         -10.2780  -17.9311   20.3002 O.3     1  UNL1       -0.4713
     30 S          -8.8828  -17.4991   25.2868 S.3     1  UNL1       -0.1125
     31 C          -8.5047  -16.1072   25.6987 C.3     1  UNL1        0.0742
@<TRIPOS>BOND
     1    28    29    1
     2    29    18    1
     3    18    19   ar
     4    19    20   ar
     5    20    24    1
     6    24    25    1
     7    24    26    1
     8    24    27    1
     9    20    21   ar
    10    21    22   ar
    11    22    30    1
    12    30    31    1
    13    22    23   ar
    14    23     1    1
    15     1     2    2
    16     1     3   am
    17     5     3    1
    18     5    12    1
    19    12    13   ar
    20    13    14   ar
    21    14    15   ar
    22    15    16   ar
    23    16    17   ar
    24     5     6    1
    25     6     7    1
    26     7     8    1
    27     8     9    1
    28     9    10    1
    29     9    11    1
    30    23    18   ar
    31    11     5    1
    32    17    12   ar
    33     3     4    1
