@<TRIPOS>MOLECULE
*****
 24 26 0 0 0
SMALL
GASTEIGER

@<TRIPOS>ATOM
      1 C          -7.8735  -17.4273   22.7877 C.ar    1  UNL1        0.1017
      2 C          -8.4783  -17.4952   24.1588 C.ar    1  UNL1        0.1179
      3 N          -9.9109  -17.1025   24.3668 N.ar    1  UNL1       -0.2410
      4 C         -10.7388  -16.6419   23.2038 C.ar    1  UNL1        0.0972
      5 C         -10.1340  -16.5740   21.8328 C.ar    1  UNL1        0.0304
      6 C          -8.7013  -16.9668   21.6248 C.ar    1  UNL1        0.0205
      7 C          -2.6039  -17.5500   23.0997 C.3     1  UNL1        0.0540
      8 C          -4.0187  -17.8765   22.7231 C.ar    1  UNL1        0.0807
      9 N          -5.2468  -17.1642   23.2075 N.ar    1  UNL1       -0.1694
     10 N          -6.4408  -17.8201   22.5797 N.ar    1  UNL1       -0.2285
     11 C          -5.9507  -18.9376   21.7074 C.ar    1  UNL1        0.0840
     12 C          -6.6742  -19.9280   20.8438 C.ar    1  UNL1        0.0192
     13 C          -5.9006  -20.9532   20.0689 C.ar    1  UNL1        0.0015
     14 C          -4.4037  -20.9881   20.1576 C.ar    1  UNL1        0.0001
     15 C          -3.6802  -19.9977   21.0211 C.ar    1  UNL1        0.0027
     16 C          -4.4538  -18.9725   21.7960 C.ar    1  UNL1        0.0329
     17 C         -10.9618  -16.1134   20.6699 C.3     1  UNL1        0.1960
     18 C         -11.7897  -15.6528   19.5069 C.3     1  UNL1        0.0428
     19 O          -9.9511  -15.0456   20.3733 O.3     1  UNL1       -0.3751
     20 H          -9.2284  -15.0962   21.0184 H       1  UNL1        0.2110
     21 C         -11.9726  -17.1813   20.9665 C.3     1  UNL1        0.4231
     22 F         -12.9834  -18.2491   21.2631 F       1  UNL1       -0.1673
     23 F         -12.9464  -16.1339   21.4190 F       1  UNL1       -0.1673
     24 F         -11.2724  -18.4559   20.5992 F       1  UNL1       -0.1673
@<TRIPOS>BOND
     1     7     8    1
     2     8     9   ar
     3     9    10   ar
     4    10     1    1
     5     1     2   ar
     6     2     3   ar
     7     3     4   ar
     8     4     5   ar
     9     5    17    1
    10    17    18    1
    11    17    19    1
    12    17    21    1
    13    21    22    1
    14    21    23    1
    15    21    24    1
    16     5     6   ar
    17    10    11   ar
    18    11    12   ar
    19    12    13   ar
    20    13    14   ar
    21    14    15   ar
    22    15    16   ar
    23    16     8   ar
    24     6     1   ar
    25    16    11   ar
    26    19    20    1
@<TRIPOS>MOLECULE
*****
 24 26 0 0 0
SMALL
GASTEIGER

@<TRIPOS>ATOM
      1 C          -8.0758  -18.8020   21.1054 C.ar    1  UNL1        0.1017
      2 C          -8.1706  -19.5206   19.7921 C.ar    1  UNL1        0.1179
      3 N          -9.5144  -19.8237   19.1983 N.ar    1  UNL1       -0.2410
      4 C         -10.7632  -19.4083   19.9179 C.ar    1  UNL1        0.0972
      5 C         -10.6684  -18.6897   21.2311 C.ar    1  UNL1        0.0304
      6 C          -9.3246  -18.3866   21.8248 C.ar    1  UNL1        0.0205
      7 C          -4.2639  -16.6918   24.0882 C.3     1  UNL1        0.0540
      8 C          -4.9799  -17.5290   23.0701 C.ar    1  UNL1        0.0807
      9 N          -6.4530  -17.5060   22.7882 N.ar    1  UNL1       -0.1694
     10 N          -6.7320  -18.4989   21.6991 N.ar    1  UNL1       -0.2285
     11 C          -5.4314  -19.1356   21.3079 C.ar    1  UNL1        0.0840
     12 C          -5.0932  -20.1838   20.2897 C.ar    1  UNL1        0.0192
     13 C          -3.6722  -20.6325   20.1187 C.ar    1  UNL1        0.0015
     14 C          -2.5893  -20.0330   20.9661 C.ar    1  UNL1        0.0001
     15 C          -2.9275  -18.9848   21.9844 C.ar    1  UNL1        0.0027
     16 C          -4.3485  -18.5362   22.1553 C.ar    1  UNL1        0.0329
     17 C         -11.9172  -18.2742   21.9506 C.3     1  UNL1        0.1960
     18 C         -13.1661  -17.8588   22.6701 C.3     1  UNL1        0.0428
     19 O         -12.3970  -17.5743   20.7137 O.3     1  UNL1       -0.3751
     20 H         -11.7390  -17.6767   20.0084 H       1  UNL1        0.2110
     21 C         -11.4374  -18.9741   23.1875 C.3     1  UNL1        0.4231
     22 F         -10.9577  -19.6741   24.4244 F       1  UNL1       -0.1673
     23 F         -11.4779  -17.6759   23.9378 F       1  UNL1       -0.1673
     24 F         -11.2821  -20.4031   22.7588 F       1  UNL1       -0.1673
@<TRIPOS>BOND
     1     7     8    1
     2     8     9   ar
     3     9    10   ar
     4    10     1    1
     5     1     2   ar
     6     2     3   ar
     7     3     4   ar
     8     4     5   ar
     9     5    17    1
    10    17    18    1
    11    17    19    1
    12    17    21    1
    13    21    22    1
    14    21    23    1
    15    21    24    1
    16     5     6   ar
    17    10    11   ar
    18    11    12   ar
    19    12    13   ar
    20    13    14   ar
    21    14    15   ar
    22    15    16   ar
    23    16     8   ar
    24     6     1   ar
    25    16    11   ar
    26    19    20    1
@<TRIPOS>MOLECULE
*****
 24 26 0 0 0
SMALL
GASTEIGER

@<TRIPOS>ATOM
      1 C          -7.7041  -18.4898   21.2978 C.ar    1  UNL1        0.1017
      2 C          -7.4694  -19.3465   20.0891 C.ar    1  UNL1        0.1179
      3 N          -8.6321  -19.8197   19.2679 N.ar    1  UNL1       -0.2410
      4 C         -10.0295  -19.4362   19.6555 C.ar    1  UNL1        0.0972
      5 C         -10.2642  -18.5795   20.8642 C.ar    1  UNL1        0.0304
      6 C          -9.1015  -18.1063   21.6853 C.ar    1  UNL1        0.0205
      7 C          -2.8110  -17.8580   23.1789 C.3     1  UNL1        0.0540
      8 C          -4.2923  -17.7262   22.9836 C.ar    1  UNL1        0.0807
      9 N          -5.1138  -18.4469   21.9560 N.ar    1  UNL1       -0.1694
     10 N          -6.5415  -18.0165   22.1190 N.ar    1  UNL1       -0.2285
     11 C          -6.6024  -17.0299   23.2472 C.ar    1  UNL1        0.0840
     12 C          -7.7440  -16.2718   23.8570 C.ar    1  UNL1        0.0192
     13 C          -7.4955  -15.3342   25.0011 C.ar    1  UNL1        0.0015
     14 C          -6.1055  -15.1547   25.5355 C.ar    1  UNL1        0.0001
     15 C          -4.9639  -15.9129   24.9257 C.ar    1  UNL1        0.0027
     16 C          -5.2123  -16.8505   23.7815 C.ar    1  UNL1        0.0329
     17 C         -11.6616  -18.1960   21.2518 C.3     1  UNL1        0.1960
     18 C         -13.0590  -17.8126   21.6393 C.3     1  UNL1        0.0428
     19 O         -11.8494  -17.5336   19.9192 O.3     1  UNL1       -0.3751
     20 H         -11.0379  -17.6246   19.3956 H       1  UNL1        0.2110
     21 C         -11.4738  -18.8585   22.5844 C.3     1  UNL1        0.4231
     22 F         -11.2860  -19.5210   23.9170 F       1  UNL1       -0.1673
     23 F         -11.6432  -17.5336   23.2669 F       1  UNL1       -0.1673
     24 F         -11.2639  -20.3044   22.2446 F       1  UNL1       -0.1673
@<TRIPOS>BOND
     1     7     8    1
     2     8     9   ar
     3     9    10   ar
     4    10     1    1
     5     1     2   ar
     6     2     3   ar
     7     3     4   ar
     8     4     5   ar
     9     5    17    1
    10    17    18    1
    11    17    19    1
    12    17    21    1
    13    21    22    1
    14    21    23    1
    15    21    24    1
    16     5     6   ar
    17    10    11   ar
    18    11    12   ar
    19    12    13   ar
    20    13    14   ar
    21    14    15   ar
    22    15    16   ar
    23    16     8   ar
    24     6     1   ar
    25    16    11   ar
    26    19    20    1
@<TRIPOS>MOLECULE
*****
 24 26 0 0 0
SMALL
GASTEIGER

@<TRIPOS>ATOM
      1 C          -5.9435  -19.0296   21.6330 C.ar    1  UNL1        0.1017
      2 C          -6.4379  -20.2974   21.0016 C.ar    1  UNL1        0.1179
      3 N          -5.5013  -21.1496   20.1976 N.ar    1  UNL1       -0.2410
      4 C          -4.0704  -20.7342   20.0248 C.ar    1  UNL1        0.0972
      5 C          -3.5761  -19.4665   20.6561 C.ar    1  UNL1        0.0304
      6 C          -4.5126  -18.6142   21.4602 C.ar    1  UNL1        0.0205
      7 C          -7.9195  -15.0375   24.4683 C.3     1  UNL1        0.0540
      8 C          -7.7883  -16.3424   23.7402 C.ar    1  UNL1        0.0807
      9 N          -6.5681  -16.8293   23.0164 N.ar    1  UNL1       -0.1694
     10 N          -6.8801  -18.1773   22.4370 N.ar    1  UNL1       -0.2285
     11 C          -8.2930  -18.5234   22.8028 C.ar    1  UNL1        0.0840
     12 C          -9.1410  -19.7247   22.5065 C.ar    1  UNL1        0.0192
     13 C         -10.5503  -19.7919   23.0157 C.ar    1  UNL1        0.0015
     14 C         -11.1116  -18.6579   23.8212 C.ar    1  UNL1        0.0001
     15 C         -10.2636  -17.4566   24.1175 C.ar    1  UNL1        0.0027
     16 C          -8.8544  -17.3894   23.6083 C.ar    1  UNL1        0.0329
     17 C          -2.1451  -19.0511   20.4834 C.3     1  UNL1        0.1960
     18 C          -0.7142  -18.6357   20.3106 C.3     1  UNL1        0.0428
     19 O          -1.7172  -20.1302   21.4333 O.3     1  UNL1       -0.3751
     20 H          -2.4973  -20.6161   21.7434 H       1  UNL1        0.2110
     21 C          -2.5731  -17.9720   19.5334 C.3     1  UNL1        0.4231
     22 F          -3.0011  -16.8929   18.5835 F       1  UNL1       -0.1673
     23 F          -2.7798  -18.9990   18.4599 F       1  UNL1       -0.1673
     24 F          -2.4761  -16.7144   20.3452 F       1  UNL1       -0.1673
@<TRIPOS>BOND
     1     7     8    1
     2     8     9   ar
     3     9    10   ar
     4    10     1    1
     5     1     2   ar
     6     2     3   ar
     7     3     4   ar
     8     4     5   ar
     9     5    17    1
    10    17    18    1
    11    17    19    1
    12    17    21    1
    13    21    22    1
    14    21    23    1
    15    21    24    1
    16     5     6   ar
    17    10    11   ar
    18    11    12   ar
    19    12    13   ar
    20    13    14   ar
    21    14    15   ar
    22    15    16   ar
    23    16     8   ar
    24     6     1   ar
    25    16    11   ar
    26    19    20    1
@<TRIPOS>MOLECULE
*****
 24 26 0 0 0
SMALL
GASTEIGER

@<TRIPOS>ATOM
      1 C          -7.3582  -17.1738   23.0933 C.ar    1  UNL1        0.1017
      2 C          -7.5187  -16.2451   24.2604 C.ar    1  UNL1        0.1179
      3 N          -8.8813  -15.7452   24.6392 N.ar    1  UNL1       -0.2410
      4 C         -10.0834  -16.1740   23.8511 C.ar    1  UNL1        0.0972
      5 C          -9.9229  -17.1026   22.6841 C.ar    1  UNL1        0.0304
      6 C          -8.5603  -17.6025   22.3052 C.ar    1  UNL1        0.0205
      7 C          -2.1146  -17.6939   22.7559 C.3     1  UNL1        0.0540
      8 C          -3.5854  -17.9127   22.5594 C.ar    1  UNL1        0.0807
      9 N          -4.6875  -17.1097   23.1842 N.ar    1  UNL1       -0.1694
     10 N          -5.9956  -17.6737   22.7144 N.ar    1  UNL1       -0.2285
     11 C          -5.7020  -18.8253   21.7992 C.ar    1  UNL1        0.0840
     12 C          -6.5986  -19.7585   21.0408 C.ar    1  UNL1        0.0192
     13 C          -6.0056  -20.8394   20.1865 C.ar    1  UNL1        0.0015
     14 C          -4.5160  -20.9872   20.0907 C.ar    1  UNL1        0.0001
     15 C          -3.6194  -20.0540   20.8491 C.ar    1  UNL1        0.0027
     16 C          -4.2124  -18.9731   21.7034 C.ar    1  UNL1        0.0329
     17 C         -11.1250  -17.5314   21.8960 C.3     1  UNL1        0.1960
     18 C         -12.3270  -17.9601   21.1078 C.3     1  UNL1        0.0428
     19 O         -10.4563  -17.0810   20.6311 O.3     1  UNL1       -0.3751
     20 H          -9.5792  -16.7226   20.8389 H       1  UNL1        0.2110
     21 C         -11.7937  -17.9817   23.1609 C.3     1  UNL1        0.4231
     22 F         -12.4624  -18.4320   24.4258 F       1  UNL1       -0.1673
     23 F         -12.8068  -16.8852   23.0157 F       1  UNL1       -0.1673
     24 F         -10.9724  -19.1546   23.6079 F       1  UNL1       -0.1673
@<TRIPOS>BOND
     1     7     8    1
     2     8     9   ar
     3     9    10   ar
     4    10     1    1
     5     1     2   ar
     6     2     3   ar
     7     3     4   ar
     8     4     5   ar
     9     5    17    1
    10    17    18    1
    11    17    19    1
    12    17    21    1
    13    21    22    1
    14    21    23    1
    15    21    24    1
    16     5     6   ar
    17    10    11   ar
    18    11    12   ar
    19    12    13   ar
    20    13    14   ar
    21    14    15   ar
    22    15    16   ar
    23    16     8   ar
    24     6     1   ar
    25    16    11   ar
    26    19    20    1
@<TRIPOS>MOLECULE
*****
 24 26 0 0 0
SMALL
GASTEIGER

@<TRIPOS>ATOM
      1 C          -7.7638  -17.6457   22.1263 C.ar    1  UNL1        0.1017
      2 C          -6.9852  -16.8369   23.1212 C.ar    1  UNL1        0.1179
      3 N          -5.5189  -17.0901   23.3103 N.ar    1  UNL1       -0.2410
      4 C          -4.8311  -18.1520   22.5046 C.ar    1  UNL1        0.0972
      5 C          -5.6097  -18.9608   21.5097 C.ar    1  UNL1        0.0304
      6 C          -7.0760  -18.7076   21.3206 C.ar    1  UNL1        0.0205
      7 C         -12.3549  -15.9861   20.1142 C.3     1  UNL1        0.0540
      8 C         -11.3404  -16.6297   21.0123 C.ar    1  UNL1        0.0807
      9 N          -9.8555  -16.6398   20.8004 N.ar    1  UNL1       -0.1694
     10 N          -9.2302  -17.3925   21.9372 N.ar    1  UNL1       -0.2285
     11 C         -10.3286  -17.8476   22.8517 C.ar    1  UNL1        0.0840
     12 C         -10.3097  -18.6304   24.1311 C.ar    1  UNL1        0.0192
     13 C         -11.5950  -18.9417   24.8389 C.ar    1  UNL1        0.0015
     14 C         -12.8992  -18.4703   24.2673 C.ar    1  UNL1        0.0001
     15 C         -12.9181  -17.6875   22.9879 C.ar    1  UNL1        0.0027
     16 C         -11.6328  -17.3761   22.2801 C.ar    1  UNL1        0.0329
     17 C          -4.9219  -20.0227   20.7040 C.3     1  UNL1        0.1960
     18 C          -4.2341  -21.0846   19.8983 C.3     1  UNL1        0.0428
     19 O          -6.0626  -20.9607   20.9665 O.3     1  UNL1       -0.3751
     20 H          -6.7278  -20.5154   21.5143 H       1  UNL1        0.2110
     21 C          -3.7812  -19.0847   20.4415 C.3     1  UNL1        0.4231
     22 F          -2.6404  -18.1467   20.1790 F       1  UNL1       -0.1673
     23 F          -4.5577  -18.4529   19.3245 F       1  UNL1       -0.1673
     24 F          -2.7517  -19.4708   21.4618 F       1  UNL1       -0.1673
@<TRIPOS>BOND
     1     7     8    1
     2     8     9   ar
     3     9    10   ar
     4    10     1    1
     5     1     2   ar
     6     2     3   ar
     7     3     4   ar
     8     4     5   ar
     9     5    17    1
    10    17    18    1
    11    17    19    1
    12    17    21    1
    13    21    22    1
    14    21    23    1
    15    21    24    1
    16     5     6   ar
    17    10    11   ar
    18    11    12   ar
    19    12    13   ar
    20    13    14   ar
    21    14    15   ar
    22    15    16   ar
    23    16     8   ar
    24     6     1   ar
    25    16    11   ar
    26    19    20    1
@<TRIPOS>MOLECULE
*****
 24 26 0 0 0
SMALL
GASTEIGER

@<TRIPOS>ATOM
      1 C          -7.4991  -17.6239   22.8403 C.ar    1  UNL1        0.1017
      2 C          -7.0152  -16.4613   23.6555 C.ar    1  UNL1        0.1179
      3 N          -8.0027  -15.5540   24.3277 N.ar    1  UNL1       -0.2410
      4 C          -9.4738  -15.8093   24.1848 C.ar    1  UNL1        0.0972
      5 C          -9.9576  -16.9718   23.3696 C.ar    1  UNL1        0.0304
      6 C          -8.9702  -17.8791   22.6974 C.ar    1  UNL1        0.0205
      7 C          -5.4205  -21.4830   19.8963 C.3     1  UNL1        0.0540
      8 C          -5.5563  -20.3050   20.8149 C.ar    1  UNL1        0.0807
      9 N          -6.8440  -19.6756   21.2571 N.ar    1  UNL1       -0.1694
     10 N          -6.5117  -18.5312   22.1681 N.ar    1  UNL1       -0.2285
     11 C          -5.0186  -18.4533   22.2889 C.ar    1  UNL1        0.0840
     12 C          -4.1204  -17.5258   23.0524 C.ar    1  UNL1        0.0192
     13 C          -2.6317  -17.6946   22.9796 C.ar    1  UNL1        0.0015
     14 C          -2.0412  -18.7909   22.1432 C.ar    1  UNL1        0.0001
     15 C          -2.9394  -19.7184   21.3797 C.ar    1  UNL1        0.0027
     16 C          -4.4281  -19.5496   21.4526 C.ar    1  UNL1        0.0329
     17 C         -11.4288  -17.2270   23.2267 C.3     1  UNL1        0.1960
     18 C         -12.9000  -17.4823   23.0838 C.3     1  UNL1        0.0428
     19 O         -11.6251  -15.8223   22.7385 O.3     1  UNL1       -0.3751
     20 H         -10.7704  -15.3639   22.7205 H       1  UNL1        0.2110
     21 C         -11.2325  -18.6317   23.7149 C.3     1  UNL1        0.4231
     22 F         -11.0363  -20.0364   24.2030 F       1  UNL1       -0.1673
     23 F         -11.6527  -19.1564   22.3739 F       1  UNL1       -0.1673
     24 F         -10.7773  -18.4625   25.1341 F       1  UNL1       -0.1673
@<TRIPOS>BOND
     1     7     8    1
     2     8     9   ar
     3     9    10   ar
     4    10     1    1
     5     1     2   ar
     6     2     3   ar
     7     3     4   ar
     8     4     5   ar
     9     5    17    1
    10    17    18    1
    11    17    19    1
    12    17    21    1
    13    21    22    1
    14    21    23    1
    15    21    24    1
    16     5     6   ar
    17    10    11   ar
    18    11    12   ar
    19    12    13   ar
    20    13    14   ar
    21    14    15   ar
    22    15    16   ar
    23    16     8   ar
    24     6     1   ar
    25    16    11   ar
    26    19    20    1
@<TRIPOS>MOLECULE
*****
 24 26 0 0 0
SMALL
GASTEIGER

@<TRIPOS>ATOM
      1 C          -4.3274  -16.8233   23.0448 C.ar    1  UNL1        0.1017
      2 C          -3.1363  -15.9464   22.7946 C.ar    1  UNL1        0.1179
      3 N          -2.0775  -16.3786   21.8239 N.ar    1  UNL1       -0.2410
      4 C          -2.2098  -17.6876   21.1034 C.ar    1  UNL1        0.0972
      5 C          -3.4009  -18.5643   21.3536 C.ar    1  UNL1        0.0304
      6 C          -4.4596  -18.1322   22.3243 C.ar    1  UNL1        0.0205
      7 C          -6.7200  -15.0300   27.3969 C.3     1  UNL1        0.0540
      8 C          -6.4859  -15.5668   26.0159 C.ar    1  UNL1        0.0807
      9 N          -5.1517  -15.8794   25.4059 N.ar    1  UNL1       -0.1694
     10 N          -5.3862  -16.3911   24.0155 N.ar    1  UNL1       -0.2285
     11 C          -6.8653  -16.3947   23.7662 C.ar    1  UNL1        0.0840
     12 C          -7.6811  -16.7961   22.5732 C.ar    1  UNL1        0.0192
     13 C          -9.1765  -16.6880   22.6165 C.ar    1  UNL1        0.0015
     14 C          -9.8562  -16.1786   23.8528 C.ar    1  UNL1        0.0001
     15 C          -9.0404  -15.7772   25.0458 C.ar    1  UNL1        0.0027
     16 C          -7.5450  -15.8853   25.0025 C.ar    1  UNL1        0.0329
     17 C          -3.5332  -19.8733   20.6331 C.3     1  UNL1        0.1960
     18 C          -3.6655  -21.1823   19.9126 C.3     1  UNL1        0.0428
     19 O          -2.2057  -20.3083   21.1796 O.3     1  UNL1       -0.3751
     20 H          -1.8389  -19.6040   21.7367 H       1  UNL1        0.2110
     21 C          -4.8606  -19.4383   20.0866 C.3     1  UNL1        0.4231
     22 F          -6.1881  -19.0034   19.5401 F       1  UNL1       -0.1673
     23 F          -5.5495  -20.4472   20.9570 F       1  UNL1       -0.1673
     24 F          -4.5134  -18.3542   19.1099 F       1  UNL1       -0.1673
@<TRIPOS>BOND
     1     7     8    1
     2     8     9   ar
     3     9    10   ar
     4    10     1    1
     5     1     2   ar
     6     2     3   ar
     7     3     4   ar
     8     4     5   ar
     9     5    17    1
    10    17    18    1
    11    17    19    1
    12    17    21    1
    13    21    22    1
    14    21    23    1
    15    21    24    1
    16     5     6   ar
    17    10    11   ar
    18    11    12   ar
    19    12    13   ar
    20    13    14   ar
    21    14    15   ar
    22    15    16   ar
    23    16     8   ar
    24     6     1   ar
    25    16    11   ar
    26    19    20    1
@<TRIPOS>MOLECULE
*****
 24 26 0 0 0
SMALL
GASTEIGER

@<TRIPOS>ATOM
      1 C          -7.0611  -16.9934   23.0053 C.ar    1  UNL1        0.1017
      2 C          -6.6911  -15.9365   24.0034 C.ar    1  UNL1        0.1179
      3 N          -5.2713  -15.8101   24.4704 N.ar    1  UNL1       -0.2410
      4 C          -4.2214  -16.7404   23.9393 C.ar    1  UNL1        0.0972
      5 C          -4.5913  -17.7973   22.9412 C.ar    1  UNL1        0.0304
      6 C          -6.0112  -17.9237   22.4742 C.ar    1  UNL1        0.0205
      7 C         -12.2804  -16.3271   22.5634 C.3     1  UNL1        0.0540
      8 C         -10.8799  -16.8137   22.3352 C.ar    1  UNL1        0.0807
      9 N          -9.6620  -16.3838   23.0979 N.ar    1  UNL1       -0.1694
     10 N          -8.4809  -17.1199   22.5383 N.ar    1  UNL1       -0.2285
     11 C          -8.9689  -18.0048   21.4298 C.ar    1  UNL1        0.0840
     12 C          -8.2548  -18.9584   20.5184 C.ar    1  UNL1        0.0192
     13 C          -9.0233  -19.7227   19.4816 C.ar    1  UNL1        0.0015
     14 C         -10.5060  -19.5334   19.3561 C.ar    1  UNL1        0.0001
     15 C         -11.2202  -18.5798   20.2674 C.ar    1  UNL1        0.0027
     16 C         -10.4516  -17.8155   21.3042 C.ar    1  UNL1        0.0329
     17 C          -3.5414  -18.7276   22.4100 C.3     1  UNL1        0.1960
     18 C          -2.4915  -19.6580   21.8789 C.3     1  UNL1        0.0428
     19 O          -4.4587  -19.8925   22.6373 O.3     1  UNL1       -0.3751
     20 H          -5.2965  -19.5764   23.0101 H       1  UNL1        0.2110
     21 C          -2.6241  -17.5627   22.1828 C.3     1  UNL1        0.4231
     22 F          -1.7068  -16.3979   21.9555 F       1  UNL1       -0.1673
     23 F          -1.8847  -17.8990   23.4437 F       1  UNL1       -0.1673
     24 F          -3.1197  -16.9546   20.9043 F       1  UNL1       -0.1673
@<TRIPOS>BOND
     1     7     8    1
     2     8     9   ar
     3     9    10   ar
     4    10     1    1
     5     1     2   ar
     6     2     3   ar
     7     3     4   ar
     8     4     5   ar
     9     5    17    1
    10    17    18    1
    11    17    19    1
    12    17    21    1
    13    21    22    1
    14    21    23    1
    15    21    24    1
    16     5     6   ar
    17    10    11   ar
    18    11    12   ar
    19    12    13   ar
    20    13    14   ar
    21    14    15   ar
    22    15    16   ar
    23    16     8   ar
    24     6     1   ar
    25    16    11   ar
    26    19    20    1
