@<TRIPOS>MOLECULE
*****
 39 43 0 0 0
SMALL
GASTEIGER

@<TRIPOS>ATOM
      1 N           2.8122   -0.4532   30.2298 N.ar    1  UNL1       -0.2251
      2 N           1.3674   -0.0900   30.4045 N.ar    1  UNL1       -0.1610
      3 C           0.7886    0.1750   29.0463 C.ar    1  UNL1        0.1741
      4 C           1.8757   -0.0243   28.0322 C.ar    1  UNL1        0.0488
      5 C           3.1264   -0.4127   28.7636 C.ar    1  UNL1        0.1391
      6 C           5.8400   -2.1243   32.1767 C.ar    1  UNL1       -0.0011
      7 C           5.6977   -1.4839   33.5256 C.ar    1  UNL1       -0.0025
      8 C           4.5936   -0.4999   33.7759 C.ar    1  UNL1        0.0013
      9 C           3.6317   -0.1563   32.6774 C.ar    1  UNL1        0.0191
     10 C           3.7740   -0.7967   31.3284 C.ar    1  UNL1        0.0827
     11 C           4.8781   -1.7807   31.0781 C.ar    1  UNL1        0.0165
     12 C           6.9441   -3.1083   31.9263 C.3     1  UNL1        0.1164
     13 C           6.8938   -5.2749   30.4934 C.2     1  UNL1        0.2367
     14 O           6.6200   -6.0841   31.7264 O.2     1  UNL1       -0.2737
     15 N           7.0559   -3.7870   30.5934 N.am    1  UNL1       -0.2993
     16 H           7.2356   -3.2560   29.7841 H       1  UNL1        0.1498
     17 C           8.2093   -6.7908   28.8437 C.3     1  UNL1        0.0267
     18 C           7.0056   -5.9537   29.1605 C.3     1  UNL1        0.1284
     19 N           5.9137   -5.7953   28.1442 N.3     1  UNL1       -0.3150
     20 H           5.1793   -5.1982   28.5245 H       1  UNL1        0.1192
     21 H           5.5246   -6.7105   27.9177 H       1  UNL1        0.1192
     22 C           4.4575   -0.7085   28.1386 C.ar    1  UNL1        0.2676
     23 N           5.6482    0.2038   28.1268 N.ar    1  UNL1       -0.1053
     24 N           6.7581   -0.4924   27.3966 N.ar    1  UNL1       -0.1068
     25 C           6.2536   -1.8348   26.9572 C.ar    1  UNL1        0.2505
     26 O           4.8316   -1.9684   27.4157 O.2     1  UNL1       -0.4143
     27 C           7.0339   -2.8632   26.1932 C.ar    1  UNL1        0.0626
     28 C           8.2729   -3.4611   26.7910 C.ar    1  UNL1        0.0053
     29 C           9.0531   -4.4895   26.0270 C.ar    1  UNL1        0.0017
     30 C           8.5944   -4.9199   24.6653 C.ar    1  UNL1        0.0196
     31 C           7.3553   -4.3220   24.0676 C.ar    1  UNL1        0.0881
     32 N           6.6642   -4.5478   22.7556 N.ar    1  UNL1       -0.2363
     33 C           5.4569   -3.6590   22.7086 C.ar    1  UNL1        0.1345
     34 S           5.4018   -2.8839   23.9917 S.2     1  UNL1       -0.0644
     35 C           6.5751   -3.2936   24.8315 C.ar    1  UNL1        0.0531
     36 C          -0.6286    0.5702   28.7537 C.3     1  UNL1        0.4366
     37 F          -2.0458    0.9652   28.4611 F       1  UNL1       -0.1643
     38 F          -1.0551   -0.8618   28.8865 F       1  UNL1       -0.1643
     39 F          -0.2020    2.0020   28.6210 F       1  UNL1       -0.1643
@<TRIPOS>BOND
     1    18    17    1
     2    18    19    1
     3    18    13    1
     4    13    14    2
     5    13    15   am
     6    15    12    1
     7    12     6    1
     8     6     7   ar
     9     7     8   ar
    10     8     9   ar
    11     9    10   ar
    12    10     1    1
    13     1     2   ar
    14     2     3   ar
    15     3    36    1
    16    36    37    1
    17    36    38    1
    18    36    39    1
    19     3     4   ar
    20     4     5   ar
    21     5    22    1
    22    22    23   ar
    23    23    24   ar
    24    24    25   ar
    25    25    27    1
    26    27    28   ar
    27    28    29   ar
    28    29    30   ar
    29    30    31   ar
    30    31    32   ar
    31    32    33   ar
    32    33    34   ar
    33    34    35   ar
    34    25    26   ar
    35    10    11   ar
    36    11     6   ar
    37     5     1   ar
    38    26    22   ar
    39    35    27   ar
    40    35    31   ar
    41    19    20    1
    42    19    21    1
    43    15    16    1
@<TRIPOS>MOLECULE
*****
 39 43 0 0 0
SMALL
GASTEIGER

@<TRIPOS>ATOM
      1 N           5.9849   -3.5447   23.3578 N.ar    1  UNL1       -0.2251
      2 N           5.8480   -4.2693   22.0515 N.ar    1  UNL1       -0.1610
      3 C           4.6810   -3.6810   21.3154 C.ar    1  UNL1        0.1741
      4 C           4.0966   -2.5930   22.1666 C.ar    1  UNL1        0.0488
      5 C           4.9025   -2.5087   23.4289 C.ar    1  UNL1        0.1391
      6 C           7.8312   -5.1447   26.4853 C.ar    1  UNL1       -0.0011
      7 C           9.0967   -4.3399   26.5097 C.ar    1  UNL1       -0.0025
      8 C           9.3250   -3.2700   25.4835 C.ar    1  UNL1        0.0013
      9 C           8.2878   -3.0049   24.4328 C.ar    1  UNL1        0.0191
     10 C           7.0223   -3.8097   24.4084 C.ar    1  UNL1        0.0827
     11 C           6.7940   -4.8797   25.4346 C.ar    1  UNL1        0.0165
     12 C           7.6029   -6.2146   27.5115 C.3     1  UNL1        0.1164
     13 C           7.7016   -5.4600   29.9956 C.2     1  UNL1        0.2367
     14 O           9.1962   -5.3669   29.9080 O.2     1  UNL1       -0.2737
     15 N           6.9050   -5.8838   28.7974 N.am    1  UNL1       -0.2993
     16 H           5.9241   -5.9449   28.8550 H       1  UNL1        0.1498
     17 C           6.6334   -3.7087   31.5900 C.3     1  UNL1        0.0267
     18 C           7.0038   -5.1292   31.2815 C.3     1  UNL1        0.1284
     19 N           6.6762   -6.2189   32.2590 N.3     1  UNL1       -0.3150
     20 H           6.9974   -7.1141   31.8904 H       1  UNL1        0.1192
     21 H           5.6672   -6.2533   32.4043 H       1  UNL1        0.1192
     22 C           4.6673   -1.5558   24.5632 C.ar    1  UNL1        0.2676
     23 N           4.7243   -0.0590   24.4835 N.ar    1  UNL1       -0.1053
     24 N           4.4260    0.4894   25.8474 N.ar    1  UNL1       -0.1068
     25 C           4.1848   -0.6683   26.7700 C.ar    1  UNL1        0.2505
     26 O           4.3339   -1.9324   25.9764 O.2     1  UNL1       -0.4143
     27 C           3.8527   -0.5779   28.2300 C.ar    1  UNL1        0.0626
     28 C           4.8560   -1.0151   29.2559 C.ar    1  UNL1        0.0053
     29 C           4.5239   -0.9247   30.7158 C.ar    1  UNL1        0.0017
     30 C           3.1886   -0.3972   31.1500 C.ar    1  UNL1        0.0196
     31 C           2.1853    0.0400   30.1241 C.ar    1  UNL1        0.0881
     32 N           0.7985    0.5976   30.2504 N.ar    1  UNL1       -0.2363
     33 C           0.2735    0.8519   28.8685 C.ar    1  UNL1        0.1345
     34 S           1.3359    0.4514   27.8881 S.2     1  UNL1       -0.0644
     35 C           2.5174   -0.0504   28.6642 C.ar    1  UNL1        0.0531
     36 C           4.1853   -4.1062   19.9650 C.3     1  UNL1        0.4366
     37 F           3.6896   -4.5315   18.6146 F       1  UNL1       -0.1643
     38 F           3.4314   -5.2380   20.5981 F       1  UNL1       -0.1643
     39 F           4.9391   -2.9746   19.3318 F       1  UNL1       -0.1643
@<TRIPOS>BOND
     1    18    17    1
     2    18    19    1
     3    18    13    1
     4    13    14    2
     5    13    15   am
     6    15    12    1
     7    12     6    1
     8     6     7   ar
     9     7     8   ar
    10     8     9   ar
    11     9    10   ar
    12    10     1    1
    13     1     2   ar
    14     2     3   ar
    15     3    36    1
    16    36    37    1
    17    36    38    1
    18    36    39    1
    19     3     4   ar
    20     4     5   ar
    21     5    22    1
    22    22    23   ar
    23    23    24   ar
    24    24    25   ar
    25    25    27    1
    26    27    28   ar
    27    28    29   ar
    28    29    30   ar
    29    30    31   ar
    30    31    32   ar
    31    32    33   ar
    32    33    34   ar
    33    34    35   ar
    34    25    26   ar
    35    10    11   ar
    36    11     6   ar
    37     5     1   ar
    38    26    22   ar
    39    35    27   ar
    40    35    31   ar
    41    19    20    1
    42    19    21    1
    43    15    16    1
@<TRIPOS>MOLECULE
*****
 39 43 0 0 0
SMALL
GASTEIGER

@<TRIPOS>ATOM
      1 N           7.1195   -4.2296   26.6690 N.ar    1  UNL1       -0.2251
      2 N           7.7303   -5.1336   27.6983 N.ar    1  UNL1       -0.1610
      3 C           8.0419   -6.4439   27.0380 C.ar    1  UNL1        0.1741
      4 C           7.6236   -6.3497   25.6005 C.ar    1  UNL1        0.0488
      5 C           7.0535   -4.9811   25.3725 C.ar    1  UNL1        0.1391
      6 C           4.9638   -1.1508   27.9435 C.ar    1  UNL1       -0.0011
      7 C           5.7287   -0.0046   27.3510 C.ar    1  UNL1       -0.0025
      8 C           6.9572   -0.2666   26.5312 C.ar    1  UNL1        0.0013
      9 C           7.4208   -1.6749   26.3039 C.ar    1  UNL1        0.0191
     10 C           6.6559   -2.8212   26.8963 C.ar    1  UNL1        0.0827
     11 C           5.4274   -2.5591   27.7161 C.ar    1  UNL1        0.0165
     12 C           3.7353   -0.8888   28.7633 C.3     1  UNL1        0.1164
     13 C           1.2287   -0.2165   28.8861 C.2     1  UNL1        0.2367
     14 O           1.3621    0.0114   30.3626 O.2     1  UNL1       -0.2737
     15 N           2.4152   -0.6666   28.0864 N.am    1  UNL1       -0.2993
     16 H           2.3276   -0.8161   27.1173 H       1  UNL1        0.1498
     17 C          -1.3556   -0.4817   28.8527 C.3     1  UNL1        0.0267
     18 C          -0.0913    0.0057   28.2092 C.3     1  UNL1        0.1284
     19 N          -0.1471    0.7153   26.8888 N.3     1  UNL1       -0.3150
     20 H           0.7968    0.9743   26.6018 H       1  UNL1        0.1192
     21 H          -0.7179    1.5559   26.9783 H       1  UNL1        0.1192
     22 C           6.5124   -4.4562   24.0757 C.ar    1  UNL1        0.2676
     23 N           7.0137   -4.8049   22.7056 N.ar    1  UNL1       -0.1053
     24 N           6.1862   -4.0547   21.7045 N.ar    1  UNL1       -0.1068
     25 C           5.1735   -3.2424   22.4557 C.ar    1  UNL1        0.2505
     26 O           5.3751   -3.4905   23.9212 O.2     1  UNL1       -0.4143
     27 C           4.1405   -2.3403   21.8482 C.ar    1  UNL1        0.0626
     28 C           3.7621   -2.4982   20.4053 C.ar    1  UNL1        0.0053
     29 C           2.7290   -1.5961   19.7978 C.ar    1  UNL1        0.0017
     30 C           2.0744   -0.5361   20.6331 C.ar    1  UNL1        0.0196
     31 C           2.4529   -0.3782   22.0760 C.ar    1  UNL1        0.0881
     32 N           1.9821    0.5694   23.1393 N.ar    1  UNL1       -0.2363
     33 C           2.7240    0.2529   24.4039 C.ar    1  UNL1        0.1345
     34 S           3.6535   -0.8903   24.1222 S.2     1  UNL1       -0.0644
     35 C           3.4859   -1.2802   22.6835 C.ar    1  UNL1        0.0531
     36 C           8.6628   -7.6387   27.6991 C.3     1  UNL1        0.4366
     37 F           9.2837   -8.8335   28.3601 F       1  UNL1       -0.1643
     38 F           8.5495   -8.4074   26.4160 F       1  UNL1       -0.1643
     39 F           8.7761   -6.8700   28.9820 F       1  UNL1       -0.1643
@<TRIPOS>BOND
     1    18    17    1
     2    18    19    1
     3    18    13    1
     4    13    14    2
     5    13    15   am
     6    15    12    1
     7    12     6    1
     8     6     7   ar
     9     7     8   ar
    10     8     9   ar
    11     9    10   ar
    12    10     1    1
    13     1     2   ar
    14     2     3   ar
    15     3    36    1
    16    36    37    1
    17    36    38    1
    18    36    39    1
    19     3     4   ar
    20     4     5   ar
    21     5    22    1
    22    22    23   ar
    23    23    24   ar
    24    24    25   ar
    25    25    27    1
    26    27    28   ar
    27    28    29   ar
    28    29    30   ar
    29    30    31   ar
    30    31    32   ar
    31    32    33   ar
    32    33    34   ar
    33    34    35   ar
    34    25    26   ar
    35    10    11   ar
    36    11     6   ar
    37     5     1   ar
    38    26    22   ar
    39    35    27   ar
    40    35    31   ar
    41    19    20    1
    42    19    21    1
    43    15    16    1
@<TRIPOS>MOLECULE
*****
 39 43 0 0 0
SMALL
GASTEIGER

@<TRIPOS>ATOM
      1 N           4.7531   -1.6255   23.1806 N.ar    1  UNL1       -0.2251
      2 N           3.8638   -0.8164   22.2837 N.ar    1  UNL1       -0.1610
      3 C           3.8136   -1.4945   20.9467 C.ar    1  UNL1        0.1741
      4 C           4.6720   -2.7226   21.0172 C.ar    1  UNL1        0.0488
      5 C           5.2526   -2.8036   22.3979 C.ar    1  UNL1        0.1391
      6 C           4.3307   -0.9783   27.0733 C.ar    1  UNL1       -0.0011
      7 C           5.7478   -0.6837   27.4671 C.ar    1  UNL1       -0.0025
      8 C           6.8333   -0.7030   26.4321 C.ar    1  UNL1        0.0013
      9 C           6.5018   -1.0170   25.0033 C.ar    1  UNL1        0.0191
     10 C           5.0848   -1.3116   24.6095 C.ar    1  UNL1        0.0827
     11 C           3.9992   -1.2922   25.6444 C.ar    1  UNL1        0.0165
     12 C           3.2452   -0.9590   28.1083 C.3     1  UNL1        0.1164
     13 C           0.8800   -0.1482   28.8144 C.2     1  UNL1        0.2367
     14 O           1.2740   -0.2556   30.2577 O.2     1  UNL1       -0.2737
     15 N           1.8656   -0.4999   27.7397 N.am    1  UNL1       -0.2993
     16 H           1.6069   -0.4294   26.7924 H       1  UNL1        0.1498
     17 C          -1.6952   -0.2810   29.1315 C.3     1  UNL1        0.0267
     18 C          -0.4996    0.3109   28.4458 C.3     1  UNL1        0.1284
     19 N          -0.6836    1.3619   27.3914 N.3     1  UNL1       -0.3150
     20 H           0.2279    1.6492   27.0350 H       1  UNL1        0.1192
     21 H          -1.1606    2.1682   27.7947 H       1  UNL1        0.1192
     22 C           6.1715   -3.8746   22.9065 C.ar    1  UNL1        0.2676
     23 N           7.2220   -4.5875   22.1077 N.ar    1  UNL1       -0.1053
     24 N           7.9009   -5.5741   23.0108 N.ar    1  UNL1       -0.1068
     25 C           7.2700   -5.4711   24.3677 C.ar    1  UNL1        0.2505
     26 O           6.2011   -4.4207   24.3033 O.2     1  UNL1       -0.4143
     27 C           7.6424   -6.2769   25.5768 C.ar    1  UNL1        0.0626
     28 C           8.2952   -7.6174   25.4127 C.ar    1  UNL1        0.0053
     29 C           8.6677   -8.4233   26.6218 C.ar    1  UNL1        0.0017
     30 C           8.3874   -7.8886   27.9949 C.ar    1  UNL1        0.0196
     31 C           7.7346   -6.5480   28.1589 C.ar    1  UNL1        0.0881
     32 N           7.3374   -5.7674   29.3766 N.ar    1  UNL1       -0.2363
     33 C           6.7194   -4.4791   28.9202 C.ar    1  UNL1        0.1345
     34 S           6.7347   -4.4636   27.4203 S.2     1  UNL1       -0.0644
     35 C           7.3622   -5.7423   26.9499 C.ar    1  UNL1        0.0531
     36 C           3.0407   -1.0265   19.7493 C.3     1  UNL1        0.4366
     37 F           2.2678   -0.5585   18.5520 F       1  UNL1       -0.1643
     38 F           1.7588   -1.2033   20.5078 F       1  UNL1       -0.1643
     39 F           4.3226   -0.8497   18.9909 F       1  UNL1       -0.1643
@<TRIPOS>BOND
     1    18    17    1
     2    18    19    1
     3    18    13    1
     4    13    14    2
     5    13    15   am
     6    15    12    1
     7    12     6    1
     8     6     7   ar
     9     7     8   ar
    10     8     9   ar
    11     9    10   ar
    12    10     1    1
    13     1     2   ar
    14     2     3   ar
    15     3    36    1
    16    36    37    1
    17    36    38    1
    18    36    39    1
    19     3     4   ar
    20     4     5   ar
    21     5    22    1
    22    22    23   ar
    23    23    24   ar
    24    24    25   ar
    25    25    27    1
    26    27    28   ar
    27    28    29   ar
    28    29    30   ar
    29    30    31   ar
    30    31    32   ar
    31    32    33   ar
    32    33    34   ar
    33    34    35   ar
    34    25    26   ar
    35    10    11   ar
    36    11     6   ar
    37     5     1   ar
    38    26    22   ar
    39    35    27   ar
    40    35    31   ar
    41    19    20    1
    42    19    21    1
    43    15    16    1
@<TRIPOS>MOLECULE
*****
 39 43 0 0 0
SMALL
GASTEIGER

@<TRIPOS>ATOM
      1 N           2.5742   -0.2267   30.5850 N.ar    1  UNL1       -0.2251
      2 N           1.1901    0.3481   30.5210 N.ar    1  UNL1       -0.1610
      3 C           0.7822    0.4148   29.0791 C.ar    1  UNL1        0.1741
      4 C           1.9141   -0.1187   28.2519 C.ar    1  UNL1        0.0488
      5 C           3.0216   -0.5152   29.1826 C.ar    1  UNL1        0.1391
      6 C           4.2595    0.3525   34.1310 C.ar    1  UNL1       -0.0011
      7 C           4.9643   -0.9569   34.3272 C.ar    1  UNL1       -0.0025
      8 C           4.8725   -2.0230   33.2760 C.ar    1  UNL1        0.0013
      9 C           4.0758   -1.7796   32.0286 C.ar    1  UNL1        0.0191
     10 C           3.3709   -0.4701   31.8324 C.ar    1  UNL1        0.0827
     11 C           3.4628    0.5959   32.8836 C.ar    1  UNL1        0.0165
     12 C           4.3513    1.4186   35.1822 C.3     1  UNL1        0.1164
     13 C           2.7466    1.8571   37.1779 C.2     1  UNL1        0.2367
     14 O           2.0132    2.8810   36.3633 O.2     1  UNL1       -0.2737
     15 N           3.9156    1.1259   36.5874 N.am    1  UNL1       -0.2993
     16 H           4.3970    0.4538   37.1221 H       1  UNL1        0.1498
     17 C           1.0783    2.2152   39.1371 C.3     1  UNL1        0.0267
     18 C           2.3109    1.5643   38.5830 C.3     1  UNL1        0.1284
     19 N           3.1079    0.6206   39.4342 N.3     1  UNL1       -0.3150
     20 H           3.9060    0.2741   38.9019 H       1  UNL1        0.1192
     21 H           2.5195   -0.1641   39.7143 H       1  UNL1        0.1192
     22 C           4.3443   -1.0978   28.7814 C.ar    1  UNL1        0.2676
     23 N           5.6924   -0.5090   29.0744 N.ar    1  UNL1       -0.1053
     24 N           6.7324   -1.4188   28.4909 N.ar    1  UNL1       -0.1068
     25 C           6.0271   -2.5700   27.8372 C.ar    1  UNL1        0.2505
     26 O           4.5512   -2.3716   28.0168 O.2     1  UNL1       -0.4143
     27 C           6.6826   -3.7180   27.1285 C.ar    1  UNL1        0.0626
     28 C           6.7670   -3.7252   25.6309 C.ar    1  UNL1        0.0053
     29 C           7.4225   -4.8732   24.9221 C.ar    1  UNL1        0.0017
     30 C           7.9937   -6.0140   25.7109 C.ar    1  UNL1        0.0196
     31 C           7.9093   -6.0068   27.2086 C.ar    1  UNL1        0.0881
     32 N           8.3791   -6.9840   28.2450 N.ar    1  UNL1       -0.2363
     33 C           8.0140   -6.4401   29.5943 C.ar    1  UNL1        0.1345
     34 S           7.3185   -5.1265   29.3918 S.2     1  UNL1       -0.0644
     35 C           7.2538   -4.8588   27.9173 C.ar    1  UNL1        0.0531
     36 C          -0.5278    0.9254   28.5562 C.3     1  UNL1        0.4366
     37 F          -1.8377    1.4359   28.0333 F       1  UNL1       -0.1643
     38 F          -1.0124   -0.4848   28.3936 F       1  UNL1       -0.1643
     39 F          -0.0431    2.3355   28.7189 F       1  UNL1       -0.1643
@<TRIPOS>BOND
     1    18    17    1
     2    18    19    1
     3    18    13    1
     4    13    14    2
     5    13    15   am
     6    15    12    1
     7    12     6    1
     8     6     7   ar
     9     7     8   ar
    10     8     9   ar
    11     9    10   ar
    12    10     1    1
    13     1     2   ar
    14     2     3   ar
    15     3    36    1
    16    36    37    1
    17    36    38    1
    18    36    39    1
    19     3     4   ar
    20     4     5   ar
    21     5    22    1
    22    22    23   ar
    23    23    24   ar
    24    24    25   ar
    25    25    27    1
    26    27    28   ar
    27    28    29   ar
    28    29    30   ar
    29    30    31   ar
    30    31    32   ar
    31    32    33   ar
    32    33    34   ar
    33    34    35   ar
    34    25    26   ar
    35    10    11   ar
    36    11     6   ar
    37     5     1   ar
    38    26    22   ar
    39    35    27   ar
    40    35    31   ar
    41    19    20    1
    42    19    21    1
    43    15    16    1
@<TRIPOS>MOLECULE
*****
 39 43 0 0 0
SMALL
GASTEIGER

@<TRIPOS>ATOM
      1 N           6.3447   -2.8764   26.9781 N.ar    1  UNL1       -0.2251
      2 N           6.3516   -3.1591   28.4512 N.ar    1  UNL1       -0.1610
      3 C           6.6902   -4.6077   28.6436 C.ar    1  UNL1        0.1741
      4 C           6.8925   -5.2203   27.2894 C.ar    1  UNL1        0.0488
      5 C           6.6790   -4.1503   26.2600 C.ar    1  UNL1        0.1391
      6 C           4.3483    0.2531   25.5743 C.ar    1  UNL1       -0.0011
      7 C           5.4736    1.0959   25.0514 C.ar    1  UNL1       -0.0025
      8 C           6.8892    0.6146   25.1707 C.ar    1  UNL1        0.0013
      9 C           7.1796   -0.7095   25.8129 C.ar    1  UNL1        0.0191
     10 C           6.0544   -1.5523   26.3358 C.ar    1  UNL1        0.0827
     11 C           4.6387   -1.0710   26.2165 C.ar    1  UNL1        0.0165
     12 C           2.9327    0.7344   25.4550 C.3     1  UNL1        0.1164
     13 C           1.7093    0.7870   27.7464 C.2     1  UNL1        0.2367
     14 O           2.5953    1.9117   28.1937 O.2     1  UNL1       -0.2737
     15 N           1.8780    0.1984   26.3771 N.am    1  UNL1       -0.2993
     16 H           1.2965   -0.5398   26.0836 H       1  UNL1        0.1498
     17 C          -0.7961    0.4668   28.3547 C.3     1  UNL1        0.0267
     18 C           0.6547    0.2510   28.6686 C.3     1  UNL1        0.1284
     19 N           1.0509   -0.5010   29.9046 N.3     1  UNL1       -0.3150
     20 H           2.0681   -0.5529   29.9596 H       1  UNL1        0.1192
     21 H           0.6638   -1.4440   29.8676 H       1  UNL1        0.1192
     22 C           6.7817   -4.3236   24.7737 C.ar    1  UNL1        0.2676
     23 N           7.8031   -5.1510   24.0510 N.ar    1  UNL1       -0.1053
     24 N           7.5337   -5.0388   22.5797 N.ar    1  UNL1       -0.1068
     25 C           6.3459   -4.1422   22.3930 C.ar    1  UNL1        0.2505
     26 O           5.8811   -3.7001   23.7489 O.2     1  UNL1       -0.4143
     27 C           5.7307   -3.7554   21.0807 C.ar    1  UNL1        0.0626
     28 C           4.2767   -4.0221   20.8264 C.ar    1  UNL1        0.0053
     29 C           3.6616   -3.6353   19.5141 C.ar    1  UNL1        0.0017
     30 C           4.5005   -2.9818   18.4562 C.ar    1  UNL1        0.0196
     31 C           5.9546   -2.7151   18.7106 C.ar    1  UNL1        0.0881
     32 N           7.0235   -2.0903   17.8639 N.ar    1  UNL1       -0.2363
     33 C           8.2993   -2.0909   18.6527 C.ar    1  UNL1        0.1345
     34 S           8.0187   -2.7161   19.9871 S.2     1  UNL1       -0.0644
     35 C           6.5696   -3.1019   20.0228 C.ar    1  UNL1        0.0531
     36 C           6.8061   -5.3188   29.9592 C.3     1  UNL1        0.4366
     37 F           6.9219   -6.0298   31.2749 F       1  UNL1       -0.1643
     38 F           6.2571   -4.1115   30.6600 F       1  UNL1       -0.1643
     39 F           7.3550   -6.5260   29.2585 F       1  UNL1       -0.1643
@<TRIPOS>BOND
     1    18    17    1
     2    18    19    1
     3    18    13    1
     4    13    14    2
     5    13    15   am
     6    15    12    1
     7    12     6    1
     8     6     7   ar
     9     7     8   ar
    10     8     9   ar
    11     9    10   ar
    12    10     1    1
    13     1     2   ar
    14     2     3   ar
    15     3    36    1
    16    36    37    1
    17    36    38    1
    18    36    39    1
    19     3     4   ar
    20     4     5   ar
    21     5    22    1
    22    22    23   ar
    23    23    24   ar
    24    24    25   ar
    25    25    27    1
    26    27    28   ar
    27    28    29   ar
    28    29    30   ar
    29    30    31   ar
    30    31    32   ar
    31    32    33   ar
    32    33    34   ar
    33    34    35   ar
    34    25    26   ar
    35    10    11   ar
    36    11     6   ar
    37     5     1   ar
    38    26    22   ar
    39    35    27   ar
    40    35    31   ar
    41    19    20    1
    42    19    21    1
    43    15    16    1
@<TRIPOS>MOLECULE
*****
 39 43 0 0 0
SMALL
GASTEIGER

@<TRIPOS>ATOM
      1 N           4.1823   -1.5371   22.4939 N.ar    1  UNL1       -0.2251
      2 N           4.7114   -2.6885   21.6913 N.ar    1  UNL1       -0.1610
      3 C           3.9428   -2.7485   20.4046 C.ar    1  UNL1        0.1741
      4 C           2.9387   -1.6342   20.4120 C.ar    1  UNL1        0.0488
      5 C           3.0867   -0.8854   21.7033 C.ar    1  UNL1        0.1391
      6 C           4.3229   -0.9882   26.4219 C.ar    1  UNL1       -0.0011
      7 C           5.6279   -0.2617   26.5601 C.ar    1  UNL1       -0.0025
      8 C           6.4511    0.0396   25.3430 C.ar    1  UNL1        0.0013
      9 C           5.9693   -0.3855   23.9876 C.ar    1  UNL1        0.0191
     10 C           4.6642   -1.1119   23.8493 C.ar    1  UNL1        0.0827
     11 C           3.8411   -1.4133   25.0665 C.ar    1  UNL1        0.0165
     12 C           3.4997   -1.2895   27.6391 C.3     1  UNL1        0.1164
     13 C           1.6146   -0.3678   29.1710 C.2     1  UNL1        0.2367
     14 O           2.4412   -0.6880   30.3810 O.2     1  UNL1       -0.2737
     15 N           2.1438   -0.6685   27.8001 N.am    1  UNL1       -0.2993
     16 H           1.6012   -0.4584   27.0060 H       1  UNL1        0.1498
     17 C          -0.8823   -0.2035   28.4720 C.3     1  UNL1        0.0267
     18 C           0.2587    0.2532   29.3320 C.3     1  UNL1        0.1284
     19 N           0.0437    1.3308   30.3532 N.3     1  UNL1       -0.3150
     20 H           0.9192    1.5142   30.8434 H       1  UNL1        0.1192
     21 H          -0.6639    1.0285   31.0227 H       1  UNL1        0.1192
     22 C           2.2807    0.3058   22.1292 C.ar    1  UNL1        0.2676
     23 N           1.9605    1.5020   21.2827 N.ar    1  UNL1       -0.1053
     24 N           1.1353    2.4454   22.1067 N.ar    1  UNL1       -0.1068
     25 C           0.9455    1.8323   23.4624 C.ar    1  UNL1        0.2505
     26 O           1.6534    0.5099   23.4763 O.2     1  UNL1       -0.4143
     27 C           0.1818    2.4356   24.6038 C.ar    1  UNL1        0.0626
     28 C          -1.2785    2.7420   24.4505 C.ar    1  UNL1        0.0053
     29 C          -2.0422    3.3453   25.5919 C.ar    1  UNL1        0.0017
     30 C          -1.3455    3.6421   26.8867 C.ar    1  UNL1        0.0196
     31 C           0.1149    3.3356   27.0400 C.ar    1  UNL1        0.0881
     32 N           1.0633    3.5168   28.1879 N.ar    1  UNL1       -0.2363
     33 C           2.4131    3.0255   27.7560 C.ar    1  UNL1        0.1345
     34 S           2.2989    2.5406   26.3410 S.2     1  UNL1       -0.0644
     35 C           0.8785    2.7324   25.8986 C.ar    1  UNL1        0.0531
     36 C           4.1432   -3.7475   19.3037 C.3     1  UNL1        0.4366
     37 F           4.3436   -4.7465   18.2028 F       1  UNL1       -0.1643
     38 F           4.7216   -2.6718   18.4329 F       1  UNL1       -0.1643
     39 F           3.5648   -4.8232   20.1745 F       1  UNL1       -0.1643
@<TRIPOS>BOND
     1    18    17    1
     2    18    19    1
     3    18    13    1
     4    13    14    2
     5    13    15   am
     6    15    12    1
     7    12     6    1
     8     6     7   ar
     9     7     8   ar
    10     8     9   ar
    11     9    10   ar
    12    10     1    1
    13     1     2   ar
    14     2     3   ar
    15     3    36    1
    16    36    37    1
    17    36    38    1
    18    36    39    1
    19     3     4   ar
    20     4     5   ar
    21     5    22    1
    22    22    23   ar
    23    23    24   ar
    24    24    25   ar
    25    25    27    1
    26    27    28   ar
    27    28    29   ar
    28    29    30   ar
    29    30    31   ar
    30    31    32   ar
    31    32    33   ar
    32    33    34   ar
    33    34    35   ar
    34    25    26   ar
    35    10    11   ar
    36    11     6   ar
    37     5     1   ar
    38    26    22   ar
    39    35    27   ar
    40    35    31   ar
    41    19    20    1
    42    19    21    1
    43    15    16    1
@<TRIPOS>MOLECULE
*****
 39 43 0 0 0
SMALL
GASTEIGER

@<TRIPOS>ATOM
      1 N           6.7876   -3.8207   26.4695 N.ar    1  UNL1       -0.2251
      2 N           7.0276   -4.4531   25.1307 N.ar    1  UNL1       -0.1610
      3 C           7.6130   -5.8150   25.3597 C.ar    1  UNL1        0.1741
      4 C           7.7348   -6.0243   26.8400 C.ar    1  UNL1        0.0488
      5 C           7.2247   -4.7917   27.5259 C.ar    1  UNL1        0.1391
      6 C           4.4685   -0.9240   27.8770 C.ar    1  UNL1       -0.0011
      7 C           5.0595    0.2713   27.1901 C.ar    1  UNL1       -0.0025
      8 C           6.2265    0.1027   26.2630 C.ar    1  UNL1        0.0013
      9 C           6.8026   -1.2613   26.0228 C.ar    1  UNL1        0.0191
     10 C           6.2116   -2.4566   26.7097 C.ar    1  UNL1        0.0827
     11 C           5.0445   -2.2880   27.6368 C.ar    1  UNL1        0.0165
     12 C           3.3014   -0.7554   28.8041 C.3     1  UNL1        0.1164
     13 C           0.8636    0.1055   29.0611 C.2     1  UNL1        0.2367
     14 O           1.1889    0.6175   30.4329 O.2     1  UNL1       -0.2737
     15 N           1.9198   -0.5809   28.2467 N.am    1  UNL1       -0.2993
     16 H           1.7062   -0.9170   27.3463 H       1  UNL1        0.1498
     17 C          -1.6017   -0.6912   28.8675 C.3     1  UNL1        0.0267
     18 C          -0.5180    0.2800   28.5036 C.3     1  UNL1        0.1284
     19 N          -0.8159    1.4256   27.5822 N.3     1  UNL1       -0.3150
     20 H           0.0292    1.9802   27.4450 H       1  UNL1        0.1192
     21 H          -1.5439    2.0109   27.9918 H       1  UNL1        0.1192
     22 C           7.1625   -4.5692   29.0080 C.ar    1  UNL1        0.2676
     23 N           6.8241   -5.6026   30.0413 N.ar    1  UNL1       -0.1053
     24 N           6.8802   -4.9464   31.3889 N.ar    1  UNL1       -0.1068
     25 C           7.2534   -3.5075   31.1886 C.ar    1  UNL1        0.2505
     26 O           7.4279   -3.2743   29.7171 O.2     1  UNL1       -0.4143
     27 C           7.4224   -2.4817   32.2699 C.ar    1  UNL1        0.0626
     28 C           8.7855   -2.1980   32.8281 C.ar    1  UNL1        0.0053
     29 C           8.9545   -1.1722   33.9094 C.ar    1  UNL1        0.0017
     30 C           7.7605   -0.4301   34.4325 C.ar    1  UNL1        0.0196
     31 C           6.3975   -0.7138   33.8741 C.ar    1  UNL1        0.0881
     32 N           5.0456   -0.1450   34.1889 N.ar    1  UNL1       -0.2363
     33 C           4.0411   -0.8192   33.3022 C.ar    1  UNL1        0.1345
     34 S           4.7722   -1.8048   32.4394 S.2     1  UNL1       -0.0644
     35 C           6.2285   -1.7395   32.7929 C.ar    1  UNL1        0.0531
     36 C           8.0074   -6.7955   24.2952 C.3     1  UNL1        0.4366
     37 F           8.4018   -7.7759   23.2306 F       1  UNL1       -0.1643
     38 F           8.0638   -5.6825   23.2911 F       1  UNL1       -0.1643
     39 F           7.9511   -7.9084   25.2992 F       1  UNL1       -0.1643
@<TRIPOS>BOND
     1    18    17    1
     2    18    19    1
     3    18    13    1
     4    13    14    2
     5    13    15   am
     6    15    12    1
     7    12     6    1
     8     6     7   ar
     9     7     8   ar
    10     8     9   ar
    11     9    10   ar
    12    10     1    1
    13     1     2   ar
    14     2     3   ar
    15     3    36    1
    16    36    37    1
    17    36    38    1
    18    36    39    1
    19     3     4   ar
    20     4     5   ar
    21     5    22    1
    22    22    23   ar
    23    23    24   ar
    24    24    25   ar
    25    25    27    1
    26    27    28   ar
    27    28    29   ar
    28    29    30   ar
    29    30    31   ar
    30    31    32   ar
    31    32    33   ar
    32    33    34   ar
    33    34    35   ar
    34    25    26   ar
    35    10    11   ar
    36    11     6   ar
    37     5     1   ar
    38    26    22   ar
    39    35    27   ar
    40    35    31   ar
    41    19    20    1
    42    19    21    1
    43    15    16    1
@<TRIPOS>MOLECULE
*****
 39 43 0 0 0
SMALL
GASTEIGER

@<TRIPOS>ATOM
      1 N           2.9039   -0.5456   20.0456 N.ar    1  UNL1       -0.2251
      2 N           3.2080   -1.6117   19.0352 N.ar    1  UNL1       -0.1610
      3 C           3.8172   -2.7759   19.7588 C.ar    1  UNL1        0.1741
      4 C           3.8896   -2.4293   21.2164 C.ar    1  UNL1        0.0488
      5 C           3.3252   -1.0509   21.3937 C.ar    1  UNL1        0.1391
      6 C           0.3095    2.4574   20.0105 C.ar    1  UNL1       -0.0011
      7 C           1.0527    3.4644   19.1838 C.ar    1  UNL1       -0.0025
      8 C           2.4130    3.1349   18.6444 C.ar    1  UNL1        0.0013
      9 C           3.0301    1.7982   18.9316 C.ar    1  UNL1        0.0191
     10 C           2.2869    0.7911   19.7583 C.ar    1  UNL1        0.0827
     11 C           0.9267    1.1207   20.2978 C.ar    1  UNL1        0.0165
     12 C          -1.0507    2.7870   20.5500 C.3     1  UNL1        0.1164
     13 C          -3.5386    3.3392   20.0445 C.2     1  UNL1        0.2367
     14 O          -3.9426    2.7099   21.3448 O.2     1  UNL1       -0.2737
     15 N          -2.0927    3.3778   19.6471 N.am    1  UNL1       -0.2993
     16 H          -1.8276    3.7909   18.7937 H       1  UNL1        0.1498
     17 C          -5.9558    3.3333   19.0922 C.3     1  UNL1        0.0267
     18 C          -4.5806    3.9301   19.1416 C.3     1  UNL1        0.1284
     19 N          -4.2472    5.1178   18.2881 N.3     1  UNL1       -0.3150
     20 H          -3.2770    5.3892   18.4472 H       1  UNL1        0.1192
     21 H          -4.8618    5.8946   18.5315 H       1  UNL1        0.1192
     22 C           3.2034   -0.3081   22.6912 C.ar    1  UNL1        0.2676
     23 N           4.2862    0.4897   23.3554 N.ar    1  UNL1       -0.1053
     24 N           3.7294    1.0581   24.6269 N.ar    1  UNL1       -0.1068
     25 C           2.3026    0.6117   24.7486 C.ar    1  UNL1        0.2505
     26 O           1.9775   -0.2327   23.5522 O.2     1  UNL1       -0.4143
     27 C           1.3654    0.9502   25.8698 C.ar    1  UNL1        0.0626
     28 C           0.1433    1.7777   25.6018 C.ar    1  UNL1        0.0053
     29 C          -0.7939    2.1162   26.7230 C.ar    1  UNL1        0.0017
     30 C          -0.5091    1.6272   28.1121 C.ar    1  UNL1        0.0196
     31 C           0.7130    0.7997   28.3800 C.ar    1  UNL1        0.0881
     32 N           1.2508    0.1813   29.6364 N.ar    1  UNL1       -0.2363
     33 C           2.5204   -0.5393   29.2918 C.ar    1  UNL1        0.1345
     34 S           2.7672   -0.3663   27.8223 S.2     1  UNL1       -0.0644
     35 C           1.6502    0.4612   27.2589 C.ar    1  UNL1        0.0531
     36 C           4.2738   -4.0611   19.1344 C.3     1  UNL1        0.4366
     37 F           4.7305   -5.3462   18.5099 F       1  UNL1       -0.1643
     38 F           5.7008   -3.6181   19.2664 F       1  UNL1       -0.1643
     39 F           2.8469   -4.5040   19.0024 F       1  UNL1       -0.1643
@<TRIPOS>BOND
     1    18    17    1
     2    18    19    1
     3    18    13    1
     4    13    14    2
     5    13    15   am
     6    15    12    1
     7    12     6    1
     8     6     7   ar
     9     7     8   ar
    10     8     9   ar
    11     9    10   ar
    12    10     1    1
    13     1     2   ar
    14     2     3   ar
    15     3    36    1
    16    36    37    1
    17    36    38    1
    18    36    39    1
    19     3     4   ar
    20     4     5   ar
    21     5    22    1
    22    22    23   ar
    23    23    24   ar
    24    24    25   ar
    25    25    27    1
    26    27    28   ar
    27    28    29   ar
    28    29    30   ar
    29    30    31   ar
    30    31    32   ar
    31    32    33   ar
    32    33    34   ar
    33    34    35   ar
    34    25    26   ar
    35    10    11   ar
    36    11     6   ar
    37     5     1   ar
    38    26    22   ar
    39    35    27   ar
    40    35    31   ar
    41    19    20    1
    42    19    21    1
    43    15    16    1
