@<TRIPOS>MOLECULE
*****
 26 28 0 0 0
SMALL
GASTEIGER

@<TRIPOS>ATOM
      1 C          -6.5815  -18.9223   22.1689 C.ar    1  UNL1        0.1534
      2 C          -7.0720  -17.5451   22.5047 C.ar    1  UNL1        0.0351
      3 C          -8.3790  -17.3679   23.2191 C.ar    1  UNL1        0.0722
      4 CL         -8.8695  -15.9907   23.5549 Cl      1  UNL1       -0.0809
      5 C          -9.1955  -18.5679   23.5977 C.ar    1  UNL1        0.0577
      6 C          -8.7050  -19.9451   23.2619 C.ar    1  UNL1        0.0462
      7 C          -7.3980  -20.1223   22.5475 C.ar    1  UNL1        0.1602
      8 F          -6.9075  -21.4995   22.2117 F       1  UNL1       -0.2027
      9 O          -5.9067  -18.6243   20.1800 O.2     1  UNL1       -0.1498
     10 S          -5.2745  -19.0995   21.4545 S.O2    1  UNL1        0.0772
     11 O          -4.6423  -19.5748   22.7290 O.2     1  UNL1       -0.1498
     12 N          -3.9676  -19.2767   20.7401 N.pl3   1  UNL1       -0.1936
     13 H          -3.7964  -20.0970   20.2232 H       1  UNL1        0.1758
     14 C          -2.9214  -18.2042   20.8131 C.ar    1  UNL1        0.1786
     15 N          -2.9538  -17.0004   21.7074 N.ar    1  UNL1       -0.2214
     16 C          -1.7116  -16.1994   21.4517 C.ar    1  UNL1        0.1079
     17 C          -0.9114  -16.9083   20.3994 C.ar    1  UNL1        0.0588
     18 S          -1.6591  -18.1474   20.0047 S.2     1  UNL1       -0.0497
     19 N         -10.5025  -18.3907   24.3121 N.pl3   1  UNL1       -0.3319
     20 H         -10.5172  -18.2718   25.2893 H       1  UNL1        0.1468
     21 C         -11.7871  -18.3946   23.5376 C.3     1  UNL1        0.0896
     22 C         -11.8438  -17.7682   22.1758 C.3     1  UNL1        0.0516
     23 C         -12.1337  -16.3265   21.8800 C.3     1  UNL1        0.0363
     24 C         -12.0896  -16.1407   20.3921 C.3     1  UNL1        0.1423
     25 O         -11.7724  -17.4676   19.7685 O.3     1  UNL1       -0.3537
     26 C         -11.6205  -18.4734   20.8709 C.3     1  UNL1        0.1439
@<TRIPOS>BOND
     1     9    10    2
     2    10    11    2
     3    10    12    1
     4    12    14    1
     5    14    15   ar
     6    15    16   ar
     7    16    17   ar
     8    17    18   ar
     9    10     1    1
    10     1     2   ar
    11     2     3   ar
    12     3     4    1
    13     3     5   ar
    14     5    19    1
    15    19    21    1
    16    21    22    1
    17    22    23    1
    18    23    24    1
    19    24    25    1
    20    25    26    1
    21     5     6   ar
    22     6     7   ar
    23     7     8    1
    24    18    14   ar
    25     7     1   ar
    26    26    22    1
    27    12    13    1
    28    19    20    1
@<TRIPOS>MOLECULE
*****
 26 28 0 0 0
SMALL
GASTEIGER

@<TRIPOS>ATOM
      1 C          -7.0524  -17.2679   22.8386 C.ar    1  UNL1        0.1534
      2 C          -6.9627  -18.5140   22.0085 C.ar    1  UNL1        0.0351
      3 C          -5.6513  -19.2284   21.8674 C.ar    1  UNL1        0.0722
      4 CL         -5.5616  -20.4745   21.0372 Cl      1  UNL1       -0.0809
      5 C          -4.4297  -18.6966   22.5564 C.ar    1  UNL1        0.0577
      6 C          -4.5194  -17.4506   23.3866 C.ar    1  UNL1        0.0462
      7 C          -5.8307  -16.7362   23.5277 C.ar    1  UNL1        0.1602
      8 F          -5.9205  -15.4901   24.3579 F       1  UNL1       -0.2027
      9 O          -8.1045  -15.8238   21.6952 O.2     1  UNL1       -0.1498
     10 S          -8.3638  -16.5535   22.9798 S.O2    1  UNL1        0.0772
     11 O          -8.6231  -17.2832   24.2644 O.2     1  UNL1       -0.1498
     12 N          -9.6752  -15.8391   23.1209 N.pl3   1  UNL1       -0.1936
     13 H          -9.7374  -15.0298   23.6780 H       1  UNL1        0.1758
     14 C         -10.8918  -16.3577   22.4130 C.ar    1  UNL1        0.1786
     15 N         -11.3731  -15.9298   21.0583 N.ar    1  UNL1       -0.2214
     16 C         -12.6194  -16.7029   20.7437 C.ar    1  UNL1        0.1079
     17 C         -12.9084  -17.6086   21.9039 C.ar    1  UNL1        0.0588
     18 S         -11.8406  -17.3952   22.9357 S.2     1  UNL1       -0.0497
     19 N          -3.1182  -19.4111   22.4153 N.pl3   1  UNL1       -0.3319
     20 H          -3.0643  -20.3793   22.5853 H       1  UNL1        0.1468
     21 C          -1.8890  -18.6503   22.0152 C.3     1  UNL1        0.0896
     22 C          -1.6478  -18.3204   20.5719 C.3     1  UNL1        0.0516
     23 C          -2.7030  -18.0372   19.5440 C.3     1  UNL1        0.0363
     24 C          -2.0165  -17.7575   18.2399 C.3     1  UNL1        0.1423
     25 O          -0.5370  -17.8678   18.4619 O.3     1  UNL1       -0.3537
     26 C          -0.3092  -18.2157   19.9031 C.3     1  UNL1        0.1439
@<TRIPOS>BOND
     1     9    10    2
     2    10    11    2
     3    10    12    1
     4    12    14    1
     5    14    15   ar
     6    15    16   ar
     7    16    17   ar
     8    17    18   ar
     9    10     1    1
    10     1     2   ar
    11     2     3   ar
    12     3     4    1
    13     3     5   ar
    14     5    19    1
    15    19    21    1
    16    21    22    1
    17    22    23    1
    18    23    24    1
    19    24    25    1
    20    25    26    1
    21     5     6   ar
    22     6     7   ar
    23     7     8    1
    24    18    14   ar
    25     7     1   ar
    26    26    22    1
    27    12    13    1
    28    19    20    1
@<TRIPOS>MOLECULE
*****
 26 28 0 0 0
SMALL
GASTEIGER

@<TRIPOS>ATOM
      1 C          -6.9602  -18.8353   21.7284 C.ar    1  UNL1        0.1534
      2 C          -8.1886  -19.5614   21.2661 C.ar    1  UNL1        0.0351
      3 C          -9.5282  -19.2119   21.8433 C.ar    1  UNL1        0.0722
      4 CL        -10.7566  -19.9380   21.3810 Cl      1  UNL1       -0.0809
      5 C          -9.6394  -18.1362   22.8828 C.ar    1  UNL1        0.0577
      6 C          -8.4110  -17.4101   23.3451 C.ar    1  UNL1        0.0462
      7 C          -7.0714  -17.7597   22.7679 C.ar    1  UNL1        0.1602
      8 F          -5.8429  -17.0335   23.2301 F       1  UNL1       -0.2027
      9 O          -5.2690  -19.9185   22.4113 O.2     1  UNL1       -0.1498
     10 S          -5.6205  -19.1848   21.1511 S.O2    1  UNL1        0.0772
     11 O          -5.9720  -18.4512   19.8909 O.2     1  UNL1       -0.1498
     12 N          -4.2808  -19.5344   20.5740 N.pl3   1  UNL1       -0.1936
     13 H          -4.1259  -20.4306   20.1970 H       1  UNL1        0.1758
     14 C          -3.1772  -18.5185   20.5711 C.ar    1  UNL1        0.1786
     15 N          -3.0156  -17.3894   21.5453 N.ar    1  UNL1       -0.2214
     16 C          -1.7799  -16.6265   21.1699 C.ar    1  UNL1        0.1079
     17 C          -1.1777  -17.2840   19.9636 C.ar    1  UNL1        0.0588
     18 S          -2.0413  -18.4534   19.5936 S.2     1  UNL1       -0.0497
     19 N         -10.9791  -17.7867   23.4600 N.pl3   1  UNL1       -0.3319
     20 H         -11.3620  -18.3351   24.1824 H       1  UNL1        0.1468
     21 C         -11.7352  -16.6017   22.9366 C.3     1  UNL1        0.0896
     22 C         -11.5444  -16.1578   21.5165 C.3     1  UNL1        0.0516
     23 C         -12.5306  -16.3288   20.3994 C.3     1  UNL1        0.0363
     24 C         -11.9296  -15.7417   19.1566 C.3     1  UNL1        0.1423
     25 O         -10.5720  -15.2079   19.5059 O.3     1  UNL1       -0.3537
     26 C         -10.3339  -15.4650   20.9644 C.3     1  UNL1        0.1439
@<TRIPOS>BOND
     1     9    10    2
     2    10    11    2
     3    10    12    1
     4    12    14    1
     5    14    15   ar
     6    15    16   ar
     7    16    17   ar
     8    17    18   ar
     9    10     1    1
    10     1     2   ar
    11     2     3   ar
    12     3     4    1
    13     3     5   ar
    14     5    19    1
    15    19    21    1
    16    21    22    1
    17    22    23    1
    18    23    24    1
    19    24    25    1
    20    25    26    1
    21     5     6   ar
    22     6     7   ar
    23     7     8    1
    24    18    14   ar
    25     7     1   ar
    26    26    22    1
    27    12    13    1
    28    19    20    1
@<TRIPOS>MOLECULE
*****
 26 28 0 0 0
SMALL
GASTEIGER

@<TRIPOS>ATOM
      1 C          -6.6974  -19.0267   20.9228 C.ar    1  UNL1        0.1534
      2 C          -7.5628  -19.7161   19.9101 C.ar    1  UNL1        0.0351
      3 C          -9.0372  -19.4429   19.8731 C.ar    1  UNL1        0.0722
      4 CL         -9.9026  -20.1324   18.8603 Cl      1  UNL1       -0.0809
      5 C          -9.6463  -18.4802   20.8490 C.ar    1  UNL1        0.0577
      6 C          -8.7809  -17.7908   21.8618 C.ar    1  UNL1        0.0462
      7 C          -7.3065  -18.0640   21.8987 C.ar    1  UNL1        0.1602
      8 F          -6.4411  -17.3745   22.9115 F       1  UNL1       -0.2027
      9 O          -5.0555  -18.5722   19.6589 O.2     1  UNL1       -0.1498
     10 S          -5.2229  -19.2999   20.9598 S.O2    1  UNL1        0.0772
     11 O          -5.3903  -20.0276   22.2607 O.2     1  UNL1       -0.1498
     12 N          -3.7485  -19.5731   20.9967 N.pl3   1  UNL1       -0.1936
     13 H          -3.4208  -20.5000   21.0480 H       1  UNL1        0.1758
     14 C          -2.7734  -18.4339   20.9555 C.ar    1  UNL1        0.1786
     15 N          -2.8685  -17.1629   21.7463 N.ar    1  UNL1       -0.2214
     16 C          -1.6859  -16.3093   21.3957 C.ar    1  UNL1        0.1079
     17 C          -0.8599  -17.0529   20.3883 C.ar    1  UNL1        0.0588
     18 S          -1.5320  -18.3660   20.1162 S.2     1  UNL1       -0.0497
     19 N         -11.1208  -18.2070   20.8120 N.pl3   1  UNL1       -0.3319
     20 H         -11.6850  -18.6414   20.1321 H       1  UNL1        0.1468
     21 C         -11.7356  -17.2721   21.8109 C.3     1  UNL1        0.0896
     22 C         -12.3222  -17.8121   23.0815 C.3     1  UNL1        0.0516
     23 C         -13.7650  -17.7424   23.4858 C.3     1  UNL1        0.0363
     24 C         -13.9036  -18.4039   24.8251 C.3     1  UNL1        0.1423
     25 O         -12.5463  -18.8823   25.2483 O.3     1  UNL1       -0.3537
     26 C         -11.5690  -18.5166   24.1708 C.3     1  UNL1        0.1439
@<TRIPOS>BOND
     1     9    10    2
     2    10    11    2
     3    10    12    1
     4    12    14    1
     5    14    15   ar
     6    15    16   ar
     7    16    17   ar
     8    17    18   ar
     9    10     1    1
    10     1     2   ar
    11     2     3   ar
    12     3     4    1
    13     3     5   ar
    14     5    19    1
    15    19    21    1
    16    21    22    1
    17    22    23    1
    18    23    24    1
    19    24    25    1
    20    25    26    1
    21     5     6   ar
    22     6     7   ar
    23     7     8    1
    24    18    14   ar
    25     7     1   ar
    26    26    22    1
    27    12    13    1
    28    19    20    1
@<TRIPOS>MOLECULE
*****
 26 28 0 0 0
SMALL
GASTEIGER

@<TRIPOS>ATOM
      1 C          -6.2877  -19.5830   20.4855 C.ar    1  UNL1        0.1534
      2 C          -7.4764  -19.5042   19.5741 C.ar    1  UNL1        0.0351
      3 C          -8.8629  -19.5760   20.1420 C.ar    1  UNL1        0.0722
      4 CL        -10.0517  -19.4972   19.2306 Cl      1  UNL1       -0.0809
      5 C          -9.0606  -19.7266   21.6213 C.ar    1  UNL1        0.0577
      6 C          -7.8718  -19.8054   22.5326 C.ar    1  UNL1        0.0462
      7 C          -6.4854  -19.7336   21.9647 C.ar    1  UNL1        0.1602
      8 F          -5.2965  -19.8124   22.8761 F       1  UNL1       -0.2027
      9 O          -5.1956  -18.1455   19.3716 O.2     1  UNL1       -0.1498
     10 S          -4.9012  -19.5112   19.9176 S.O2    1  UNL1        0.0772
     11 O          -4.6068  -20.8769   20.4635 O.2     1  UNL1       -0.1498
     12 N          -3.5147  -19.4393   19.3497 N.pl3   1  UNL1       -0.1936
     13 H          -3.2390  -20.0671   18.6432 H       1  UNL1        0.1758
     14 C          -2.5482  -18.4110   19.8583 C.ar    1  UNL1        0.1786
     15 N          -2.7738  -17.4861   21.0174 N.ar    1  UNL1       -0.2214
     16 C          -1.5515  -16.6306   21.1725 C.ar    1  UNL1        0.1079
     17 C          -0.5704  -17.0268   20.1092 C.ar    1  UNL1        0.0588
     18 S          -1.1865  -18.1273   19.2969 S.2     1  UNL1       -0.0497
     19 N         -10.4471  -19.7984   22.1892 N.pl3   1  UNL1       -0.3319
     20 H         -10.9624  -20.6349   22.1257 H       1  UNL1        0.1468
     21 C         -11.0486  -18.5957   22.8538 C.3     1  UNL1        0.0896
     22 C         -10.2360  -17.7897   23.8235 C.3     1  UNL1        0.0516
     23 C          -9.6825  -16.4166   23.5821 C.3     1  UNL1        0.0363
     24 C          -8.9386  -15.9936   24.8142 C.3     1  UNL1        0.1423
     25 O          -9.0324  -17.1054   25.8168 O.3     1  UNL1       -0.3537
     26 C          -9.8342  -18.2154   25.2045 C.3     1  UNL1        0.1439
@<TRIPOS>BOND
     1     9    10    2
     2    10    11    2
     3    10    12    1
     4    12    14    1
     5    14    15   ar
     6    15    16   ar
     7    16    17   ar
     8    17    18   ar
     9    10     1    1
    10     1     2   ar
    11     2     3   ar
    12     3     4    1
    13     3     5   ar
    14     5    19    1
    15    19    21    1
    16    21    22    1
    17    22    23    1
    18    23    24    1
    19    24    25    1
    20    25    26    1
    21     5     6   ar
    22     6     7   ar
    23     7     8    1
    24    18    14   ar
    25     7     1   ar
    26    26    22    1
    27    12    13    1
    28    19    20    1
@<TRIPOS>MOLECULE
*****
 26 28 0 0 0
SMALL
GASTEIGER

@<TRIPOS>ATOM
      1 C         -11.6127   -3.6656   18.2112 C.ar    1  UNL1        0.1534
      2 C         -10.6095   -4.7392   18.5127 C.ar    1  UNL1        0.0351
      3 C         -11.0684   -6.1446   18.7661 C.ar    1  UNL1        0.0722
      4 CL        -10.0652   -7.2183   19.0676 Cl      1  UNL1       -0.0809
      5 C         -12.5305   -6.4763   18.7181 C.ar    1  UNL1        0.0577
      6 C         -13.5337   -5.4027   18.4167 C.ar    1  UNL1        0.0462
      7 C         -13.0748   -3.9973   18.1632 C.ar    1  UNL1        0.1602
      8 F         -14.0780   -2.9236   17.8618 F       1  UNL1       -0.2027
      9 O         -10.5463   -2.6932   16.6566 O.2     1  UNL1       -0.1498
     10 S         -11.1538   -2.2601   17.9578 S.O2    1  UNL1        0.0772
     11 O         -11.7614   -1.8270   19.2590 O.2     1  UNL1       -0.1498
     12 N         -10.6950   -0.8547   17.7043 N.pl3   1  UNL1       -0.1936
     13 H          -9.7641   -0.5985   17.8971 H       1  UNL1        0.1758
     14 C         -11.6543    0.1603   17.1571 C.ar    1  UNL1        0.1786
     15 N         -11.5739    1.6452   17.3535 N.ar    1  UNL1       -0.2214
     16 C         -12.7324    2.2712   16.6352 C.ar    1  UNL1        0.1079
     17 C         -13.5288    1.1732   15.9947 C.ar    1  UNL1        0.0588
     18 S         -12.8625   -0.1315   16.3173 S.2     1  UNL1       -0.0497
     19 N         -12.9894   -7.8818   18.9716 N.pl3   1  UNL1       -0.3319
     20 H         -12.5888   -8.4062   19.7022 H       1  UNL1        0.1468
     21 C         -14.0586   -8.4882   18.1119 C.3     1  UNL1        0.0896
     22 C         -15.4091   -8.7859   18.6929 C.3     1  UNL1        0.0516
     23 C         -16.1726   -7.9111   19.6426 C.3     1  UNL1        0.0363
     24 C         -17.4686   -8.5952   19.9629 C.3     1  UNL1        0.1423
     25 O         -17.5060   -9.8927   19.2112 O.3     1  UNL1       -0.3537
     26 C         -16.2332  -10.0106   18.4263 C.3     1  UNL1        0.1439
@<TRIPOS>BOND
     1     9    10    2
     2    10    11    2
     3    10    12    1
     4    12    14    1
     5    14    15   ar
     6    15    16   ar
     7    16    17   ar
     8    17    18   ar
     9    10     1    1
    10     1     2   ar
    11     2     3   ar
    12     3     4    1
    13     3     5   ar
    14     5    19    1
    15    19    21    1
    16    21    22    1
    17    22    23    1
    18    23    24    1
    19    24    25    1
    20    25    26    1
    21     5     6   ar
    22     6     7   ar
    23     7     8    1
    24    18    14   ar
    25     7     1   ar
    26    26    22    1
    27    12    13    1
    28    19    20    1
@<TRIPOS>MOLECULE
*****
 26 28 0 0 0
SMALL
GASTEIGER

@<TRIPOS>ATOM
      1 C         -12.0009   -5.5491   17.9856 C.ar    1  UNL1        0.1534
      2 C         -10.8796   -5.1510   17.0722 C.ar    1  UNL1        0.0351
      3 C         -10.3533   -3.7467   17.0988 C.ar    1  UNL1        0.0722
      4 CL         -9.2320   -3.3486   16.1853 Cl      1  UNL1       -0.0809
      5 C         -10.9482   -2.7404   18.0387 C.ar    1  UNL1        0.0577
      6 C         -12.0694   -3.1384   18.9521 C.ar    1  UNL1        0.0462
      7 C         -12.5958   -4.5428   18.9255 C.ar    1  UNL1        0.1602
      8 F         -13.7171   -4.9409   19.8390 F       1  UNL1       -0.2027
      9 O         -11.8163   -7.2442   19.2475 O.2     1  UNL1       -0.1498
     10 S         -12.5273   -6.9535   17.9591 S.O2    1  UNL1        0.0772
     11 O         -13.2382   -6.6627   16.6707 O.2     1  UNL1       -0.1498
     12 N         -13.0536   -8.3578   17.9326 N.pl3   1  UNL1       -0.1936
     13 H         -12.4797   -9.0927   17.6166 H       1  UNL1        0.1758
     14 C         -14.4543   -8.6425   18.3877 C.ar    1  UNL1        0.1786
     15 N         -15.1781   -9.9489   18.2488 N.ar    1  UNL1       -0.2214
     16 C         -16.5483   -9.7846   18.8367 C.ar    1  UNL1        0.1079
     17 C         -16.6713   -8.3764   19.3390 C.ar    1  UNL1        0.0588
     18 S         -15.3771   -7.6706   19.0614 S.2     1  UNL1       -0.0497
     19 N         -10.4218   -1.3360   18.0652 N.pl3   1  UNL1       -0.3319
     20 H          -9.7421   -1.0775   18.7289 H       1  UNL1        0.1468
     21 C         -10.9309   -0.3255   17.0805 C.3     1  UNL1        0.0896
     22 C         -12.0929    0.5525   17.4398 C.3     1  UNL1        0.0516
     23 C         -13.2343    0.1801   18.3390 C.3     1  UNL1        0.0363
     24 C         -14.1644    1.3544   18.4179 C.3     1  UNL1        0.1423
     25 O         -13.5977    2.4524   17.5674 O.3     1  UNL1       -0.3537
     26 C         -12.3175    1.9568   16.9629 C.3     1  UNL1        0.1439
@<TRIPOS>BOND
     1     9    10    2
     2    10    11    2
     3    10    12    1
     4    12    14    1
     5    14    15   ar
     6    15    16   ar
     7    16    17   ar
     8    17    18   ar
     9    10     1    1
    10     1     2   ar
    11     2     3   ar
    12     3     4    1
    13     3     5   ar
    14     5    19    1
    15    19    21    1
    16    21    22    1
    17    22    23    1
    18    23    24    1
    19    24    25    1
    20    25    26    1
    21     5     6   ar
    22     6     7   ar
    23     7     8    1
    24    18    14   ar
    25     7     1   ar
    26    26    22    1
    27    12    13    1
    28    19    20    1
@<TRIPOS>MOLECULE
*****
 26 28 0 0 0
SMALL
GASTEIGER

@<TRIPOS>ATOM
      1 C           3.2281    0.5660   32.1906 C.ar    1  UNL1        0.1534
      2 C           4.4499   -0.0611   32.7939 C.ar    1  UNL1        0.0351
      3 C           4.8626    0.2938   34.1916 C.ar    1  UNL1        0.0722
      4 CL          6.0844   -0.3333   34.7950 Cl      1  UNL1       -0.0809
      5 C           4.0535    1.2758   34.9861 C.ar    1  UNL1        0.0577
      6 C           2.8317    1.9028   34.3828 C.ar    1  UNL1        0.0462
      7 C           2.4190    1.5480   32.9851 C.ar    1  UNL1        0.1602
      8 F           1.1972    2.1751   32.3818 F       1  UNL1       -0.2027
      9 O           3.1703    1.5953   30.3367 O.2     1  UNL1       -0.1498
     10 S           2.8153    0.2112   30.7928 S.O2    1  UNL1        0.0772
     11 O           2.4603   -1.1729   31.2490 O.2     1  UNL1       -0.1498
     12 N           2.4026   -0.1436   29.3951 N.pl3   1  UNL1       -0.1936
     13 H           3.0323   -0.6102   28.7993 H       1  UNL1        0.1758
     14 C           1.0303    0.2125   28.9051 C.ar    1  UNL1        0.1786
     15 N          -0.2662   -0.2548   29.4972 N.ar    1  UNL1       -0.2214
     16 C          -1.3842    0.3423   28.6950 C.ar    1  UNL1        0.1079
     17 C          -0.7786    1.1787   27.6069 C.ar    1  UNL1        0.0588
     18 S           0.7137    1.0984   27.7368 S.2     1  UNL1       -0.0497
     19 N           4.4663    1.6306   36.3839 N.pl3   1  UNL1       -0.3319
     20 H           5.1319    2.3400   36.5355 H       1  UNL1        0.1468
     21 C           3.8649    0.9047   37.5506 C.3     1  UNL1        0.0896
     22 C           2.5744    1.3830   38.1473 C.3     1  UNL1        0.0516
     23 C           1.6926    0.6060   39.0793 C.3     1  UNL1        0.0363
     24 C           0.5123    1.4650   39.4247 C.3     1  UNL1        0.1423
     25 O           0.6648    2.7729   38.7061 O.3     1  UNL1       -0.3537
     26 C           1.9392    2.7221   37.9166 C.3     1  UNL1        0.1439
@<TRIPOS>BOND
     1     9    10    2
     2    10    11    2
     3    10    12    1
     4    12    14    1
     5    14    15   ar
     6    15    16   ar
     7    16    17   ar
     8    17    18   ar
     9    10     1    1
    10     1     2   ar
    11     2     3   ar
    12     3     4    1
    13     3     5   ar
    14     5    19    1
    15    19    21    1
    16    21    22    1
    17    22    23    1
    18    23    24    1
    19    24    25    1
    20    25    26    1
    21     5     6   ar
    22     6     7   ar
    23     7     8    1
    24    18    14   ar
    25     7     1   ar
    26    26    22    1
    27    12    13    1
    28    19    20    1
@<TRIPOS>MOLECULE
*****
 26 28 0 0 0
SMALL
GASTEIGER

@<TRIPOS>ATOM
      1 C           1.6933    1.1755   20.1915 C.ar    1  UNL1        0.1534
      2 C           2.8643    0.7616   21.0327 C.ar    1  UNL1        0.0351
      3 C           4.0808    0.1694   20.3852 C.ar    1  UNL1        0.0722
      4 CL          5.2518   -0.2446   21.2263 Cl      1  UNL1       -0.0809
      5 C           4.1264   -0.0090   18.8965 C.ar    1  UNL1        0.0577
      6 C           2.9554    0.4048   18.0554 C.ar    1  UNL1        0.0462
      7 C           1.7389    0.9971   18.7028 C.ar    1  UNL1        0.1602
      8 F           0.5679    1.4110   17.8617 F       1  UNL1       -0.2027
      9 O          -0.2790    0.4982   20.5801 O.2     1  UNL1       -0.1498
     10 S           0.4767    1.7678   20.8390 S.O2    1  UNL1        0.0772
     11 O           1.2325    3.0373   21.0978 O.2     1  UNL1       -0.1498
     12 N          -0.7398    2.3600   21.4864 N.pl3   1  UNL1       -0.1936
     13 H          -0.8284    2.3528   22.4669 H       1  UNL1        0.1758
     14 C          -1.8214    2.9631   20.6400 C.ar    1  UNL1        0.1786
     15 N          -3.2971    2.8564   20.8870 N.ar    1  UNL1       -0.2214
     16 C          -4.0049    3.6062   19.7976 C.ar    1  UNL1        0.1079
     17 C          -2.9667    4.1764   18.8773 C.ar    1  UNL1        0.0588
     18 S          -1.6171    3.7789   19.3979 S.2     1  UNL1       -0.0497
     19 N           5.3430   -0.6013   18.2490 N.pl3   1  UNL1       -0.3319
     20 H           6.1339   -0.0397   18.0810 H       1  UNL1        0.1468
     21 C           5.3544   -2.0493   17.8576 C.3     1  UNL1        0.0896
     22 C           4.9615   -3.0989   18.8546 C.3     1  UNL1        0.0516
     23 C           3.6317   -3.7888   18.9307 C.3     1  UNL1        0.0363
     24 C           3.6778   -4.7592   20.0736 C.3     1  UNL1        0.1423
     25 O           5.0360   -4.6690   20.7038 O.3     1  UNL1       -0.3537
     26 C           5.8294   -3.6429   19.9504 C.3     1  UNL1        0.1439
@<TRIPOS>BOND
     1     9    10    2
     2    10    11    2
     3    10    12    1
     4    12    14    1
     5    14    15   ar
     6    15    16   ar
     7    16    17   ar
     8    17    18   ar
     9    10     1    1
    10     1     2   ar
    11     2     3   ar
    12     3     4    1
    13     3     5   ar
    14     5    19    1
    15    19    21    1
    16    21    22    1
    17    22    23    1
    18    23    24    1
    19    24    25    1
    20    25    26    1
    21     5     6   ar
    22     6     7   ar
    23     7     8    1
    24    18    14   ar
    25     7     1   ar
    26    26    22    1
    27    12    13    1
    28    19    20    1
