@<TRIPOS>MOLECULE
*****
 33 37 0 0 0
SMALL
GASTEIGER

@<TRIPOS>ATOM
      1 C           3.0125   -1.2092   20.5358 C.2     1  UNL1       -0.0138
      2 C           3.2857   -2.3612   19.6148 C.2     1  UNL1        0.0039
      3 C           4.1894   -3.4748   20.0543 C.2     1  UNL1        0.1174
      4 C           4.8198   -3.4365   21.4149 C.2     1  UNL1        0.2360
      5 N           5.7466   -4.3830   22.1187 N.2     1  UNL1       -0.0297
      6 C           6.0462   -3.8159   23.4746 C.2     1  UNL1        0.3923
      7 N           5.3045   -2.5190   23.6089 N.2     1  UNL1       -0.0336
      8 C           4.5466   -2.2846   22.3359 C.2     1  UNL1        0.2178
      9 C           3.6429   -1.1709   21.8964 C.3     1  UNL1        0.1040
     10 C           6.9319   -4.4367   24.5139 C.2     1  UNL1        0.1883
     11 N           8.3206   -4.9583   24.2914 N.2     1  UNL1       -0.0797
     12 O           8.8314   -5.4889   25.5981 O.2     1  UNL1       -0.3845
     13 C           7.7583   -5.2953   26.6283 C.3     1  UNL1        0.1669
     14 C           6.5987   -5.0378   27.5441 C.3     1  UNL1        0.0431
     15 C           6.6846   -5.4262   28.9904 C.3     1  UNL1        0.0037
     16 C           7.9301   -6.0721   29.5208 C.3     1  UNL1        0.0002
     17 C           9.0898   -6.3296   28.6050 C.3     1  UNL1        0.0037
     18 C           9.0039   -5.9412   27.1587 C.3     1  UNL1        0.0431
     19 C           6.5844   -4.6450   25.9582 C.3     1  UNL1        0.0999
     20 C           2.5186    0.8010   18.9657 C.ar    1  UNL1        0.0711
     21 C           1.6149    1.9146   18.5262 C.ar    1  UNL1        0.0038
     22 C           0.3015    2.1317   19.2173 C.ar    1  UNL1       -0.0001
     23 C          -0.1083    1.2352   20.3479 C.ar    1  UNL1       -0.0000
     24 C           0.7954    0.1215   20.7874 C.ar    1  UNL1       -0.0004
     25 C           2.1088   -0.0955   20.0963 C.ar    1  UNL1        0.0004
     26 F           5.1457    0.3668   17.5835 F       1  UNL1       -0.1659
     27 C           3.8322    0.5839   18.2745 C.3     1  UNL1        0.4186
     28 F           3.1359   -0.1896   17.1944 F       1  UNL1       -0.1659
     29 F           4.5284    1.3574   19.3548 F       1  UNL1       -0.1659
     30 C           4.4626   -4.6268   19.1333 C.3     1  UNL1        0.4221
     31 F           4.7358   -5.7788   18.2123 F       1  UNL1       -0.1657
     32 F           3.5217   -5.4843   19.9268 F       1  UNL1       -0.1657
     33 F           5.4034   -3.7693   18.3399 F       1  UNL1       -0.1657
@<TRIPOS>BOND
     1    26    27    1
     2    27    28    1
     3    27    29    1
     4    27    20    1
     5    20    21   ar
     6    21    22   ar
     7    22    23   ar
     8    23    24   ar
     9    24    25   ar
    10    25     1    1
    11     1     2    2
    12     2     3    1
    13     3    30    1
    14    30    31    1
    15    30    32    1
    16    30    33    1
    17     3     4    2
    18     4     5    1
    19     5     6    2
    20     6    10    1
    21    10    11    2
    22    11    12    1
    23    12    13    1
    24    13    14    1
    25    14    15    1
    26    15    16    1
    27    16    17    1
    28    17    18    1
    29    13    19    1
    30     6     7    1
    31     7     8    2
    32     8     9    1
    33    25    20   ar
    34     9     1    1
    35     8     4    1
    36    19    10    1
    37    18    13    1
@<TRIPOS>MOLECULE
*****
 33 37 0 0 0
SMALL
GASTEIGER

@<TRIPOS>ATOM
      1 C           4.1259   -0.2586   20.0089 C.2     1  UNL1       -0.0138
      2 C           4.0813   -1.5144   19.1899 C.2     1  UNL1        0.0039
      3 C           4.5784   -2.8057   19.7692 C.2     1  UNL1        0.1174
      4 C           5.1201   -2.8411   21.1675 C.2     1  UNL1        0.2360
      5 N           5.6767   -3.9576   22.0003 N.2     1  UNL1       -0.0297
      6 C           6.0652   -3.3918   23.3340 C.2     1  UNL1        0.3923
      7 N           5.7488   -1.9256   23.3255 N.2     1  UNL1       -0.0336
      8 C           5.1646   -1.5852   21.9865 C.2     1  UNL1        0.2178
      9 C           4.6675   -0.2940   21.4072 C.3     1  UNL1        0.1040
     10 C           6.6650   -4.1577   24.4758 C.2     1  UNL1        0.1883
     11 N           6.5457   -3.8099   25.9301 N.2     1  UNL1       -0.0797
     12 O           7.2963   -4.8431   26.7168 O.2     1  UNL1       -0.3845
     13 C           7.8795   -5.8296   25.7488 C.3     1  UNL1        0.1669
     14 C           8.3968   -6.7304   24.6668 C.3     1  UNL1        0.0431
     15 C           9.2247   -7.9298   25.0216 C.3     1  UNL1        0.0037
     16 C           9.5354   -8.2283   26.4584 C.3     1  UNL1        0.0002
     17 C           9.0181   -7.3274   27.5404 C.3     1  UNL1        0.0037
     18 C           8.1902   -6.1281   27.1856 C.3     1  UNL1        0.0431
     19 C           7.4893   -5.4059   24.3638 C.3     1  UNL1        0.0999
     20 C           2.1652    1.3587   19.4700 C.ar    1  UNL1        0.0711
     21 C           1.6681    2.6499   18.8907 C.ar    1  UNL1        0.0038
     22 C           2.6346    3.6151   18.2710 C.ar    1  UNL1       -0.0001
     23 C           4.0982    3.2891   18.2305 C.ar    1  UNL1       -0.0000
     24 C           4.5953    1.9979   18.8098 C.ar    1  UNL1       -0.0004
     25 C           3.6288    1.0327   19.4296 C.ar    1  UNL1        0.0004
     26 F           0.2321   -0.5719   20.7097 F       1  UNL1       -0.1659
     27 C           1.1986    0.3933   20.0898 C.3     1  UNL1        0.4186
     28 F           0.9304   -0.2044   18.7405 F       1  UNL1       -0.1659
     29 F           1.4669    0.9911   21.4392 F       1  UNL1       -0.1659
     30 C           4.5338   -4.0615   18.9502 C.3     1  UNL1        0.4221
     31 F           4.4892   -5.3174   18.1311 F       1  UNL1       -0.1657
     32 F           3.4715   -4.6133   19.8541 F       1  UNL1       -0.1657
     33 F           5.5960   -3.5097   18.0462 F       1  UNL1       -0.1657
@<TRIPOS>BOND
     1    26    27    1
     2    27    28    1
     3    27    29    1
     4    27    20    1
     5    20    21   ar
     6    21    22   ar
     7    22    23   ar
     8    23    24   ar
     9    24    25   ar
    10    25     1    1
    11     1     2    2
    12     2     3    1
    13     3    30    1
    14    30    31    1
    15    30    32    1
    16    30    33    1
    17     3     4    2
    18     4     5    1
    19     5     6    2
    20     6    10    1
    21    10    11    2
    22    11    12    1
    23    12    13    1
    24    13    14    1
    25    14    15    1
    26    15    16    1
    27    16    17    1
    28    17    18    1
    29    13    19    1
    30     6     7    1
    31     7     8    2
    32     8     9    1
    33    25    20   ar
    34     9     1    1
    35     8     4    1
    36    19    10    1
    37    18    13    1
@<TRIPOS>MOLECULE
*****
 33 37 0 0 0
SMALL
GASTEIGER

@<TRIPOS>ATOM
      1 C           5.9569   -0.6329   18.8052 C.2     1  UNL1       -0.0138
      2 C           4.8510   -1.5980   18.4963 C.2     1  UNL1        0.0039
      3 C           4.6734   -2.8287   19.3353 C.2     1  UNL1        0.1174
      4 C           5.6017   -3.0943   20.4832 C.2     1  UNL1        0.2360
      5 N           5.6722   -4.2141   21.4788 N.2     1  UNL1       -0.0297
      6 C           6.8216   -3.9410   22.4029 C.2     1  UNL1        0.3923
      7 N           7.4616   -2.6524   21.9786 N.2     1  UNL1       -0.0336
      8 C           6.7076   -2.1291   20.7922 C.2     1  UNL1        0.2178
      9 C           6.8853   -0.8985   19.9531 C.3     1  UNL1        0.1040
     10 C           7.2551   -4.8048   23.5501 C.2     1  UNL1        0.1883
     11 N           8.0600   -6.0665   23.4488 N.2     1  UNL1       -0.0797
     12 O           8.2621   -6.6001   24.8360 O.2     1  UNL1       -0.3845
     13 C           7.5820   -5.6681   25.7948 C.3     1  UNL1        0.1669
     14 C           6.8604   -4.6510   26.6283 C.3     1  UNL1        0.0431
     15 C           6.8114   -4.8021   28.1198 C.3     1  UNL1        0.0037
     16 C           7.4839   -5.9703   28.7779 C.3     1  UNL1        0.0002
     17 C           8.2055   -6.9874   27.9444 C.3     1  UNL1        0.0037
     18 C           8.2546   -6.8363   26.4528 C.3     1  UNL1        0.0431
     19 C           6.9597   -4.5586   25.0000 C.3     1  UNL1        0.0999
     20 C           5.3423    1.8343   18.2714 C.ar    1  UNL1        0.0711
     21 C           5.5199    3.0650   17.4324 C.ar    1  UNL1        0.0038
     22 C           6.4898    3.0590   16.2883 C.ar    1  UNL1       -0.0001
     23 C           7.2821    1.8225   15.9831 C.ar    1  UNL1       -0.0000
     24 C           7.1045    0.5918   16.8221 C.ar    1  UNL1       -0.0004
     25 C           6.1346    0.5978   17.9662 C.ar    1  UNL1        0.0004
     26 F           3.4023    1.8462   20.5599 F       1  UNL1       -0.1659
     27 C           4.3722    1.8402   19.4156 C.3     1  UNL1        0.4186
     28 F           3.2790    1.3932   18.4911 F       1  UNL1       -0.1659
     29 F           5.4656    2.2873   20.3401 F       1  UNL1       -0.1659
     30 C           3.5675   -3.7938   19.0264 C.3     1  UNL1        0.4221
     31 F           2.4615   -4.7589   18.7175 F       1  UNL1       -0.1657
     32 F           2.5696   -2.8362   19.6070 F       1  UNL1       -0.1657
     33 F           4.5654   -4.7515   18.4459 F       1  UNL1       -0.1657
@<TRIPOS>BOND
     1    26    27    1
     2    27    28    1
     3    27    29    1
     4    27    20    1
     5    20    21   ar
     6    21    22   ar
     7    22    23   ar
     8    23    24   ar
     9    24    25   ar
    10    25     1    1
    11     1     2    2
    12     2     3    1
    13     3    30    1
    14    30    31    1
    15    30    32    1
    16    30    33    1
    17     3     4    2
    18     4     5    1
    19     5     6    2
    20     6    10    1
    21    10    11    2
    22    11    12    1
    23    12    13    1
    24    13    14    1
    25    14    15    1
    26    15    16    1
    27    16    17    1
    28    17    18    1
    29    13    19    1
    30     6     7    1
    31     7     8    2
    32     8     9    1
    33    25    20   ar
    34     9     1    1
    35     8     4    1
    36    19    10    1
    37    18    13    1
@<TRIPOS>MOLECULE
*****
 33 37 0 0 0
SMALL
GASTEIGER

@<TRIPOS>ATOM
      1 C         -11.8930   -4.0369   18.6371 C.2     1  UNL1       -0.0138
      2 C         -11.5242   -2.8764   17.7612 C.2     1  UNL1        0.0039
      3 C         -12.3656   -1.6346   17.7680 C.2     1  UNL1        0.1174
      4 C         -13.5757   -1.5533   18.6506 C.2     1  UNL1        0.2360
      5 N         -14.5882   -0.4682   18.8683 N.2     1  UNL1       -0.0297
      6 C         -15.5827   -0.9582   19.8787 C.2     1  UNL1        0.3923
      7 N         -15.1848   -2.3460   20.2855 N.2     1  UNL1       -0.0336
      8 C         -13.9444   -2.7138   19.5265 C.2     1  UNL1        0.2178
      9 C         -13.1031   -3.9556   19.5197 C.3     1  UNL1        0.1040
     10 C         -16.7671   -0.1943   20.3922 C.2     1  UNL1        0.1883
     11 N         -18.1696   -0.7140   20.5058 N.2     1  UNL1       -0.0797
     12 O         -19.0263    0.3824   21.0661 O.2     1  UNL1       -0.3845
     13 C         -18.1533    1.5799   21.2987 C.3     1  UNL1        0.1669
     14 C         -17.1612    2.6908   21.4764 C.3     1  UNL1        0.0431
     15 C         -17.6063    4.0125   22.0285 C.3     1  UNL1        0.0037
     16 C         -19.0434    4.2233   22.4030 C.3     1  UNL1        0.0002
     17 C         -20.0354    3.1124   22.2254 C.3     1  UNL1        0.0037
     18 C         -19.5904    1.7907   21.6732 C.3     1  UNL1        0.0431
     19 C         -16.7570    1.2234   20.8822 C.3     1  UNL1        0.0999
     20 C         -11.5261   -6.5022   17.9037 C.ar    1  UNL1        0.0711
     21 C         -10.6847   -7.7440   17.8970 C.ar    1  UNL1        0.0038
     22 C          -9.3689   -7.7622   18.6168 C.ar    1  UNL1       -0.0001
     23 C          -8.8944   -6.5388   19.3434 C.ar    1  UNL1       -0.0000
     24 C          -9.7358   -5.2970   19.3501 C.ar    1  UNL1       -0.0004
     25 C         -11.0516   -5.2787   18.6303 C.ar    1  UNL1        0.0004
     26 F         -14.1579   -6.4656   16.4641 F       1  UNL1       -0.1659
     27 C         -12.8420   -6.4839   17.1838 C.3     1  UNL1        0.4186
     28 F         -12.1761   -5.8821   15.9821 F       1  UNL1       -0.1659
     29 F         -13.5078   -7.0857   18.3857 F       1  UNL1       -0.1659
     30 C         -11.9969   -0.4740   16.8921 C.3     1  UNL1        0.4221
     31 F         -11.6282    0.6865   16.0163 F       1  UNL1       -0.1657
     32 F         -13.2866   -0.6301   16.1423 F       1  UNL1       -0.1657
     33 F         -10.7072   -0.3179   17.6419 F       1  UNL1       -0.1657
@<TRIPOS>BOND
     1    26    27    1
     2    27    28    1
     3    27    29    1
     4    27    20    1
     5    20    21   ar
     6    21    22   ar
     7    22    23   ar
     8    23    24   ar
     9    24    25   ar
    10    25     1    1
    11     1     2    2
    12     2     3    1
    13     3    30    1
    14    30    31    1
    15    30    32    1
    16    30    33    1
    17     3     4    2
    18     4     5    1
    19     5     6    2
    20     6    10    1
    21    10    11    2
    22    11    12    1
    23    12    13    1
    24    13    14    1
    25    14    15    1
    26    15    16    1
    27    16    17    1
    28    17    18    1
    29    13    19    1
    30     6     7    1
    31     7     8    2
    32     8     9    1
    33    25    20   ar
    34     9     1    1
    35     8     4    1
    36    19    10    1
    37    18    13    1
@<TRIPOS>MOLECULE
*****
 33 37 0 0 0
SMALL
GASTEIGER

@<TRIPOS>ATOM
      1 C           3.3071    1.7605   19.0093 C.2     1  UNL1       -0.0138
      2 C           3.3396    1.0906   20.3510 C.2     1  UNL1        0.0039
      3 C           2.1278    1.1222   21.2345 C.2     1  UNL1        0.1174
      4 C           0.8835    1.8236   20.7764 C.2     1  UNL1        0.2360
      5 N          -0.4550    2.0190   21.4245 N.2     1  UNL1       -0.0297
      6 C          -1.3147    2.8097   20.4833 C.2     1  UNL1        0.3923
      7 N          -0.5075    3.1029   19.2535 N.2     1  UNL1       -0.0336
      8 C           0.8511    2.4934   19.4346 C.2     1  UNL1        0.2178
      9 C           2.0629    2.4619   18.5511 C.3     1  UNL1        0.1040
     10 C          -2.7326    3.2328   20.7289 C.2     1  UNL1        0.1883
     11 N          -3.7624    3.5186   19.6762 N.2     1  UNL1       -0.0797
     12 O          -5.0360    3.9069   20.3669 O.2     1  UNL1       -0.3845
     13 C          -4.7934    3.8612   21.8465 C.3     1  UNL1        0.1669
     14 C          -4.4040    3.7714   23.2923 C.3     1  UNL1        0.0431
     15 C          -5.4086    4.0869   24.3606 C.3     1  UNL1        0.0037
     16 C          -6.8026    4.4921   23.9831 C.3     1  UNL1        0.0002
     17 C          -7.1921    4.5818   22.5373 C.3     1  UNL1        0.0037
     18 C          -6.1875    4.2664   21.4691 C.3     1  UNL1        0.0431
     19 C          -3.3699    3.4446   22.0702 C.3     1  UNL1        0.0999
     20 C           5.0024    0.4257   17.5621 C.ar    1  UNL1        0.0711
     21 C           6.2142    0.3941   16.6786 C.ar    1  UNL1        0.0038
     22 C           6.9424    1.6658   16.3588 C.ar    1  UNL1       -0.0001
     23 C           6.4589    2.9691   16.9224 C.ar    1  UNL1       -0.0000
     24 C           5.2471    3.0006   17.8059 C.ar    1  UNL1       -0.0004
     25 C           4.5189    1.7289   18.1258 C.ar    1  UNL1        0.0004
     26 F           3.5459   -2.1179   18.2019 F       1  UNL1       -0.1659
     27 C           4.2741   -0.8461   17.8820 C.3     1  UNL1        0.4186
     28 F           3.3129   -0.5772   16.7624 F       1  UNL1       -0.1659
     29 F           5.2355   -1.1149   19.0016 F       1  UNL1       -0.1659
     30 C           2.1602    0.4523   22.5763 C.3     1  UNL1        0.4221
     31 F           2.1926   -0.2175   23.9180 F       1  UNL1       -0.1657
     32 F           2.2497   -0.8864   21.9057 F       1  UNL1       -0.1657
     33 F           2.0707    1.7911   23.2468 F       1  UNL1       -0.1657
@<TRIPOS>BOND
     1    26    27    1
     2    27    28    1
     3    27    29    1
     4    27    20    1
     5    20    21   ar
     6    21    22   ar
     7    22    23   ar
     8    23    24   ar
     9    24    25   ar
    10    25     1    1
    11     1     2    2
    12     2     3    1
    13     3    30    1
    14    30    31    1
    15    30    32    1
    16    30    33    1
    17     3     4    2
    18     4     5    1
    19     5     6    2
    20     6    10    1
    21    10    11    2
    22    11    12    1
    23    12    13    1
    24    13    14    1
    25    14    15    1
    26    15    16    1
    27    16    17    1
    28    17    18    1
    29    13    19    1
    30     6     7    1
    31     7     8    2
    32     8     9    1
    33    25    20   ar
    34     9     1    1
    35     8     4    1
    36    19    10    1
    37    18    13    1
@<TRIPOS>MOLECULE
*****
 33 37 0 0 0
SMALL
GASTEIGER

@<TRIPOS>ATOM
      1 C           0.5175    2.2915   27.1651 C.2     1  UNL1       -0.0138
      2 C          -0.4966    3.0028   26.3191 C.2     1  UNL1        0.0039
      3 C          -0.4989    2.8116   24.8313 C.2     1  UNL1        0.1174
      4 C           0.5129    1.9092   24.1895 C.2     1  UNL1        0.2360
      5 N           0.7538    1.5284   22.7587 N.2     1  UNL1       -0.0297
      6 C           1.9168    0.5819   22.7206 C.2     1  UNL1        0.3923
      7 N           2.3946    0.3776   24.1276 N.2     1  UNL1       -0.0336
      8 C           1.5269    1.1979   25.0355 C.2     1  UNL1        0.2178
      9 C           1.5292    1.3891   26.5233 C.3     1  UNL1        0.1040
     10 C           2.4996   -0.0495   21.4911 C.2     1  UNL1        0.1883
     11 N           2.4672    0.5241   20.1054 N.2     1  UNL1       -0.0797
     12 O           3.1647   -0.4373   19.1894 O.2     1  UNL1       -0.3845
     13 C           3.6283   -1.6051   20.0088 C.3     1  UNL1        0.1669
     14 C           4.0283   -2.7005   20.9523 C.3     1  UNL1        0.0431
     15 C           4.7723   -3.8976   20.4393 C.3     1  UNL1        0.0037
     16 C           5.1162   -3.9995   18.9828 C.3     1  UNL1        0.0002
     17 C           4.7162   -2.9042   18.0393 C.3     1  UNL1        0.0037
     18 C           3.9722   -1.7070   18.5523 C.3     1  UNL1        0.0431
     19 C           3.2172   -1.3655   21.4314 C.3     1  UNL1        0.0999
     20 C          -0.0710    1.4315   29.5450 C.ar    1  UNL1        0.0711
     21 C          -0.0687    1.6227   31.0328 C.ar    1  UNL1        0.0038
     22 C           0.5244    2.8651   31.6283 C.ar    1  UNL1       -0.0001
     23 C           1.1151    3.9163   30.7361 C.ar    1  UNL1       -0.0000
     24 C           1.1128    3.7251   29.2484 C.ar    1  UNL1       -0.0004
     25 C           0.5198    2.4827   28.6528 C.ar    1  UNL1        0.0004
     26 F          -1.2570   -1.0534   28.3538 F       1  UNL1       -0.1659
     27 C          -0.6640    0.1890   28.9494 C.3     1  UNL1        0.4186
     28 F          -1.9630    0.9093   28.7404 F       1  UNL1       -0.1659
     29 F           0.6350   -0.5312   29.1584 F       1  UNL1       -0.1659
     30 C          -1.5130    3.5229   23.9853 C.3     1  UNL1        0.4221
     31 F          -2.5270    4.2341   23.1393 F       1  UNL1       -0.1657
     32 F          -2.6157    2.7948   24.6950 F       1  UNL1       -0.1657
     33 F          -0.4102    4.2510   23.2756 F       1  UNL1       -0.1657
@<TRIPOS>BOND
     1    26    27    1
     2    27    28    1
     3    27    29    1
     4    27    20    1
     5    20    21   ar
     6    21    22   ar
     7    22    23   ar
     8    23    24   ar
     9    24    25   ar
    10    25     1    1
    11     1     2    2
    12     2     3    1
    13     3    30    1
    14    30    31    1
    15    30    32    1
    16    30    33    1
    17     3     4    2
    18     4     5    1
    19     5     6    2
    20     6    10    1
    21    10    11    2
    22    11    12    1
    23    12    13    1
    24    13    14    1
    25    14    15    1
    26    15    16    1
    27    16    17    1
    28    17    18    1
    29    13    19    1
    30     6     7    1
    31     7     8    2
    32     8     9    1
    33    25    20   ar
    34     9     1    1
    35     8     4    1
    36    19    10    1
    37    18    13    1
@<TRIPOS>MOLECULE
*****
 33 37 0 0 0
SMALL
GASTEIGER

@<TRIPOS>ATOM
      1 C           2.6856   -0.8995   20.5642 C.2     1  UNL1       -0.0138
      2 C           3.1102   -0.3896   21.9094 C.2     1  UNL1        0.0039
      3 C           2.3138    0.6838   22.5902 C.2     1  UNL1        0.1174
      4 C           1.0927    1.2473   21.9258 C.2     1  UNL1        0.2360
      5 N           0.1162    2.3038   22.3505 N.2     1  UNL1       -0.0297
      6 C          -0.9119    2.4467   21.2677 C.2     1  UNL1        0.3923
      7 N          -0.5709    1.4787   20.1738 N.2     1  UNL1       -0.0336
      8 C           0.6681    0.7374   20.5806 C.2     1  UNL1        0.2178
      9 C           1.4645   -0.3360   19.8998 C.3     1  UNL1        0.1040
     10 C          -2.0767    3.3918   21.2771 C.2     1  UNL1        0.1883
     11 N          -2.1737    4.6638   22.0663 N.2     1  UNL1       -0.0797
     12 O          -3.5060    5.2889   21.7760 O.2     1  UNL1       -0.3845
     13 C          -4.2324    4.4034   20.8073 C.3     1  UNL1        0.1669
     14 C          -4.8330    3.4239   19.8430 C.3     1  UNL1        0.0431
     15 C          -6.2022    3.6680   19.2813 C.3     1  UNL1        0.0037
     16 C          -6.9709    4.8916   19.6839 C.3     1  UNL1        0.0002
     17 C          -6.3703    5.8710   20.6482 C.3     1  UNL1        0.0037
     18 C          -5.0010    5.6269   21.2099 C.3     1  UNL1        0.0431
     19 C          -3.3491    3.2309   20.4990 C.3     1  UNL1        0.0999
     20 C           4.3936   -1.6226   18.7448 C.ar    1  UNL1        0.0711
     21 C           5.1900   -2.6960   18.0640 C.ar    1  UNL1        0.0038
     22 C           5.0748   -4.1198   18.5218 C.ar    1  UNL1       -0.0001
     23 C           4.1632   -4.4701   19.6603 C.ar    1  UNL1       -0.0000
     24 C           3.3668   -3.3967   20.3411 C.ar    1  UNL1       -0.0004
     25 C           3.4820   -1.9730   19.8834 C.ar    1  UNL1        0.0004
     26 F           4.6240    1.2251   17.8293 F       1  UNL1       -0.1659
     27 C           4.5087   -0.1987   18.2871 C.3     1  UNL1        0.4186
     28 F           3.4621   -0.4500   17.2424 F       1  UNL1       -0.1659
     29 F           5.5554    0.0524   19.3318 F       1  UNL1       -0.1659
     30 C           2.7384    1.1937   23.9354 C.3     1  UNL1        0.4221
     31 F           3.1630    1.7036   25.2807 F       1  UNL1       -0.1657
     32 F           2.0400    0.0405   24.5930 F       1  UNL1       -0.1657
     33 F           3.4368    2.3469   23.2779 F       1  UNL1       -0.1657
@<TRIPOS>BOND
     1    26    27    1
     2    27    28    1
     3    27    29    1
     4    27    20    1
     5    20    21   ar
     6    21    22   ar
     7    22    23   ar
     8    23    24   ar
     9    24    25   ar
    10    25     1    1
    11     1     2    2
    12     2     3    1
    13     3    30    1
    14    30    31    1
    15    30    32    1
    16    30    33    1
    17     3     4    2
    18     4     5    1
    19     5     6    2
    20     6    10    1
    21    10    11    2
    22    11    12    1
    23    12    13    1
    24    13    14    1
    25    14    15    1
    26    15    16    1
    27    16    17    1
    28    17    18    1
    29    13    19    1
    30     6     7    1
    31     7     8    2
    32     8     9    1
    33    25    20   ar
    34     9     1    1
    35     8     4    1
    36    19    10    1
    37    18    13    1
@<TRIPOS>MOLECULE
*****
 33 37 0 0 0
SMALL
GASTEIGER

@<TRIPOS>ATOM
      1 C           4.7135    1.2648   35.7470 C.2     1  UNL1       -0.0138
      2 C           5.0404   -0.1340   35.3152 C.2     1  UNL1        0.0039
      3 C           4.4517   -0.6855   34.0506 C.2     1  UNL1        0.1174
      4 C           3.5360    0.1618   33.2177 C.2     1  UNL1        0.2360
      5 N           2.8110   -0.1080   31.9326 N.2     1  UNL1       -0.0297
      6 C           2.0360    1.1241   31.5702 C.2     1  UNL1        0.3923
      7 N           2.2820    2.1553   32.6313 N.2     1  UNL1       -0.0336
      8 C           3.2091    1.5606   33.6495 C.2     1  UNL1        0.2178
      9 C           3.7978    2.1121   34.9142 C.3     1  UNL1        0.1040
     10 C           1.1674    1.2949   30.3593 C.2     1  UNL1        0.1883
     11 N           0.3379    0.2261   29.7113 N.2     1  UNL1       -0.0797
     12 O          -0.3663    0.8351   28.5352 O.2     1  UNL1       -0.3845
     13 C           0.0279    2.2803   28.4562 C.3     1  UNL1        0.1669
     14 C           0.5108    3.6996   28.5043 C.3     1  UNL1        0.0431
     15 C           0.0398    4.6872   27.4783 C.3     1  UNL1        0.0037
     16 C          -0.9140    4.2555   26.4041 C.3     1  UNL1        0.0002
     17 C          -1.3969    2.8362   26.3560 C.3     1  UNL1        0.0037
     18 C          -0.9259    1.8486   27.3821 C.3     1  UNL1        0.0431
     19 C           0.9758    2.5644   29.5836 C.3     1  UNL1        0.0999
     20 C           4.4345    2.0135   38.2192 C.ar    1  UNL1        0.0711
     21 C           5.0233    2.5650   39.4838 C.ar    1  UNL1        0.0038
     22 C           6.4796    2.9192   39.5408 C.ar    1  UNL1       -0.0001
     23 C           7.3473    2.7221   38.3333 C.ar    1  UNL1       -0.0000
     24 C           6.7586    2.1706   37.0686 C.ar    1  UNL1       -0.0004
     25 C           5.3022    1.8163   37.0116 C.ar    1  UNL1        0.0004
     26 F           1.5216    1.3048   38.1051 F       1  UNL1       -0.1659
     27 C           2.9780    1.6592   38.1621 C.3     1  UNL1        0.4186
     28 F           2.6330    3.1073   37.9786 F       1  UNL1       -0.1659
     29 F           3.3232    0.2110   38.3457 F       1  UNL1       -0.1659
     30 C           4.7786   -2.0843   33.6188 C.3     1  UNL1        0.4221
     31 F           5.1055   -3.4831   33.1870 F       1  UNL1       -0.1657
     32 F           5.9811   -1.5753   32.8805 F       1  UNL1       -0.1657
     33 F           3.5762   -2.5932   34.3570 F       1  UNL1       -0.1657
@<TRIPOS>BOND
     1    26    27    1
     2    27    28    1
     3    27    29    1
     4    27    20    1
     5    20    21   ar
     6    21    22   ar
     7    22    23   ar
     8    23    24   ar
     9    24    25   ar
    10    25     1    1
    11     1     2    2
    12     2     3    1
    13     3    30    1
    14    30    31    1
    15    30    32    1
    16    30    33    1
    17     3     4    2
    18     4     5    1
    19     5     6    2
    20     6    10    1
    21    10    11    2
    22    11    12    1
    23    12    13    1
    24    13    14    1
    25    14    15    1
    26    15    16    1
    27    16    17    1
    28    17    18    1
    29    13    19    1
    30     6     7    1
    31     7     8    2
    32     8     9    1
    33    25    20   ar
    34     9     1    1
    35     8     4    1
    36    19    10    1
    37    18    13    1
@<TRIPOS>MOLECULE
*****
 33 37 0 0 0
SMALL
GASTEIGER

@<TRIPOS>ATOM
      1 C          -0.1900    3.6266   27.3439 C.2     1  UNL1       -0.0138
      2 C          -0.6979    2.2160   27.3889 C.2     1  UNL1        0.0039
      3 C          -0.4484    1.3673   28.6003 C.2     1  UNL1        0.1174
      4 C           0.3091    1.9292   29.7667 C.2     1  UNL1        0.2360
      5 N           0.7051    1.3358   31.0862 N.2     1  UNL1       -0.0297
      6 C           1.4577    2.3798   31.8566 C.2     1  UNL1        0.3923
      7 N           1.5270    3.6183   31.0133 N.2     1  UNL1       -0.0336
      8 C           0.8170    3.3398   29.7217 C.2     1  UNL1        0.2178
      9 C           0.5675    4.1886   28.5103 C.3     1  UNL1        0.1040
     10 C           2.0391    2.2142   33.2294 C.2     1  UNL1        0.1883
     11 N           1.6157    2.9572   34.4618 N.2     1  UNL1       -0.0797
     12 O           2.4609    2.4788   35.6049 O.2     1  UNL1       -0.3845
     13 C           3.4068    1.4401   35.0790 C.3     1  UNL1        0.1669
     14 C           4.2867    0.4244   34.4126 C.3     1  UNL1        0.0431
     15 C           5.3130   -0.3200   35.2141 C.3     1  UNL1        0.0037
     16 C           5.4594   -0.0488   36.6821 C.3     1  UNL1        0.0002
     17 C           4.5795    0.9668   37.3485 C.3     1  UNL1        0.0037
     18 C           3.5532    1.7113   36.5470 C.3     1  UNL1        0.0431
     19 C           3.1462    1.2765   33.6109 C.3     1  UNL1        0.0999
     20 C          -1.8426    4.8433   25.7506 C.ar    1  UNL1        0.0711
     21 C          -2.0922    5.6920   24.5392 C.ar    1  UNL1        0.0038
     22 C          -0.9386    6.1728   23.7098 C.ar    1  UNL1       -0.0001
     23 C           0.4646    5.8049   24.0917 C.ar    1  UNL1       -0.0000
     24 C           0.7141    4.9561   25.3031 C.ar    1  UNL1       -0.0004
     25 C          -0.4395    4.4754   26.1325 C.ar    1  UNL1        0.0004
     26 F          -4.1499    3.8816   27.4095 F       1  UNL1       -0.1659
     27 C          -2.9963    4.3624   26.5801 C.3     1  UNL1        0.4186
     28 F          -2.7665    5.4836   27.5496 F       1  UNL1       -0.1659
     29 F          -3.2261    3.2413   25.6104 F       1  UNL1       -0.1659
     30 C          -0.9563   -0.0434   28.6453 C.3     1  UNL1        0.4221
     31 F          -1.4643   -1.4540   28.6903 F       1  UNL1       -0.1657
     32 F          -2.3155    0.4584   29.0335 F       1  UNL1       -0.1657
     33 F           0.4029   -0.5452   28.2571 F       1  UNL1       -0.1657
@<TRIPOS>BOND
     1    26    27    1
     2    27    28    1
     3    27    29    1
     4    27    20    1
     5    20    21   ar
     6    21    22   ar
     7    22    23   ar
     8    23    24   ar
     9    24    25   ar
    10    25     1    1
    11     1     2    2
    12     2     3    1
    13     3    30    1
    14    30    31    1
    15    30    32    1
    16    30    33    1
    17     3     4    2
    18     4     5    1
    19     5     6    2
    20     6    10    1
    21    10    11    2
    22    11    12    1
    23    12    13    1
    24    13    14    1
    25    14    15    1
    26    15    16    1
    27    16    17    1
    28    17    18    1
    29    13    19    1
    30     6     7    1
    31     7     8    2
    32     8     9    1
    33    25    20   ar
    34     9     1    1
    35     8     4    1
    36    19    10    1
    37    18    13    1
