@<TRIPOS>MOLECULE
*****
 28 30 0 0 0
SMALL
GASTEIGER

@<TRIPOS>ATOM
      1 C         -11.5154  -18.2288   21.0799 C.ar    1  UNL1       -0.0225
      2 C         -11.3870  -19.1465   19.9003 C.ar    1  UNL1       -0.0046
      3 C         -10.0373  -19.6571   19.4907 C.ar    1  UNL1       -0.0048
      4 C          -8.8161  -19.2500   20.2606 C.ar    1  UNL1       -0.0229
      5 C          -8.9445  -18.3324   21.4402 C.ar    1  UNL1       -0.0085
      6 C         -10.2941  -17.8218   21.8498 C.ar    1  UNL1       -0.0073
      7 C          -7.7232  -17.9252   22.2102 C.3     1  UNL1        0.0975
      8 N          -6.3736  -18.4358   21.8006 N.am    1  UNL1       -0.2760
      9 C          -5.1523  -18.0288   22.5705 C.2     1  UNL1        0.2420
     10 O          -5.2807  -17.1111   23.7501 O.2     1  UNL1       -0.2734
     11 C          -6.2452  -19.3536   20.6209 C.3     1  UNL1        0.0983
     12 C          -7.4665  -19.7606   19.8510 C.3     1  UNL1        0.0476
     13 C          -7.8516  -17.0076   23.3897 C.3     1  UNL1        0.0224
     14 C          -7.4401  -15.5701   23.2699 C.3     1  UNL1        0.0020
     15 C          -7.5686  -14.6524   24.4496 C.3     1  UNL1        0.0001
     16 C          -8.1084  -15.1722   25.7489 C.3     1  UNL1        0.0000
     17 C          -8.5199  -16.6097   25.8687 C.3     1  UNL1        0.0001
     18 C          -8.3915  -17.5274   24.6891 C.3     1  UNL1        0.0020
     19 C         -13.2492  -17.6934   22.9392 C.3     1  UNL1        0.0050
     20 C         -12.8650  -17.7182   21.4895 C.3     1  UNL1        0.0264
     21 C          -3.8027  -18.5394   22.1609 C.3     1  UNL1        0.1552
     22 N          -2.9017  -17.6855   21.3187 N.3     1  UNL1       -0.2878
     23 H          -1.9762  -17.7235   21.7458 H       1  UNL1        0.1238
     24 C          -2.7197  -17.9963   19.8625 C.3     1  UNL1        0.0985
     25 C          -1.3705  -17.8417   19.2256 C.3     1  UNL1        0.1263
     26 C          -0.1502  -17.6821   20.0830 C.3     1  UNL1        0.0332
     27 O          -1.2417  -17.8467   17.7312 O.3     1  UNL1       -0.3830
     28 H          -2.1184  -17.9584   17.3314 H       1  UNL1        0.2104
@<TRIPOS>BOND
     1    19    20    1
     2    20     1    1
     3     1     2   ar
     4     2     3   ar
     5     3     4   ar
     6     4     5   ar
     7     5     6   ar
     8     5     7    1
     9     7    13    1
    10    13    14    1
    11    14    15    1
    12    15    16    1
    13    16    17    1
    14    17    18    1
    15     7     8    1
    16     8     9   am
    17     9    10    2
    18     9    21    1
    19    21    22    1
    20    22    24    1
    21    24    25    1
    22    25    26    1
    23    25    27    1
    24     8    11    1
    25    11    12    1
    26     6     1   ar
    27    18    13    1
    28    12     4    1
    29    22    23    1
    30    27    28    1
@<TRIPOS>MOLECULE
*****
 28 30 0 0 0
SMALL
GASTEIGER

@<TRIPOS>ATOM
      1 C          -4.7701  -19.4545   21.7054 C.ar    1  UNL1       -0.0225
      2 C          -4.9419  -20.3506   20.5149 C.ar    1  UNL1       -0.0046
      3 C          -6.2671  -20.4238   19.8161 C.ar    1  UNL1       -0.0048
      4 C          -7.4207  -19.6008   20.3079 C.ar    1  UNL1       -0.0229
      5 C          -7.2490  -18.7046   21.4984 C.ar    1  UNL1       -0.0085
      6 C          -5.9237  -18.6315   22.1972 C.ar    1  UNL1       -0.0073
      7 C          -8.4026  -17.8815   21.9902 C.3     1  UNL1        0.0975
      8 N          -9.7279  -17.9547   21.2914 N.am    1  UNL1       -0.2760
      9 C         -10.8815  -17.1316   21.7832 C.2     1  UNL1        0.2420
     10 O         -10.7098  -16.2354   22.9738 O.2     1  UNL1       -0.2734
     11 C          -9.8996  -18.8509   20.1009 C.3     1  UNL1        0.0983
     12 C          -8.7460  -19.6739   19.6091 C.3     1  UNL1        0.0476
     13 C          -8.2309  -16.9853   23.1807 C.3     1  UNL1        0.0224
     14 C          -7.5950  -15.6365   23.0186 C.3     1  UNL1        0.0020
     15 C          -7.4233  -14.7403   24.2092 C.3     1  UNL1        0.0001
     16 C          -7.8875  -15.1930   25.5618 C.3     1  UNL1        0.0000
     17 C          -8.5234  -16.5418   25.7239 C.3     1  UNL1        0.0001
     18 C          -8.6951  -17.4380   24.5334 C.3     1  UNL1        0.0020
     19 C          -2.1786  -19.3001   21.6041 C.3     1  UNL1        0.0050
     20 C          -3.4449  -19.3813   22.4042 C.3     1  UNL1        0.0264
     21 C         -12.2067  -17.2048   21.0844 C.3     1  UNL1        0.1552
     22 N         -13.3960  -17.7852   21.7908 N.3     1  UNL1       -0.2878
     23 H         -13.2475  -18.7932   21.8379 H       1  UNL1        0.1238
     24 C         -13.7382  -17.3325   23.1793 C.3     1  UNL1        0.0985
     25 C         -13.5652  -18.2696   24.3377 C.3     1  UNL1        0.1263
     26 C         -12.2170  -18.8575   24.6319 C.3     1  UNL1        0.0332
     27 O         -14.7405  -18.6188   25.2018 O.3     1  UNL1       -0.3830
     28 H         -15.5293  -18.1572   24.8767 H       1  UNL1        0.2104
@<TRIPOS>BOND
     1    19    20    1
     2    20     1    1
     3     1     2   ar
     4     2     3   ar
     5     3     4   ar
     6     4     5   ar
     7     5     6   ar
     8     5     7    1
     9     7    13    1
    10    13    14    1
    11    14    15    1
    12    15    16    1
    13    16    17    1
    14    17    18    1
    15     7     8    1
    16     8     9   am
    17     9    10    2
    18     9    21    1
    19    21    22    1
    20    22    24    1
    21    24    25    1
    22    25    26    1
    23    25    27    1
    24     8    11    1
    25    11    12    1
    26     6     1   ar
    27    18    13    1
    28    12     4    1
    29    22    23    1
    30    27    28    1
@<TRIPOS>MOLECULE
*****
 28 30 0 0 0
SMALL
GASTEIGER

@<TRIPOS>ATOM
      1 C          -7.6093  -15.5662   25.6895 C.ar    1  UNL1       -0.0225
      2 C          -6.2225  -15.1193   26.0457 C.ar    1  UNL1       -0.0046
      3 C          -5.0445  -15.6503   25.2840 C.ar    1  UNL1       -0.0048
      4 C          -5.2532  -16.6283   24.1660 C.ar    1  UNL1       -0.0229
      5 C          -6.6400  -17.0753   23.8098 C.ar    1  UNL1       -0.0085
      6 C          -7.8181  -16.5442   24.5715 C.ar    1  UNL1       -0.0073
      7 C          -6.8489  -18.0533   22.6918 C.3     1  UNL1        0.0975
      8 N          -5.6708  -18.5843   21.9300 N.am    1  UNL1       -0.2760
      9 C          -5.8796  -19.5623   20.8121 C.2     1  UNL1        0.2420
     10 O          -7.2664  -20.0093   20.4558 O.2     1  UNL1       -0.2734
     11 C          -4.2839  -18.1373   22.2863 C.3     1  UNL1        0.0983
     12 C          -4.0752  -17.1593   23.4043 C.3     1  UNL1        0.0476
     13 C          -8.2356  -18.5003   22.3355 C.3     1  UNL1        0.0224
     14 C          -9.0189  -17.7572   21.2941 C.3     1  UNL1        0.0020
     15 C         -10.4057  -18.2042   20.9379 C.3     1  UNL1        0.0001
     16 C         -11.0093  -19.3943   21.6230 C.3     1  UNL1        0.0000
     17 C         -10.2261  -20.1373   22.6644 C.3     1  UNL1        0.0001
     18 C          -8.8393  -19.6904   23.0206 C.3     1  UNL1        0.0020
     19 C          -8.6585  -14.7290   27.9139 C.3     1  UNL1        0.0050
     20 C          -8.7874  -15.0352   26.4512 C.3     1  UNL1        0.0264
     21 C          -4.7015  -20.0933   20.0503 C.3     1  UNL1        0.1552
     22 N          -3.8092  -19.1518   19.2971 N.3     1  UNL1       -0.2878
     23 H          -4.1239  -18.2072   19.5185 H       1  UNL1        0.1238
     24 C          -2.3269  -19.1790   19.5254 C.3     1  UNL1        0.0985
     25 C          -1.5012  -17.9602   19.2378 C.3     1  UNL1        0.1263
     26 C          -1.2148  -16.9733   20.3305 C.3     1  UNL1        0.0332
     27 O          -0.9620  -17.7284   17.8574 O.3     1  UNL1       -0.3830
     28 H          -1.2373  -18.4548   17.2765 H       1  UNL1        0.2104
@<TRIPOS>BOND
     1    19    20    1
     2    20     1    1
     3     1     2   ar
     4     2     3   ar
     5     3     4   ar
     6     4     5   ar
     7     5     6   ar
     8     5     7    1
     9     7    13    1
    10    13    14    1
    11    14    15    1
    12    15    16    1
    13    16    17    1
    14    17    18    1
    15     7     8    1
    16     8     9   am
    17     9    10    2
    18     9    21    1
    19    21    22    1
    20    22    24    1
    21    24    25    1
    22    25    26    1
    23    25    27    1
    24     8    11    1
    25    11    12    1
    26     6     1   ar
    27    18    13    1
    28    12     4    1
    29    22    23    1
    30    27    28    1
@<TRIPOS>MOLECULE
*****
 28 30 0 0 0
SMALL
GASTEIGER

@<TRIPOS>ATOM
      1 C          -8.9933  -20.4871   18.8278 C.ar    1  UNL1       -0.0225
      2 C         -10.4029  -20.0179   19.0350 C.ar    1  UNL1       -0.0046
      3 C         -10.7006  -18.9701   20.0662 C.ar    1  UNL1       -0.0048
      4 C          -9.5888  -18.3914   20.8901 C.ar    1  UNL1       -0.0229
      5 C          -8.1793  -18.8606   20.6829 C.ar    1  UNL1       -0.0085
      6 C          -7.8815  -19.9085   19.6517 C.ar    1  UNL1       -0.0073
      7 C          -7.0674  -18.2819   21.5069 C.3     1  UNL1        0.0975
      8 N          -7.3651  -17.2341   22.5381 N.am    1  UNL1       -0.2760
      9 C          -6.2533  -16.6554   23.3621 C.2     1  UNL1        0.2420
     10 O          -4.8436  -17.1246   23.1549 O.2     1  UNL1       -0.2734
     11 C          -8.7747  -16.7649   22.7453 C.3     1  UNL1        0.0983
     12 C          -9.8865  -17.3435   21.9213 C.3     1  UNL1        0.0476
     13 C          -5.6578  -18.7511   21.2997 C.3     1  UNL1        0.0224
     14 C          -5.0046  -19.6366   22.3191 C.3     1  UNL1        0.0020
     15 C          -3.5949  -20.1058   22.1119 C.3     1  UNL1        0.0001
     16 C          -2.8386  -19.6895   20.8852 C.3     1  UNL1        0.0000
     17 C          -3.4919  -18.8041   19.8658 C.3     1  UNL1        0.0001
     18 C          -4.9014  -18.3349   20.0730 C.3     1  UNL1        0.0020
     19 C          -9.3271  -21.4516   16.4386 C.3     1  UNL1        0.0050
     20 C          -8.6956  -21.5350   17.7966 C.3     1  UNL1        0.0264
     21 C          -6.5510  -15.6075   24.3932 C.3     1  UNL1        0.1552
     22 N          -5.7107  -15.5145   25.6323 N.3     1  UNL1       -0.2878
     23 H          -5.3976  -14.5464   25.7038 H       1  UNL1        0.1238
     24 C          -6.2956  -15.8799   26.9644 C.3     1  UNL1        0.0985
     25 C          -7.7764  -15.7862   27.1844 C.3     1  UNL1        0.1263
     26 C          -8.6537  -16.9685   26.8974 C.3     1  UNL1        0.0332
     27 O          -8.3799  -14.5100   27.6915 O.3     1  UNL1       -0.3830
     28 H          -7.6799  -13.8518   27.8244 H       1  UNL1        0.2104
@<TRIPOS>BOND
     1    19    20    1
     2    20     1    1
     3     1     2   ar
     4     2     3   ar
     5     3     4   ar
     6     4     5   ar
     7     5     6   ar
     8     5     7    1
     9     7    13    1
    10    13    14    1
    11    14    15    1
    12    15    16    1
    13    16    17    1
    14    17    18    1
    15     7     8    1
    16     8     9   am
    17     9    10    2
    18     9    21    1
    19    21    22    1
    20    22    24    1
    21    24    25    1
    22    25    26    1
    23    25    27    1
    24     8    11    1
    25    11    12    1
    26     6     1   ar
    27    18    13    1
    28    12     4    1
    29    22    23    1
    30    27    28    1
@<TRIPOS>MOLECULE
*****
 28 30 0 0 0
SMALL
GASTEIGER

@<TRIPOS>ATOM
      1 C          -6.8118  -20.5614   19.9991 C.ar    1  UNL1       -0.0225
      2 C          -5.3534  -20.9114   20.0221 C.ar    1  UNL1       -0.0046
      3 C          -4.4095  -20.1353   20.8919 C.ar    1  UNL1       -0.0048
      4 C          -4.9239  -19.0093   21.7388 C.ar    1  UNL1       -0.0229
      5 C          -6.3822  -18.6592   21.7159 C.ar    1  UNL1       -0.0085
      6 C          -7.3262  -19.4353   20.8460 C.ar    1  UNL1       -0.0073
      7 C          -6.8967  -17.5331   22.5628 C.3     1  UNL1        0.0975
      8 N          -5.9528  -16.7571   23.4327 N.am    1  UNL1       -0.2760
      9 C          -6.4672  -15.6310   24.2796 C.2     1  UNL1        0.2420
     10 O          -7.9256  -15.2809   24.2566 O.2     1  UNL1       -0.2734
     11 C          -4.4943  -17.1071   23.4556 C.3     1  UNL1        0.0983
     12 C          -3.9799  -18.2332   22.6087 C.3     1  UNL1        0.0476
     13 C          -8.3551  -17.1831   22.5398 C.3     1  UNL1        0.0224
     14 C          -9.3013  -17.8488   23.4945 C.3     1  UNL1        0.0020
     15 C         -10.7598  -17.4988   23.4715 C.3     1  UNL1        0.0001
     16 C         -11.2719  -16.4830   22.4939 C.3     1  UNL1        0.0000
     17 C         -10.3257  -15.8173   21.5392 C.3     1  UNL1        0.0001
     18 C          -8.8673  -16.1673   21.5621 C.3     1  UNL1        0.0020
     19 C          -8.9111  -20.6436   18.4707 C.3     1  UNL1        0.0050
     20 C          -7.7558  -21.3374   19.1293 C.3     1  UNL1        0.0264
     21 C          -5.5232  -14.8549   25.1494 C.3     1  UNL1        0.1552
     22 N          -5.8622  -14.6071   26.5895 N.3     1  UNL1       -0.2878
     23 H          -6.4715  -13.7893   26.6120 H       1  UNL1        0.1238
     24 C          -6.5410  -15.6751   27.3947 C.3     1  UNL1        0.0985
     25 C          -8.0383  -15.7166   27.4748 C.3     1  UNL1        0.1263
     26 C          -8.7705  -16.9906   27.1736 C.3     1  UNL1        0.0332
     27 O          -8.8033  -14.4840   27.8559 O.3     1  UNL1       -0.3830
     28 H          -8.1834  -13.7552   28.0158 H       1  UNL1        0.2104
@<TRIPOS>BOND
     1    19    20    1
     2    20     1    1
     3     1     2   ar
     4     2     3   ar
     5     3     4   ar
     6     4     5   ar
     7     5     6   ar
     8     5     7    1
     9     7    13    1
    10    13    14    1
    11    14    15    1
    12    15    16    1
    13    16    17    1
    14    17    18    1
    15     7     8    1
    16     8     9   am
    17     9    10    2
    18     9    21    1
    19    21    22    1
    20    22    24    1
    21    24    25    1
    22    25    26    1
    23    25    27    1
    24     8    11    1
    25    11    12    1
    26     6     1   ar
    27    18    13    1
    28    12     4    1
    29    22    23    1
    30    27    28    1
@<TRIPOS>MOLECULE
*****
 28 30 0 0 0
SMALL
GASTEIGER

@<TRIPOS>ATOM
      1 C          -4.2128  -18.5165   22.2030 C.ar    1  UNL1       -0.0225
      2 C          -4.0645  -19.3512   20.9656 C.ar    1  UNL1       -0.0046
      3 C          -5.2822  -19.8018   20.2145 C.ar    1  UNL1       -0.0048
      4 C          -6.6481  -19.4177   20.7007 C.ar    1  UNL1       -0.0229
      5 C          -6.7964  -18.5830   21.9381 C.ar    1  UNL1       -0.0085
      6 C          -5.5788  -18.1324   22.6892 C.ar    1  UNL1       -0.0073
      7 C          -8.1625  -18.1988   22.4245 C.3     1  UNL1        0.0975
      8 N          -9.3802  -18.6495   21.6733 N.am    1  UNL1       -0.2760
      9 C         -10.7462  -18.2654   22.1596 C.2     1  UNL1        0.2420
     10 O         -10.8945  -17.4306   23.3970 O.2     1  UNL1       -0.2734
     11 C          -9.2318  -19.4843   20.4359 C.3     1  UNL1        0.0983
     12 C          -7.8658  -19.8684   19.9496 C.3     1  UNL1        0.0476
     13 C          -8.3108  -17.3641   23.6618 C.3     1  UNL1        0.0224
     14 C          -8.0465  -15.8886   23.6073 C.3     1  UNL1        0.0020
     15 C          -8.1948  -15.0538   24.8447 C.3     1  UNL1        0.0001
     16 C          -8.6074  -15.6946   26.1367 C.3     1  UNL1        0.0000
     17 C          -8.8717  -17.1701   26.1912 C.3     1  UNL1        0.0001
     18 C          -8.7234  -18.0049   24.9539 C.3     1  UNL1        0.0020
     19 C          -2.0170  -17.1317   22.3057 C.3     1  UNL1        0.0050
     20 C          -2.9951  -18.0658   22.9541 C.3     1  UNL1        0.0264
     21 C         -11.9638  -18.7160   21.4085 C.3     1  UNL1        0.1552
     22 N         -13.1155  -17.7750   21.2132 N.3     1  UNL1       -0.2878
     23 H         -13.7580  -17.9306   21.9900 H       1  UNL1        0.1238
     24 C         -12.8722  -16.2965   21.1421 C.3     1  UNL1        0.0985
     25 C         -11.9796  -15.7338   20.0760 C.3     1  UNL1        0.1263
     26 C         -10.5167  -15.5422   20.3468 C.3     1  UNL1        0.0332
     27 O         -12.5499  -15.3625   18.7393 O.3     1  UNL1       -0.3830
     28 H         -13.5019  -15.5480   18.7311 H       1  UNL1        0.2104
@<TRIPOS>BOND
     1    19    20    1
     2    20     1    1
     3     1     2   ar
     4     2     3   ar
     5     3     4   ar
     6     4     5   ar
     7     5     6   ar
     8     5     7    1
     9     7    13    1
    10    13    14    1
    11    14    15    1
    12    15    16    1
    13    16    17    1
    14    17    18    1
    15     7     8    1
    16     8     9   am
    17     9    10    2
    18     9    21    1
    19    21    22    1
    20    22    24    1
    21    24    25    1
    22    25    26    1
    23    25    27    1
    24     8    11    1
    25    11    12    1
    26     6     1   ar
    27    18    13    1
    28    12     4    1
    29    22    23    1
    30    27    28    1
@<TRIPOS>MOLECULE
*****
 28 30 0 0 0
SMALL
GASTEIGER

@<TRIPOS>ATOM
      1 C          -7.7563  -15.3675   26.5896 C.ar    1  UNL1       -0.0225
      2 C          -6.2899  -15.1184   26.7835 C.ar    1  UNL1       -0.0046
      3 C          -5.3010  -15.6486   25.7880 C.ar    1  UNL1       -0.0048
      4 C          -5.7786  -16.4278   24.5986 C.ar    1  UNL1       -0.0229
      5 C          -7.2450  -16.6769   24.4047 C.ar    1  UNL1       -0.0085
      6 C          -8.2338  -16.1467   25.4002 C.ar    1  UNL1       -0.0073
      7 C          -7.7226  -17.4561   23.2153 C.3     1  UNL1        0.0975
      8 N          -6.7337  -17.9863   22.2198 N.am    1  UNL1       -0.2760
      9 C          -7.2112  -18.7656   21.0304 C.2     1  UNL1        0.2420
     10 O          -8.6777  -19.0147   20.8364 O.2     1  UNL1       -0.2734
     11 C          -5.2672  -17.7373   22.4137 C.3     1  UNL1        0.0983
     12 C          -4.7897  -16.9580   23.6031 C.3     1  UNL1        0.0476
     13 C          -9.1889  -17.7052   23.0214 C.3     1  UNL1        0.0224
     14 C         -10.0218  -16.7213   22.2545 C.3     1  UNL1        0.0020
     15 C         -11.4883  -16.9704   22.0606 C.3     1  UNL1        0.0001
     16 C         -12.1218  -18.2033   22.6337 C.3     1  UNL1        0.0000
     17 C         -11.2889  -19.1873   23.4006 C.3     1  UNL1        0.0001
     18 C          -9.8225  -18.9382   23.5945 C.3     1  UNL1        0.0020
     19 C          -8.3108  -13.8344   28.6126 C.3     1  UNL1        0.0050
     20 C          -8.7451  -14.8373   27.5852 C.3     1  UNL1        0.0264
     21 C          -6.2224  -19.2958   20.0348 C.3     1  UNL1        0.1552
     22 N          -5.3698  -20.4800   20.3824 N.3     1  UNL1       -0.2878
     23 H          -5.8719  -21.3083   20.0625 H       1  UNL1        0.1238
     24 C          -3.9744  -20.5840   19.8420 C.3     1  UNL1        0.0985
     25 C          -2.8806  -19.7367   20.4215 C.3     1  UNL1        0.1263
     26 C          -2.6066  -18.3751   19.8550 C.3     1  UNL1        0.0332
     27 O          -2.0610  -20.2510   21.5676 O.3     1  UNL1       -0.3830
     28 H          -2.3658  -21.1394   21.8101 H       1  UNL1        0.2104
@<TRIPOS>BOND
     1    19    20    1
     2    20     1    1
     3     1     2   ar
     4     2     3   ar
     5     3     4   ar
     6     4     5   ar
     7     5     6   ar
     8     5     7    1
     9     7    13    1
    10    13    14    1
    11    14    15    1
    12    15    16    1
    13    16    17    1
    14    17    18    1
    15     7     8    1
    16     8     9   am
    17     9    10    2
    18     9    21    1
    19    21    22    1
    20    22    24    1
    21    24    25    1
    22    25    26    1
    23    25    27    1
    24     8    11    1
    25    11    12    1
    26     6     1   ar
    27    18    13    1
    28    12     4    1
    29    22    23    1
    30    27    28    1
@<TRIPOS>MOLECULE
*****
 28 30 0 0 0
SMALL
GASTEIGER

@<TRIPOS>ATOM
      1 C         -10.4790   -2.5543   16.7755 C.ar    1  UNL1       -0.0225
      2 C          -9.2936   -3.4498   16.5686 C.ar    1  UNL1       -0.0046
      3 C          -9.4234   -4.9282   16.7863 C.ar    1  UNL1       -0.0048
      4 C         -10.7386   -5.5112   17.2109 C.ar    1  UNL1       -0.0229
      5 C         -11.9240   -4.6157   17.4178 C.ar    1  UNL1       -0.0085
      6 C         -11.7942   -3.1373   17.2001 C.ar    1  UNL1       -0.0073
      7 C         -13.2393   -5.1987   17.8424 C.3     1  UNL1        0.0975
      8 N         -13.3691   -6.6771   18.0601 N.am    1  UNL1       -0.2760
      9 C         -14.6843   -7.2601   18.4847 C.2     1  UNL1        0.2420
     10 O         -15.8698   -6.3646   18.6916 O.2     1  UNL1       -0.2734
     11 C         -12.1836   -7.5726   17.8531 C.3     1  UNL1        0.0983
     12 C         -10.8684   -6.9896   17.4285 C.3     1  UNL1        0.0476
     13 C         -14.4247   -4.3032   18.0493 C.3     1  UNL1        0.0224
     14 C         -14.6674   -3.6781   19.3911 C.3     1  UNL1        0.0020
     15 C         -15.8529   -2.7826   19.5980 C.3     1  UNL1        0.0001
     16 C         -16.7957   -2.5122   18.4631 C.3     1  UNL1        0.0000
     17 C         -16.5530   -3.1373   17.1213 C.3     1  UNL1        0.0001
     18 C         -15.3676   -4.0328   16.9144 C.3     1  UNL1        0.0020
     19 C         -11.1960   -0.1240   17.3496 C.3     1  UNL1        0.0050
     20 C         -10.3492   -1.0759   16.5578 C.3     1  UNL1        0.0264
     21 C         -14.8141   -8.7385   18.7024 C.3     1  UNL1        0.1552
     22 N         -15.5858   -9.2584   19.8789 N.3     1  UNL1       -0.2878
     23 H         -15.5020   -8.5603   20.6178 H       1  UNL1        0.1238
     24 C         -17.0468   -9.5685   19.7398 C.3     1  UNL1        0.0985
     25 C         -17.4961  -10.6700   18.8261 C.3     1  UNL1        0.1263
     26 C         -18.4459  -10.3729   17.7038 C.3     1  UNL1        0.0332
     27 O         -16.9956  -12.0685   19.0348 O.3     1  UNL1       -0.3830
     28 H         -16.3952  -12.0868   19.7964 H       1  UNL1        0.2104
@<TRIPOS>BOND
     1    19    20    1
     2    20     1    1
     3     1     2   ar
     4     2     3   ar
     5     3     4   ar
     6     4     5   ar
     7     5     6   ar
     8     5     7    1
     9     7    13    1
    10    13    14    1
    11    14    15    1
    12    15    16    1
    13    16    17    1
    14    17    18    1
    15     7     8    1
    16     8     9   am
    17     9    10    2
    18     9    21    1
    19    21    22    1
    20    22    24    1
    21    24    25    1
    22    25    26    1
    23    25    27    1
    24     8    11    1
    25    11    12    1
    26     6     1   ar
    27    18    13    1
    28    12     4    1
    29    22    23    1
    30    27    28    1
@<TRIPOS>MOLECULE
*****
 28 30 0 0 0
SMALL
GASTEIGER

@<TRIPOS>ATOM
      1 C           1.3035    0.2834   21.1112 C.ar    1  UNL1       -0.0225
      2 C           1.0470    1.0243   22.3899 C.ar    1  UNL1       -0.0046
      3 C           1.8157    0.6710   23.6286 C.ar    1  UNL1       -0.0048
      4 C           2.8408   -0.4232   23.5885 C.ar    1  UNL1       -0.0229
      5 C           3.0973   -1.1642   22.3098 C.ar    1  UNL1       -0.0085
      6 C           2.3287   -0.8109   21.0711 C.ar    1  UNL1       -0.0073
      7 C           4.1225   -2.2585   22.2698 C.3     1  UNL1        0.0975
      8 N           4.8912   -2.6118   23.5084 N.am    1  UNL1       -0.2760
      9 C           5.9163   -3.7060   23.4684 C.2     1  UNL1        0.2420
     10 O           6.1729   -4.4470   22.1897 O.2     1  UNL1       -0.2734
     11 C           4.6346   -1.8707   24.7872 C.3     1  UNL1        0.0983
     12 C           3.6095   -0.7765   24.8272 C.3     1  UNL1        0.0476
     13 C           4.3790   -2.9994   20.9910 C.3     1  UNL1        0.0224
     14 C           3.6633   -4.2884   20.7146 C.3     1  UNL1        0.0020
     15 C           3.9199   -5.0293   19.4358 C.3     1  UNL1        0.0001
     16 C           4.8920   -4.4814   18.4335 C.3     1  UNL1        0.0000
     17 C           5.6077   -3.1924   18.7100 C.3     1  UNL1        0.0001
     18 C           5.3512   -2.4515   19.9887 C.3     1  UNL1        0.0020
     19 C           1.2589    0.8537   18.5769 C.3     1  UNL1        0.0050
     20 C           0.5349    0.6367   19.8725 C.3     1  UNL1        0.0264
     21 C           6.6850   -4.0593   24.7071 C.3     1  UNL1        0.1552
     22 N           8.1750   -3.8891   24.7392 N.3     1  UNL1       -0.2878
     23 H           8.4110   -3.5352   25.6663 H       1  UNL1        0.1238
     24 C           9.0699   -5.0656   24.4841 C.3     1  UNL1        0.0985
     25 C           8.5062   -6.3215   23.8886 C.3     1  UNL1        0.1263
     26 C           8.1312   -7.4704   24.7771 C.3     1  UNL1        0.0332
     27 O           8.3173   -6.4286   22.4044 O.3     1  UNL1       -0.3830
     28 H           8.6071   -5.6052   21.9813 H       1  UNL1        0.2104
@<TRIPOS>BOND
     1    19    20    1
     2    20     1    1
     3     1     2   ar
     4     2     3   ar
     5     3     4   ar
     6     4     5   ar
     7     5     6   ar
     8     5     7    1
     9     7    13    1
    10    13    14    1
    11    14    15    1
    12    15    16    1
    13    16    17    1
    14    17    18    1
    15     7     8    1
    16     8     9   am
    17     9    10    2
    18     9    21    1
    19    21    22    1
    20    22    24    1
    21    24    25    1
    22    25    26    1
    23    25    27    1
    24     8    11    1
    25    11    12    1
    26     6     1   ar
    27    18    13    1
    28    12     4    1
    29    22    23    1
    30    27    28    1
