@<TRIPOS>MOLECULE
*****
 33 38 0 0 0
SMALL
GASTEIGER

@<TRIPOS>ATOM
      1 C          -7.9279  -19.1333   19.9038 C.3     1  UNL1        0.0749
      2 C          -8.2163  -18.3102   21.1241 C.3     1  UNL1        0.0444
      3 C          -9.6350  -18.0616   21.5430 C.ar    1  UNL1       -0.0101
      4 C         -10.7653  -18.6361   20.7416 C.ar    1  UNL1       -0.0091
      5 C         -12.1840  -18.3875   21.1605 C.ar    1  UNL1       -0.0032
      6 C         -12.4724  -17.5644   22.3809 C.ar    1  UNL1        0.0010
      7 C         -11.3421  -16.9899   23.1823 C.ar    1  UNL1        0.0142
      8 C          -9.9234  -17.2385   22.7634 C.ar    1  UNL1        0.0436
      9 C         -10.4769  -19.4592   19.5212 C.3     1  UNL1        0.0954
     10 N          -9.0582  -19.7078   19.1023 N.3     1  UNL1       -0.2934
     11 H          -8.9627  -19.3426   18.1547 H       1  UNL1        0.1236
     12 N          -8.7931  -16.6640   23.5649 N.pl3   1  UNL1       -0.3063
     13 C          -7.4585  -16.2387   23.0281 C.3     1  UNL1        0.0922
     14 C          -6.6395  -15.7257   24.1753 C.3     1  UNL1        0.0375
     15 C          -5.3086  -15.1459   24.5525 C.3     1  UNL1        0.0204
     16 C          -5.3144  -14.8958   26.0315 C.3     1  UNL1        0.0722
     17 N          -6.6489  -15.3210   26.5683 N.3     1  UNL1       -0.2711
     18 C          -7.0874  -15.2464   28.0009 C.3     1  UNL1        0.0896
     19 C          -7.4678  -15.8340   25.4211 C.3     1  UNL1        0.0790
     20 C          -8.7988  -16.4138   25.0439 C.3     1  UNL1        0.1067
     21 C          -6.5092  -19.3819   19.4848 C.3     1  UNL1        0.0886
     22 C          -5.5621  -21.5443   20.5699 C.3     1  UNL1        0.0899
     23 N          -5.5547  -20.0509   20.4289 N.3     1  UNL1       -0.2667
     24 C          -4.5926  -19.2266   21.2319 C.3     1  UNL1        0.0978
     25 C          -4.8456  -18.9880   22.6911 C.3     1  UNL1        0.0224
     26 C          -3.8835  -18.1637   23.4941 C.3     1  UNL1        0.0065
     27 C          -2.6685  -17.5779   22.8381 C.3     1  UNL1        0.0277
     28 C          -2.4155  -17.8164   21.3789 C.ar    1  UNL1       -0.0073
     29 C          -1.2004  -17.2305   20.7228 C.ar    1  UNL1       -0.0015
     30 C          -0.9475  -17.4691   19.2637 C.ar    1  UNL1        0.0203
     31 C          -1.9095  -18.2934   18.4606 C.ar    1  UNL1        0.0985
     32 N          -3.1245  -18.8792   19.1167 N.ar    1  UNL1       -0.2471
     33 C          -3.3775  -18.6407   20.5758 C.ar    1  UNL1        0.0695
@<TRIPOS>BOND
     1    22    23    1
     2    23    21    1
     3     1    21    1
     4     1     2    1
     5     2     3    1
     6     3     4   ar
     7     4     5   ar
     8     5     6   ar
     9     6     7   ar
    10     7     8   ar
    11     8    12    1
    12    12    13    1
    13    14    13    1
    14    14    15    1
    15    15    16    1
    16    16    17    1
    17    17    18    1
    18    17    19    1
    19    19    20    1
    20     4     9    1
    21     9    10    1
    22    24    23    1
    23    24    25    1
    24    25    26    1
    25    26    27    1
    26    27    28    1
    27    28    29   ar
    28    29    30   ar
    29    30    31   ar
    30    31    32   ar
    31    32    33   ar
    32    10     1    1
    33    33    24    1
    34     8     3   ar
    35    20    12    1
    36    33    28   ar
    37    19    14    1
    38    10    11    1
@<TRIPOS>MOLECULE
*****
 33 38 0 0 0
SMALL
GASTEIGER

@<TRIPOS>ATOM
      1 C          -5.7451  -19.9784   20.9814 C.3     1  UNL1        0.0749
      2 C          -5.4121  -18.8280   21.8845 C.3     1  UNL1        0.0444
      3 C          -4.0962  -18.1217   21.7450 C.ar    1  UNL1       -0.0101
      4 C          -3.1134  -18.5657   20.7025 C.ar    1  UNL1       -0.0091
      5 C          -1.7974  -17.8592   20.5631 C.ar    1  UNL1       -0.0032
      6 C          -1.4644  -16.7088   21.4662 C.ar    1  UNL1        0.0010
      7 C          -2.4473  -16.2648   22.5087 C.ar    1  UNL1        0.0142
      8 C          -3.7631  -16.9712   22.6481 C.ar    1  UNL1        0.0436
      9 C          -3.4464  -19.7161   19.7994 C.3     1  UNL1        0.0954
     10 N          -4.7622  -20.4225   19.9389 N.3     1  UNL1       -0.2934
     11 H          -4.5518  -21.4019   20.1308 H       1  UNL1        0.1236
     12 N          -4.7460  -16.5271   23.6907 N.pl3   1  UNL1       -0.3063
     13 C          -4.4323  -16.2241   25.1258 C.3     1  UNL1        0.0922
     14 C          -5.7075  -15.8178   25.8032 C.3     1  UNL1        0.0375
     15 C          -6.3018  -15.3795   27.1088 C.3     1  UNL1        0.0204
     16 C          -7.7708  -15.1606   26.8992 C.3     1  UNL1        0.0722
     17 N          -8.0844  -15.4636   25.4640 N.3     1  UNL1       -0.2711
     18 C          -9.4361  -15.3758   24.8194 C.3     1  UNL1        0.0896
     19 C          -6.8093  -15.8698   24.7867 C.3     1  UNL1        0.0790
     20 C          -6.2150  -16.3082   23.4811 C.3     1  UNL1        0.1067
     21 C          -7.0610  -20.6849   21.1208 C.3     1  UNL1        0.0886
     22 C          -8.7109  -19.6122   19.4245 C.3     1  UNL1        0.0899
     23 N          -8.3391  -19.9527   20.8373 N.3     1  UNL1       -0.2667
     24 C          -9.2453  -19.5609   21.9666 C.3     1  UNL1        0.0978
     25 C          -9.1263  -20.2456   23.2958 C.3     1  UNL1        0.0224
     26 C         -10.0326  -19.8538   24.4251 C.3     1  UNL1        0.0065
     27 C         -11.0578  -18.7773   24.2251 C.3     1  UNL1        0.0277
     28 C         -11.1768  -18.0926   22.8958 C.ar    1  UNL1       -0.0073
     29 C         -12.2020  -17.0161   22.6958 C.ar    1  UNL1       -0.0015
     30 C         -12.3210  -16.3314   21.3665 C.ar    1  UNL1        0.0203
     31 C         -11.4148  -16.7232   20.2373 C.ar    1  UNL1        0.0985
     32 N         -10.3895  -17.7996   20.4373 N.ar    1  UNL1       -0.2471
     33 C         -10.2706  -18.4843   21.7665 C.ar    1  UNL1        0.0695
@<TRIPOS>BOND
     1    22    23    1
     2    23    21    1
     3     1    21    1
     4     1     2    1
     5     2     3    1
     6     3     4   ar
     7     4     5   ar
     8     5     6   ar
     9     6     7   ar
    10     7     8   ar
    11     8    12    1
    12    12    13    1
    13    14    13    1
    14    14    15    1
    15    15    16    1
    16    16    17    1
    17    17    18    1
    18    17    19    1
    19    19    20    1
    20     4     9    1
    21     9    10    1
    22    24    23    1
    23    24    25    1
    24    25    26    1
    25    26    27    1
    26    27    28    1
    27    28    29   ar
    28    29    30   ar
    29    30    31   ar
    30    31    32   ar
    31    32    33   ar
    32    10     1    1
    33    33    24    1
    34     8     3   ar
    35    20    12    1
    36    33    28   ar
    37    19    14    1
    38    10    11    1
@<TRIPOS>MOLECULE
*****
 33 38 0 0 0
SMALL
GASTEIGER

@<TRIPOS>ATOM
      1 C          -8.5647  -19.2982   20.0928 C.3     1  UNL1        0.0749
      2 C          -8.7116  -18.3074   21.2093 C.3     1  UNL1        0.0444
      3 C         -10.0654  -17.7614   21.5542 C.ar    1  UNL1       -0.0101
      4 C         -11.2724  -18.2063   20.7827 C.ar    1  UNL1       -0.0091
      5 C         -12.6262  -17.6603   21.1277 C.ar    1  UNL1       -0.0032
      6 C         -12.7731  -16.6694   22.2442 C.ar    1  UNL1        0.0010
      7 C         -11.5661  -16.2246   23.0158 C.ar    1  UNL1        0.0142
      8 C         -10.2123  -16.7705   22.6708 C.ar    1  UNL1        0.0436
      9 C         -11.1255  -19.1971   19.6662 C.3     1  UNL1        0.0954
     10 N          -9.7717  -19.7431   19.3212 N.3     1  UNL1       -0.2934
     11 H          -9.5996  -19.5076   18.3438 H       1  UNL1        0.1236
     12 N          -9.0053  -16.3257   23.4424 N.pl3   1  UNL1       -0.3063
     13 C          -7.7593  -15.7257   22.8614 C.3     1  UNL1        0.0922
     14 C          -6.8163  -15.4319   23.9903 C.3     1  UNL1        0.0375
     15 C          -5.4635  -14.8796   24.3290 C.3     1  UNL1        0.0204
     16 C          -5.2906  -14.9566   25.8170 C.3     1  UNL1        0.0722
     17 N          -6.5366  -15.5566   26.3979 N.3     1  UNL1       -0.2711
     18 C          -6.7943  -15.8170   27.8525 C.3     1  UNL1        0.0896
     19 C          -7.4795  -15.8503   25.2691 C.3     1  UNL1        0.0790
     20 C          -8.8324  -16.4027   24.9304 C.3     1  UNL1        0.1067
     21 C          -7.2108  -19.8442   19.7477 C.3     1  UNL1        0.0886
     22 C          -6.5665  -20.6793   22.1221 C.3     1  UNL1        0.0899
     23 N          -6.1827  -20.0347   20.8231 N.3     1  UNL1       -0.2667
     24 C          -4.7706  -19.5807   20.5996 C.3     1  UNL1        0.0978
     25 C          -4.0881  -19.8676   19.2951 C.3     1  UNL1        0.0224
     26 C          -2.6761  -19.4135   19.0716 C.3     1  UNL1        0.0065
     27 C          -1.9465  -18.6726   20.1526 C.3     1  UNL1        0.0277
     28 C          -2.6290  -18.3857   21.4572 C.ar    1  UNL1       -0.0073
     29 C          -1.8994  -17.6447   22.5383 C.ar    1  UNL1       -0.0015
     30 C          -2.5819  -17.3579   23.8428 C.ar    1  UNL1        0.0203
     31 C          -3.9939  -17.8119   24.0663 C.ar    1  UNL1        0.0985
     32 N          -4.7235  -18.5528   22.9853 N.ar    1  UNL1       -0.2471
     33 C          -4.0410  -18.8397   21.6807 C.ar    1  UNL1        0.0695
@<TRIPOS>BOND
     1    22    23    1
     2    23    21    1
     3     1    21    1
     4     1     2    1
     5     2     3    1
     6     3     4   ar
     7     4     5   ar
     8     5     6   ar
     9     6     7   ar
    10     7     8   ar
    11     8    12    1
    12    12    13    1
    13    14    13    1
    14    14    15    1
    15    15    16    1
    16    16    17    1
    17    17    18    1
    18    17    19    1
    19    19    20    1
    20     4     9    1
    21     9    10    1
    22    24    23    1
    23    24    25    1
    24    25    26    1
    25    26    27    1
    26    27    28    1
    27    28    29   ar
    28    29    30   ar
    29    30    31   ar
    30    31    32   ar
    31    32    33   ar
    32    10     1    1
    33    33    24    1
    34     8     3   ar
    35    20    12    1
    36    33    28   ar
    37    19    14    1
    38    10    11    1
@<TRIPOS>MOLECULE
*****
 33 38 0 0 0
SMALL
GASTEIGER

@<TRIPOS>ATOM
      1 C          -6.4174  -20.1084   20.9223 C.3     1  UNL1        0.0749
      2 C          -5.8806  -19.0807   21.8740 C.3     1  UNL1        0.0444
      3 C          -4.4232  -18.7267   21.8516 C.ar    1  UNL1       -0.0101
      4 C          -3.5025  -19.4005   20.8777 C.ar    1  UNL1       -0.0091
      5 C          -2.0450  -19.0464   20.8554 C.ar    1  UNL1       -0.0032
      6 C          -1.5082  -18.0187   21.8071 C.ar    1  UNL1        0.0010
      7 C          -2.4288  -17.3450   22.7810 C.ar    1  UNL1        0.0142
      8 C          -3.8863  -17.6990   22.8033 C.ar    1  UNL1        0.0436
      9 C          -4.0394  -20.4281   19.9261 C.3     1  UNL1        0.0954
     10 N          -5.4968  -20.7821   19.9484 N.3     1  UNL1       -0.2934
     11 H          -5.5538  -21.7835   20.1338 H       1  UNL1        0.1236
     12 N          -4.8069  -17.0253   23.7772 N.pl3   1  UNL1       -0.3063
     13 C          -4.4429  -16.5559   25.1546 C.3     1  UNL1        0.0922
     14 C          -5.6642  -15.9432   25.7735 C.3     1  UNL1        0.0375
     15 C          -6.1940  -15.2744   27.0071 C.3     1  UNL1        0.0204
     16 C          -7.6403  -14.9517   26.7747 C.3     1  UNL1        0.0722
     17 N          -8.0043  -15.4211   25.3973 N.3     1  UNL1       -0.2711
     18 C          -9.3530  -15.2990   24.7521 C.3     1  UNL1        0.0896
     19 C          -6.7831  -16.0338   24.7785 C.3     1  UNL1        0.0790
     20 C          -6.2532  -16.7026   23.5448 C.3     1  UNL1        0.1067
     21 C          -7.8749  -20.4624   20.9446 C.3     1  UNL1        0.0886
     22 C          -8.6755  -19.7936   18.5651 C.3     1  UNL1        0.0899
     23 N          -8.8376  -19.7330   20.0552 N.3     1  UNL1       -0.2667
     24 C          -9.9623  -18.9428   20.6556 C.3     1  UNL1        0.0978
     25 C         -10.7578  -18.0016   19.8006 C.3     1  UNL1        0.0224
     26 C         -11.8826  -17.2114   20.4011 C.3     1  UNL1        0.0065
     27 C         -12.2119  -17.3626   21.8566 C.3     1  UNL1        0.0277
     28 C         -11.4164  -18.3039   22.7118 C.ar    1  UNL1       -0.0073
     29 C         -11.7457  -18.4550   24.1673 C.ar    1  UNL1       -0.0015
     30 C         -10.9502  -19.3963   25.0224 C.ar    1  UNL1        0.0203
     31 C          -9.8255  -20.1864   24.4219 C.ar    1  UNL1        0.0985
     32 N          -9.4962  -20.0353   22.9663 N.ar    1  UNL1       -0.2471
     33 C         -10.2916  -19.0940   22.1113 C.ar    1  UNL1        0.0695
@<TRIPOS>BOND
     1    22    23    1
     2    23    21    1
     3     1    21    1
     4     1     2    1
     5     2     3    1
     6     3     4   ar
     7     4     5   ar
     8     5     6   ar
     9     6     7   ar
    10     7     8   ar
    11     8    12    1
    12    12    13    1
    13    14    13    1
    14    14    15    1
    15    15    16    1
    16    16    17    1
    17    17    18    1
    18    17    19    1
    19    19    20    1
    20     4     9    1
    21     9    10    1
    22    24    23    1
    23    24    25    1
    24    25    26    1
    25    26    27    1
    26    27    28    1
    27    28    29   ar
    28    29    30   ar
    29    30    31   ar
    30    31    32   ar
    31    32    33   ar
    32    10     1    1
    33    33    24    1
    34     8     3   ar
    35    20    12    1
    36    33    28   ar
    37    19    14    1
    38    10    11    1
@<TRIPOS>MOLECULE
*****
 33 38 0 0 0
SMALL
GASTEIGER

@<TRIPOS>ATOM
      1 C         -10.1108  -17.7372   22.2453 C.3     1  UNL1        0.0749
      2 C          -8.8551  -18.2929   21.6419 C.3     1  UNL1        0.0444
      3 C          -8.9285  -19.1454   20.4099 C.ar    1  UNL1       -0.0101
      4 C         -10.2577  -19.4421   19.7813 C.ar    1  UNL1       -0.0091
      5 C         -10.3312  -20.2947   18.5493 C.ar    1  UNL1       -0.0032
      6 C          -9.0754  -20.8504   17.9459 C.ar    1  UNL1        0.0010
      7 C          -7.7462  -20.5537   18.5745 C.ar    1  UNL1        0.0142
      8 C          -7.6727  -19.7012   19.8064 C.ar    1  UNL1        0.0436
      9 C         -11.5135  -18.8864   20.3847 C.3     1  UNL1        0.0954
     10 N         -11.4400  -18.0339   21.6167 N.3     1  UNL1       -0.2934
     11 H         -12.0058  -18.4959   22.3286 H       1  UNL1        0.1236
     12 N          -6.3435  -19.4045   20.4350 N.pl3   1  UNL1       -0.3063
     13 C          -6.0330  -19.4456   21.9019 C.3     1  UNL1        0.0922
     14 C          -4.5890  -19.0810   22.0806 C.3     1  UNL1        0.0375
     15 C          -3.5048  -18.8811   23.0975 C.3     1  UNL1        0.0204
     16 C          -2.2526  -18.4912   22.3695 C.3     1  UNL1        0.0722
     17 N          -2.5630  -18.4501   20.9026 N.3     1  UNL1       -0.2711
     18 C          -1.5986  -18.1051   19.8067 C.3     1  UNL1        0.0896
     19 C          -4.0070  -18.8146   20.7240 C.3     1  UNL1        0.0790
     20 C          -5.0913  -19.0145   19.7070 C.3     1  UNL1        0.1067
     21 C         -10.0374  -16.8846   23.4774 C.3     1  UNL1        0.0886
     22 C         -10.0829  -18.8282   25.2009 C.3     1  UNL1        0.0899
     23 N          -9.5798  -17.4805   24.7756 N.3     1  UNL1       -0.2667
     24 C          -8.6190  -16.7289   25.6485 C.3     1  UNL1        0.0978
     25 C          -8.9362  -16.5102   27.0981 C.3     1  UNL1        0.0224
     26 C          -7.9754  -15.7586   27.9710 C.3     1  UNL1        0.0065
     27 C          -6.6974  -15.2256   27.3943 C.3     1  UNL1        0.0277
     28 C          -6.3802  -15.4443   25.9445 C.ar    1  UNL1       -0.0073
     29 C          -5.1022  -14.9114   25.3678 C.ar    1  UNL1       -0.0015
     30 C          -4.7850  -15.1301   23.9182 C.ar    1  UNL1        0.0203
     31 C          -5.7458  -15.8817   23.0453 C.ar    1  UNL1        0.0985
     32 N          -7.0237  -16.4146   23.6220 N.ar    1  UNL1       -0.2471
     33 C          -7.3409  -16.1960   25.0716 C.ar    1  UNL1        0.0695
@<TRIPOS>BOND
     1    22    23    1
     2    23    21    1
     3     1    21    1
     4     1     2    1
     5     2     3    1
     6     3     4   ar
     7     4     5   ar
     8     5     6   ar
     9     6     7   ar
    10     7     8   ar
    11     8    12    1
    12    12    13    1
    13    14    13    1
    14    14    15    1
    15    15    16    1
    16    16    17    1
    17    17    18    1
    18    17    19    1
    19    19    20    1
    20     4     9    1
    21     9    10    1
    22    24    23    1
    23    24    25    1
    24    25    26    1
    25    26    27    1
    26    27    28    1
    27    28    29   ar
    28    29    30   ar
    29    30    31   ar
    30    31    32   ar
    31    32    33   ar
    32    10     1    1
    33    33    24    1
    34     8     3   ar
    35    20    12    1
    36    33    28   ar
    37    19    14    1
    38    10    11    1
@<TRIPOS>MOLECULE
*****
 33 38 0 0 0
SMALL
GASTEIGER

@<TRIPOS>ATOM
      1 C           4.0531   -1.5325   24.3058 C.3     1  UNL1        0.0749
      2 C           3.4209   -1.0251   23.0438 C.3     1  UNL1        0.0444
      3 C           3.6069   -1.7746   21.7579 C.ar    1  UNL1       -0.0101
      4 C           4.4252   -3.0315   21.7341 C.ar    1  UNL1       -0.0091
      5 C           4.6112   -3.7811   20.4481 C.ar    1  UNL1       -0.0032
      6 C           3.9790   -3.2737   19.1860 C.ar    1  UNL1        0.0010
      7 C           3.1607   -2.0167   19.2099 C.ar    1  UNL1        0.0142
      8 C           2.9747   -1.2672   20.4958 C.ar    1  UNL1        0.0436
      9 C           5.0574   -3.5390   22.9961 C.3     1  UNL1        0.0954
     10 N           4.8714   -2.7894   24.2820 N.3     1  UNL1       -0.2934
     11 H           5.8028   -2.5408   24.6153 H       1  UNL1        0.1236
     12 N           2.1564   -0.0103   20.5197 N.pl3   1  UNL1       -0.3063
     13 C           0.6595    0.0663   20.5767 C.3     1  UNL1        0.0922
     14 C           0.2693    1.5147   20.5830 C.3     1  UNL1        0.0375
     15 C          -0.8969    2.4571   20.6221 C.3     1  UNL1        0.0204
     16 C          -0.3619    3.8582   20.5931 C.3     1  UNL1        0.0722
     17 N           1.1350    3.7815   20.5361 N.3     1  UNL1       -0.2711
     18 C           2.0765    4.9485   20.4929 C.3     1  UNL1        0.0896
     19 C           1.5251    2.3333   20.5298 C.3     1  UNL1        0.0790
     20 C           2.6914    1.3908   20.4907 C.3     1  UNL1        0.1067
     21 C           3.8671   -0.7830   25.5918 C.3     1  UNL1        0.0886
     22 C           4.6766    1.6858   25.5788 C.3     1  UNL1        0.0899
     23 N           3.5594    0.6849   25.5666 N.3     1  UNL1       -0.2667
     24 C           2.1344    1.1519   25.5293 C.3     1  UNL1        0.0978
     25 C           1.5922    1.8076   24.2940 C.3     1  UNL1        0.0224
     26 C           0.1672    2.2747   24.2567 C.3     1  UNL1        0.0065
     27 C          -0.7155    2.0860   25.4546 C.3     1  UNL1        0.0277
     28 C          -0.1733    1.4302   26.6900 C.ar    1  UNL1       -0.0073
     29 C          -1.0561    1.2415   27.8879 C.ar    1  UNL1       -0.0015
     30 C          -0.5139    0.5858   29.1232 C.ar    1  UNL1        0.0203
     31 C           0.9111    0.1187   29.1605 C.ar    1  UNL1        0.0985
     32 N           1.7938    0.3074   27.9626 N.ar    1  UNL1       -0.2471
     33 C           1.2516    0.9632   26.7273 C.ar    1  UNL1        0.0695
@<TRIPOS>BOND
     1    22    23    1
     2    23    21    1
     3     1    21    1
     4     1     2    1
     5     2     3    1
     6     3     4   ar
     7     4     5   ar
     8     5     6   ar
     9     6     7   ar
    10     7     8   ar
    11     8    12    1
    12    12    13    1
    13    14    13    1
    14    14    15    1
    15    15    16    1
    16    16    17    1
    17    17    18    1
    18    17    19    1
    19    19    20    1
    20     4     9    1
    21     9    10    1
    22    24    23    1
    23    24    25    1
    24    25    26    1
    25    26    27    1
    26    27    28    1
    27    28    29   ar
    28    29    30   ar
    29    30    31   ar
    30    31    32   ar
    31    32    33   ar
    32    10     1    1
    33    33    24    1
    34     8     3   ar
    35    20    12    1
    36    33    28   ar
    37    19    14    1
    38    10    11    1
@<TRIPOS>MOLECULE
*****
 33 38 0 0 0
SMALL
GASTEIGER

@<TRIPOS>ATOM
      1 C           6.6027   -3.8359   24.6710 C.3     1  UNL1        0.0749
      2 C           7.1295   -4.3250   25.9875 C.3     1  UNL1        0.0444
      3 C           7.9313   -5.5910   26.0508 C.ar    1  UNL1       -0.0101
      4 C           8.2064   -6.3680   24.7975 C.ar    1  UNL1       -0.0091
      5 C           9.0084   -7.6341   24.8607 C.ar    1  UNL1       -0.0032
      6 C           9.5352   -8.1232   26.1772 C.ar    1  UNL1        0.0010
      7 C           9.2601   -7.3463   27.4305 C.ar    1  UNL1        0.0142
      8 C           8.4582   -6.0802   27.3673 C.ar    1  UNL1        0.0436
      9 C           7.6797   -5.8788   23.4810 C.3     1  UNL1        0.0954
     10 N           6.8778   -4.6128   23.4178 N.3     1  UNL1       -0.2934
     11 H           5.9717   -4.8578   23.0183 H       1  UNL1        0.1236
     12 N           8.1831   -5.3033   28.6206 N.pl3   1  UNL1       -0.3063
     13 C           7.0457   -5.5359   29.5704 C.3     1  UNL1        0.0922
     14 C           7.1567   -4.5337   30.6809 C.3     1  UNL1        0.0375
     15 C           6.5225   -4.0582   31.9542 C.3     1  UNL1        0.0204
     16 C           7.3364   -2.9122   32.4777 C.3     1  UNL1        0.0722
     17 N           8.4738   -2.6795   31.5279 N.3     1  UNL1       -0.2711
     18 C           9.5358   -1.6290   31.6646 C.3     1  UNL1        0.0896
     19 C           8.3628   -3.6817   30.4175 C.3     1  UNL1        0.0790
     20 C           8.9971   -4.1573   29.1441 C.3     1  UNL1        0.1067
     21 C           5.8007   -2.5698   24.6078 C.3     1  UNL1        0.0886
     22 C           7.1932   -0.8946   23.1918 C.3     1  UNL1        0.0899
     23 N           5.9247   -1.6620   23.4201 N.3     1  UNL1       -0.2667
     24 C           4.7802   -1.5217   22.4607 C.3     1  UNL1        0.0978
     25 C           3.7033   -0.5104   22.7206 C.3     1  UNL1        0.0224
     26 C           2.5589   -0.3700   21.7612 C.3     1  UNL1        0.0065
     27 C           2.4913   -1.2410   20.5418 C.3     1  UNL1        0.0277
     28 C           3.5682   -2.2524   20.2819 C.ar    1  UNL1       -0.0073
     29 C           3.5006   -3.1233   19.0625 C.ar    1  UNL1       -0.0015
     30 C           4.5774   -4.1346   18.8026 C.ar    1  UNL1        0.0203
     31 C           5.7219   -4.2750   19.7621 C.ar    1  UNL1        0.0985
     32 N           5.7895   -3.4040   20.9814 N.ar    1  UNL1       -0.2471
     33 C           4.7126   -2.3927   21.2413 C.ar    1  UNL1        0.0695
@<TRIPOS>BOND
     1    22    23    1
     2    23    21    1
     3     1    21    1
     4     1     2    1
     5     2     3    1
     6     3     4   ar
     7     4     5   ar
     8     5     6   ar
     9     6     7   ar
    10     7     8   ar
    11     8    12    1
    12    12    13    1
    13    14    13    1
    14    14    15    1
    15    15    16    1
    16    16    17    1
    17    17    18    1
    18    17    19    1
    19    19    20    1
    20     4     9    1
    21     9    10    1
    22    24    23    1
    23    24    25    1
    24    25    26    1
    25    26    27    1
    26    27    28    1
    27    28    29   ar
    28    29    30   ar
    29    30    31   ar
    30    31    32   ar
    31    32    33   ar
    32    10     1    1
    33    33    24    1
    34     8     3   ar
    35    20    12    1
    36    33    28   ar
    37    19    14    1
    38    10    11    1
@<TRIPOS>MOLECULE
*****
 33 38 0 0 0
SMALL
GASTEIGER

@<TRIPOS>ATOM
      1 C           7.0077   -4.3942   24.3617 C.3     1  UNL1        0.0749
      2 C           7.3392   -4.6064   25.8091 C.3     1  UNL1        0.0444
      3 C           8.0710   -5.8437   26.2373 C.ar    1  UNL1       -0.0101
      4 C           8.4715   -6.8688   25.2181 C.ar    1  UNL1       -0.0091
      5 C           9.2034   -8.1062   25.6464 C.ar    1  UNL1       -0.0032
      6 C           9.5349   -8.3183   27.0938 C.ar    1  UNL1        0.0010
      7 C           9.1344   -7.2932   28.1130 C.ar    1  UNL1        0.0142
      8 C           8.4026   -6.0559   27.6848 C.ar    1  UNL1        0.0436
      9 C           8.1400   -6.6566   23.7707 C.3     1  UNL1        0.0954
     10 N           7.4081   -5.4193   23.3425 N.3     1  UNL1       -0.2934
     11 H           6.5513   -5.7281   22.8832 H       1  UNL1        0.1236
     12 N           8.0021   -5.0308   28.7040 N.pl3   1  UNL1       -0.3063
     13 C           6.8079   -5.1064   29.6084 C.3     1  UNL1        0.0922
     14 C           6.7933   -3.8724   30.4612 C.3     1  UNL1        0.0375
     15 C           6.0462   -3.1565   31.5471 C.3     1  UNL1        0.0204
     16 C           6.7698   -1.8759   31.8409 C.3     1  UNL1        0.0722
     17 N           7.9641   -1.8003   30.9365 N.3     1  UNL1       -0.2711
     18 C           8.9676   -0.6863   30.8925 C.3     1  UNL1        0.0896
     19 C           7.9786   -3.0342   30.0838 C.3     1  UNL1        0.0790
     20 C           8.7257   -3.7501   28.9978 C.3     1  UNL1        0.1067
     21 C           6.2757   -3.1569   23.9335 C.3     1  UNL1        0.0886
     22 C           7.7794   -1.7293   22.3678 C.3     1  UNL1        0.0899
     23 N           6.5457   -2.5541   22.5867 N.3     1  UNL1       -0.2667
     24 C           5.5820   -2.7760   21.4589 C.3     1  UNL1        0.0978
     25 C           5.8362   -3.8642   20.4584 C.3     1  UNL1        0.0224
     26 C           4.8725   -4.0861   19.3305 C.3     1  UNL1        0.0065
     27 C           3.6547   -3.2197   19.2031 C.3     1  UNL1        0.0277
     28 C           3.4005   -2.1314   20.2037 C.ar    1  UNL1       -0.0073
     29 C           2.1827   -1.2650   20.0763 C.ar    1  UNL1       -0.0015
     30 C           1.9286   -0.1767   21.0767 C.ar    1  UNL1        0.0203
     31 C           2.8923    0.0452   22.2046 C.ar    1  UNL1        0.0985
     32 N           4.1101   -0.8212   22.3320 N.ar    1  UNL1       -0.2471
     33 C           4.3642   -1.9095   21.3315 C.ar    1  UNL1        0.0695
@<TRIPOS>BOND
     1    22    23    1
     2    23    21    1
     3     1    21    1
     4     1     2    1
     5     2     3    1
     6     3     4   ar
     7     4     5   ar
     8     5     6   ar
     9     6     7   ar
    10     7     8   ar
    11     8    12    1
    12    12    13    1
    13    14    13    1
    14    14    15    1
    15    15    16    1
    16    16    17    1
    17    17    18    1
    18    17    19    1
    19    19    20    1
    20     4     9    1
    21     9    10    1
    22    24    23    1
    23    24    25    1
    24    25    26    1
    25    26    27    1
    26    27    28    1
    27    28    29   ar
    28    29    30   ar
    29    30    31   ar
    30    31    32   ar
    31    32    33   ar
    32    10     1    1
    33    33    24    1
    34     8     3   ar
    35    20    12    1
    36    33    28   ar
    37    19    14    1
    38    10    11    1
@<TRIPOS>MOLECULE
*****
 33 38 0 0 0
SMALL
GASTEIGER

@<TRIPOS>ATOM
      1 C           3.6000   -1.2606   22.8329 C.3     1  UNL1        0.0749
      2 C           3.0373   -0.3628   21.7712 C.3     1  UNL1        0.0444
      3 C           3.3199   -0.6430   20.3250 C.ar    1  UNL1       -0.0101
      4 C           4.1651   -1.8210   19.9405 C.ar    1  UNL1       -0.0091
      5 C           4.4477   -2.1012   18.4942 C.ar    1  UNL1       -0.0032
      6 C           3.8850   -1.2033   17.4325 C.ar    1  UNL1        0.0010
      7 C           3.0397   -0.0253   17.8170 C.ar    1  UNL1        0.0142
      8 C           2.7572    0.2548   19.2632 C.ar    1  UNL1        0.0436
      9 C           4.7278   -2.7188   21.0022 C.3     1  UNL1        0.0954
     10 N           4.4453   -2.4386   22.4484 N.3     1  UNL1       -0.2934
     11 H           5.3483   -2.3151   22.9063 H       1  UNL1        0.1236
     12 N           1.9119    1.4328   19.6477 N.pl3   1  UNL1       -0.3063
     13 C           2.4122    2.8107   19.9657 C.3     1  UNL1        0.0922
     14 C           1.2274    3.6692   20.2963 C.3     1  UNL1        0.0375
     15 C           0.8044    5.0513   20.6971 C.3     1  UNL1        0.0204
     16 C          -0.6895    5.0583   20.8312 C.3     1  UNL1        0.0722
     17 N          -1.1898    3.6804   20.5132 N.3     1  UNL1       -0.2711
     18 C          -2.6233    3.2387   20.5239 C.3     1  UNL1        0.0896
     19 C          -0.0051    2.8220   20.1826 C.3     1  UNL1        0.0790
     20 C           0.4179    1.4398   19.7818 C.3     1  UNL1        0.1067
     21 C           3.3175   -0.9805   24.2792 C.3     1  UNL1        0.0886
     22 C           4.4613    1.2074   25.0884 C.3     1  UNL1        0.0899
     23 N           3.2168    0.4357   24.7631 N.3     1  UNL1       -0.2667
     24 C           1.8717    1.0803   24.9217 C.3     1  UNL1        0.0978
     25 C           1.2273    1.7681   23.7547 C.3     1  UNL1        0.0224
     26 C          -0.1178    2.4127   23.9133 C.3     1  UNL1        0.0065
     27 C          -0.8186    2.3695   25.2388 C.3     1  UNL1        0.0277
     28 C          -0.1742    1.6817   26.4058 C.ar    1  UNL1       -0.0073
     29 C          -0.8750    1.6386   27.7313 C.ar    1  UNL1       -0.0015
     30 C          -0.2307    0.9508   28.8983 C.ar    1  UNL1        0.0203
     31 C           1.1145    0.3063   28.7397 C.ar    1  UNL1        0.0985
     32 N           1.8152    0.3494   27.4142 N.ar    1  UNL1       -0.2471
     33 C           1.1709    1.0371   26.2473 C.ar    1  UNL1        0.0695
@<TRIPOS>BOND
     1    22    23    1
     2    23    21    1
     3     1    21    1
     4     1     2    1
     5     2     3    1
     6     3     4   ar
     7     4     5   ar
     8     5     6   ar
     9     6     7   ar
    10     7     8   ar
    11     8    12    1
    12    12    13    1
    13    14    13    1
    14    14    15    1
    15    15    16    1
    16    16    17    1
    17    17    18    1
    18    17    19    1
    19    19    20    1
    20     4     9    1
    21     9    10    1
    22    24    23    1
    23    24    25    1
    24    25    26    1
    25    26    27    1
    26    27    28    1
    27    28    29   ar
    28    29    30   ar
    29    30    31   ar
    30    31    32   ar
    31    32    33   ar
    32    10     1    1
    33    33    24    1
    34     8     3   ar
    35    20    12    1
    36    33    28   ar
    37    19    14    1
    38    10    11    1
