@<TRIPOS>MOLECULE
*****
 36 39 0 0 0
SMALL
GASTEIGER

@<TRIPOS>ATOM
      1 C          -9.1742  -19.4597   23.2243 C.2     1  UNL1        0.2661
      2 O          -9.8555  -20.7875   23.3748 O.2     1  UNL1       -0.2710
      3 N          -9.6457  -18.2801   24.0221 N.am    1  UNL1       -0.2714
      4 C         -10.7984  -18.4285   24.9704 C.3     1  UNL1        0.1153
      5 C          -3.1828  -18.6165   19.9621 C.ar    1  UNL1       -0.0026
      6 C          -2.9551  -18.5150   21.4412 C.ar    1  UNL1        0.0005
      7 C          -4.1078  -18.6634   22.3895 C.ar    1  UNL1        0.0363
      8 C          -5.4883  -18.9132   21.8586 C.ar    1  UNL1        0.1350
      9 C          -5.7160  -19.0147   20.3795 C.ar    1  UNL1        0.0117
     10 C          -4.5633  -18.8663   19.4313 C.ar    1  UNL1       -0.0039
     11 C          -7.0966  -19.2645   19.8486 C.3     1  UNL1        0.0337
     12 C          -8.2493  -19.4128   20.7969 C.3     1  UNL1        0.0579
     13 C          -8.0215  -19.3114   22.2761 C.3     1  UNL1        0.2415
     14 O          -6.6410  -19.0615   22.8069 O.3     1  UNL1       -0.4703
     15 C          -2.0301  -18.4681   19.0138 C.3     1  UNL1        0.1194
     16 C           0.2127  -17.8662   20.1788 C.2     1  UNL1        0.4020
     17 O          -0.3101  -16.4919   20.4754 O.2     1  UNL1       -0.2264
     18 N          -0.6473  -18.8543   19.4481 N.am    1  UNL1       -0.2665
     19 H          -0.3041  -19.7563   19.2534 H       1  UNL1        0.1531
     20 C           2.6063  -17.1903   20.9299 C.3     1  UNL1        0.2573
     21 O           1.5957  -18.2524   20.6131 O.3     1  UNL1       -0.4306
     22 C          -8.9644  -16.9523   23.8716 C.3     1  UNL1        0.1139
     23 C          -8.1728  -16.3820   25.0110 C.ar    1  UNL1       -0.0029
     24 C          -6.8177  -15.7896   24.7604 C.ar    1  UNL1       -0.0026
     25 C          -6.0261  -15.2194   25.8998 C.ar    1  UNL1       -0.0003
     26 C          -6.5896  -15.2416   27.2897 C.ar    1  UNL1       -0.0000
     27 C          -7.9446  -15.8340   27.5404 C.ar    1  UNL1       -0.0003
     28 C          -8.7362  -16.4042   26.4010 C.ar    1  UNL1       -0.0026
     29 C          -9.0748  -16.1946   22.5817 C.3     1  UNL1        0.0968
     30 N         -10.3569  -16.2214   21.8035 N.3     1  UNL1       -0.2689
     31 C         -11.6506  -16.8307   22.2564 C.3     1  UNL1        0.0748
     32 C         -12.6636  -16.6294   21.1686 C.3     1  UNL1        0.0480
     33 C         -11.9960  -15.8958   20.0433 C.3     1  UNL1        0.1278
     34 O         -12.6407  -15.4863   18.7524 O.3     1  UNL1       -0.3830
     35 C         -10.5703  -15.6436   20.4358 C.3     1  UNL1        0.1017
     36 H         -11.9909  -15.0266   18.1980 H       1  UNL1        0.2104
@<TRIPOS>BOND
     1    20    21    1
     2    21    16    1
     3    16    17    2
     4    16    18   am
     5    18    15    1
     6    15     5    1
     7     5     6   ar
     8     6     7   ar
     9     7     8   ar
    10     8     9   ar
    11     9    10   ar
    12     9    11    1
    13    11    12    1
    14    12    13    1
    15    13     1    1
    16     1     2    2
    17     1     3   am
    18     3     4    1
    19     3    22    1
    20    22    29    1
    21    29    30    1
    22    30    31    1
    23    31    32    1
    24    32    33    1
    25    33    34    1
    26    33    35    1
    27    22    23    1
    28    23    24   ar
    29    24    25   ar
    30    25    26   ar
    31    26    27   ar
    32    27    28   ar
    33    13    14    1
    34    10     5   ar
    35    35    30    1
    36    28    23   ar
    37    14     8    1
    38    18    19    1
    39    34    36    1
@<TRIPOS>MOLECULE
*****
 36 39 0 0 0
SMALL
GASTEIGER

@<TRIPOS>ATOM
      1 C          -9.6716  -19.6201   23.5756 C.2     1  UNL1        0.2661
      2 O          -9.9348  -21.0004   24.1004 O.2     1  UNL1       -0.2710
      3 N         -10.5129  -18.4682   24.0396 N.am    1  UNL1       -0.2714
      4 C         -11.6175  -18.6966   25.0284 C.3     1  UNL1        0.1153
      5 C          -3.8503  -18.4819   20.1018 C.ar    1  UNL1       -0.0026
      6 C          -3.5521  -18.4860   21.5718 C.ar    1  UNL1        0.0005
      7 C          -4.6567  -18.7144   22.5606 C.ar    1  UNL1        0.0363
      8 C          -6.0595  -18.9388   22.0793 C.ar    1  UNL1        0.1350
      9 C          -6.3578  -18.9347   20.6093 C.ar    1  UNL1        0.0117
     10 C          -5.2532  -18.7063   19.6206 C.ar    1  UNL1       -0.0039
     11 C          -7.7607  -19.1592   20.1280 C.3     1  UNL1        0.0337
     12 C          -8.8653  -19.3876   21.1168 C.3     1  UNL1        0.0579
     13 C          -8.5670  -19.3917   22.5869 C.3     1  UNL1        0.2415
     14 O          -7.1641  -19.1673   23.0681 O.3     1  UNL1       -0.4703
     15 C          -2.7457  -18.2534   19.1130 C.3     1  UNL1        0.1194
     16 C          -0.3308  -17.8766   19.9941 C.2     1  UNL1        0.4020
     17 O          -0.6705  -16.4515   20.3158 O.2     1  UNL1       -0.2264
     18 N          -1.3684  -18.7776   19.3928 N.am    1  UNL1       -0.2665
     19 H          -1.1455  -19.7130   19.1817 H       1  UNL1        0.1531
     20 C           2.0646  -17.5194   20.9346 C.3     1  UNL1        0.2573
     21 O           1.0465  -18.4009   20.2739 O.3     1  UNL1       -0.4306
     22 C         -10.2497  -17.0879   23.5149 C.3     1  UNL1        0.1139
     23 C         -10.6599  -16.7255   22.1182 C.ar    1  UNL1       -0.0029
     24 C         -11.8289  -17.4133   21.4777 C.ar    1  UNL1       -0.0026
     25 C         -12.2391  -17.0509   20.0811 C.ar    1  UNL1       -0.0003
     26 C         -11.4803  -16.0009   19.3251 C.ar    1  UNL1       -0.0000
     27 C         -10.3113  -15.3131   19.9657 C.ar    1  UNL1       -0.0003
     28 C          -9.9011  -15.6755   21.3623 C.ar    1  UNL1       -0.0026
     29 C          -9.5762  -16.0699   24.3867 C.3     1  UNL1        0.0968
     30 N          -8.0872  -15.8981   24.3263 N.3     1  UNL1       -0.2689
     31 C          -7.0965  -16.4395   25.3138 C.3     1  UNL1        0.0748
     32 C          -5.7246  -16.0308   24.8656 C.3     1  UNL1        0.0480
     33 C          -5.8674  -15.2368   23.6010 C.3     1  UNL1        0.1278
     34 O          -4.7469  -14.6312   22.8088 O.3     1  UNL1       -0.3830
     35 C          -7.3277  -15.1548   23.2676 C.3     1  UNL1        0.1017
     36 H          -5.1094  -14.1706   22.0360 H       1  UNL1        0.2104
@<TRIPOS>BOND
     1    20    21    1
     2    21    16    1
     3    16    17    2
     4    16    18   am
     5    18    15    1
     6    15     5    1
     7     5     6   ar
     8     6     7   ar
     9     7     8   ar
    10     8     9   ar
    11     9    10   ar
    12     9    11    1
    13    11    12    1
    14    12    13    1
    15    13     1    1
    16     1     2    2
    17     1     3   am
    18     3     4    1
    19     3    22    1
    20    22    29    1
    21    29    30    1
    22    30    31    1
    23    31    32    1
    24    32    33    1
    25    33    34    1
    26    33    35    1
    27    22    23    1
    28    23    24   ar
    29    24    25   ar
    30    25    26   ar
    31    26    27   ar
    32    27    28   ar
    33    13    14    1
    34    10     5   ar
    35    35    30    1
    36    28    23   ar
    37    14     8    1
    38    18    19    1
    39    34    36    1
@<TRIPOS>MOLECULE
*****
 36 39 0 0 0
SMALL
GASTEIGER

@<TRIPOS>ATOM
      1 C           6.2893    0.9856   20.3734 C.2     1  UNL1        0.2661
      2 O           6.9795    2.3010   20.1656 O.2     1  UNL1       -0.2710
      3 N           6.3499   -0.0697   19.3090 N.am    1  UNL1       -0.2714
      4 C           7.1007    0.1906   18.0368 C.3     1  UNL1        0.1153
      5 C           3.9628   -0.7570   26.6025 C.ar    1  UNL1       -0.0026
      6 C           5.3903   -1.1980   26.4704 C.ar    1  UNL1        0.0005
      7 C           6.1412   -0.9377   25.1982 C.ar    1  UNL1        0.0363
      8 C           5.4644   -0.2364   24.0580 C.ar    1  UNL1        0.1350
      9 C           4.0368    0.2047   24.1901 C.ar    1  UNL1        0.0117
     10 C           3.2860   -0.0556   25.4623 C.ar    1  UNL1       -0.0039
     11 C           3.3600    0.9060   23.0499 C.3     1  UNL1        0.0337
     12 C           4.1108    1.1663   21.7776 C.3     1  UNL1        0.0579
     13 C           5.5385    0.7253   21.6457 C.3     1  UNL1        0.2415
     14 O           6.2152    0.0239   22.7858 O.3     1  UNL1       -0.4703
     15 C           3.2120   -1.0173   27.8747 C.3     1  UNL1        0.1194
     16 C           1.2334   -0.2911   29.3939 C.2     1  UNL1        0.4020
     17 O           2.0758   -0.5396   30.6098 O.2     1  UNL1       -0.2264
     18 N           1.8015   -0.5299   28.0263 N.am    1  UNL1       -0.2665
     19 H           1.2486   -0.3667   27.2282 H       1  UNL1        0.1531
     20 C          -1.2866   -0.4707   28.7878 C.3     1  UNL1        0.2573
     21 O          -0.1771    0.1964   29.5454 O.3     1  UNL1       -0.4306
     22 C           5.6597   -1.3851   19.5168 C.3     1  UNL1        0.1139
     23 C           6.1887   -2.3581   20.5284 C.ar    1  UNL1       -0.0029
     24 C           7.6416   -2.7310   20.5220 C.ar    1  UNL1       -0.0026
     25 C           8.1706   -3.7040   21.5336 C.ar    1  UNL1       -0.0003
     26 C           7.2468   -4.3041   22.5516 C.ar    1  UNL1       -0.0000
     27 C           5.7939   -3.9313   22.5580 C.ar    1  UNL1       -0.0003
     28 C           5.2649   -2.9583   21.5464 C.ar    1  UNL1       -0.0026
     29 C           4.4404   -1.7275   18.7131 C.3     1  UNL1        0.0968
     30 N           3.1765   -0.9404   18.8953 N.3     1  UNL1       -0.2689
     31 C           2.7551    0.2505   18.0865 C.3     1  UNL1        0.0748
     32 C           1.4304    0.7209   18.6096 C.3     1  UNL1        0.0480
     33 C           1.0330   -0.1793   19.7418 C.3     1  UNL1        0.1278
     34 O          -0.2231   -0.0716   20.5547 O.3     1  UNL1       -0.3830
     35 C           2.1122   -1.2061   19.9184 C.3     1  UNL1        0.1017
     36 H          -0.2369   -0.7744   21.2231 H       1  UNL1        0.2104
@<TRIPOS>BOND
     1    20    21    1
     2    21    16    1
     3    16    17    2
     4    16    18   am
     5    18    15    1
     6    15     5    1
     7     5     6   ar
     8     6     7   ar
     9     7     8   ar
    10     8     9   ar
    11     9    10   ar
    12     9    11    1
    13    11    12    1
    14    12    13    1
    15    13     1    1
    16     1     2    2
    17     1     3   am
    18     3     4    1
    19     3    22    1
    20    22    29    1
    21    29    30    1
    22    30    31    1
    23    31    32    1
    24    32    33    1
    25    33    34    1
    26    33    35    1
    27    22    23    1
    28    23    24   ar
    29    24    25   ar
    30    25    26   ar
    31    26    27   ar
    32    27    28   ar
    33    13    14    1
    34    10     5   ar
    35    35    30    1
    36    28    23   ar
    37    14     8    1
    38    18    19    1
    39    34    36    1
@<TRIPOS>MOLECULE
*****
 36 39 0 0 0
SMALL
GASTEIGER

@<TRIPOS>ATOM
      1 C           4.9019   -3.2694   21.3848 C.2     1  UNL1        0.2661
      2 O           4.4239   -4.6895   21.3168 O.2     1  UNL1       -0.2710
      3 N           6.3620   -2.9613   21.2315 N.am    1  UNL1       -0.2714
      4 C           7.3439   -4.0734   21.0101 C.3     1  UNL1        0.1153
      5 C           0.1399    1.6811   21.1294 C.ar    1  UNL1       -0.0026
      6 C           0.2876    1.0712   19.7671 C.ar    1  UNL1        0.0005
      7 C           1.2695   -0.0409   19.5457 C.ar    1  UNL1        0.0363
      8 C           2.1038   -0.5431   20.6866 C.ar    1  UNL1        0.1350
      9 C           1.9561    0.0669   22.0490 C.ar    1  UNL1        0.0117
     10 C           0.9742    1.1790   22.2704 C.ar    1  UNL1       -0.0039
     11 C           2.7904   -0.4352   23.1901 C.3     1  UNL1        0.0337
     12 C           3.7723   -1.5473   22.9687 C.3     1  UNL1        0.0579
     13 C           3.9200   -2.1573   21.6062 C.3     1  UNL1        0.2415
     14 O           3.0857   -1.6552   20.4653 O.3     1  UNL1       -0.4703
     15 C          -0.8420    2.7932   21.3508 C.3     1  UNL1        0.1194
     16 C          -3.1316    3.3404   20.2514 C.2     1  UNL1        0.4020
     17 O          -3.8401    2.8011   21.4585 O.2     1  UNL1       -0.2264
     18 N          -1.6325    3.3364   20.1975 N.am    1  UNL1       -0.2665
     19 H          -1.1675    3.6904   19.4053 H       1  UNL1        0.1531
     20 C          -3.2633    4.0836   17.7653 C.3     1  UNL1        0.2573
     21 O          -3.9221    3.8836   19.0981 O.3     1  UNL1       -0.4306
     22 C           6.8400   -1.5411   21.2995 C.3     1  UNL1        0.1139
     23 C           7.0141   -0.8713   22.6304 C.ar    1  UNL1       -0.0029
     24 C           7.4282   -1.6760   23.8266 C.ar    1  UNL1       -0.0026
     25 C           7.6022   -1.0061   25.1573 C.ar    1  UNL1       -0.0003
     26 C           7.3621    0.4684   25.2919 C.ar    1  UNL1       -0.0000
     27 C           6.9480    1.2731   24.0957 C.ar    1  UNL1       -0.0003
     28 C           6.7740    0.6032   22.7649 C.ar    1  UNL1       -0.0026
     29 C           7.1440   -0.7908   20.0368 C.3     1  UNL1        0.0968
     30 N           6.0518   -0.5167   19.0458 N.3     1  UNL1       -0.2689
     31 C           5.2906    0.7682   18.9054 C.3     1  UNL1        0.0748
     32 C           4.2974    0.5995   17.7941 C.3     1  UNL1        0.0480
     33 C           4.4447   -0.7897   17.2476 C.3     1  UNL1        0.1278
     34 O           3.6477   -1.3845   16.1247 O.3     1  UNL1       -0.3830
     35 C           5.5290   -1.4796   18.0212 C.3     1  UNL1        0.1017
     36 H           3.9399   -2.2961   15.9682 H       1  UNL1        0.2104
@<TRIPOS>BOND
     1    20    21    1
     2    21    16    1
     3    16    17    2
     4    16    18   am
     5    18    15    1
     6    15     5    1
     7     5     6   ar
     8     6     7   ar
     9     7     8   ar
    10     8     9   ar
    11     9    10   ar
    12     9    11    1
    13    11    12    1
    14    12    13    1
    15    13     1    1
    16     1     2    2
    17     1     3   am
    18     3     4    1
    19     3    22    1
    20    22    29    1
    21    29    30    1
    22    30    31    1
    23    31    32    1
    24    32    33    1
    25    33    34    1
    26    33    35    1
    27    22    23    1
    28    23    24   ar
    29    24    25   ar
    30    25    26   ar
    31    26    27   ar
    32    27    28   ar
    33    13    14    1
    34    10     5   ar
    35    35    30    1
    36    28    23   ar
    37    14     8    1
    38    18    19    1
    39    34    36    1
@<TRIPOS>MOLECULE
*****
 36 39 0 0 0
SMALL
GASTEIGER

@<TRIPOS>ATOM
      1 C           1.3103    0.2622   20.5815 C.2     1  UNL1        0.2661
      2 O          -0.1693    0.0424   20.6934 O.2     1  UNL1       -0.2710
      3 N           1.8647    1.0706   19.4461 N.am    1  UNL1       -0.2714
      4 C           0.9395    1.6591   18.4225 C.3     1  UNL1        0.1153
      5 C           5.8368   -3.2970   24.3355 C.ar    1  UNL1       -0.0026
      6 C           5.7373   -3.9136   22.9717 C.ar    1  UNL1        0.0005
      7 C           4.8121   -3.3251   21.9482 C.ar    1  UNL1        0.0363
      8 C           3.9864   -2.1200   22.2884 C.ar    1  UNL1        0.1350
      9 C           4.0859   -1.5034   23.6521 C.ar    1  UNL1        0.0117
     10 C           5.0111   -2.0919   24.6757 C.ar    1  UNL1       -0.0039
     11 C           3.2601   -0.2981   23.9924 C.3     1  UNL1        0.0337
     12 C           2.3349    0.2904   22.9689 C.3     1  UNL1        0.0579
     13 C           2.2355   -0.3263   21.6051 C.3     1  UNL1        0.2415
     14 O           3.0612   -1.5314   21.2649 O.3     1  UNL1       -0.4703
     15 C           6.7620   -3.8856   25.3590 C.3     1  UNL1        0.1194
     16 C           6.9359   -4.7717   27.7951 C.2     1  UNL1        0.4020
     17 O           8.2153   -4.0110   27.9805 O.2     1  UNL1       -0.2264
     18 N           6.2092   -4.7090   26.4843 N.am    1  UNL1       -0.2665
     19 H           5.3695   -5.2083   26.3627 H       1  UNL1        0.1531
     20 C           6.9109   -5.4131   30.3127 C.3     1  UNL1        0.2573
     21 O           6.3831   -5.5952   28.9204 O.3     1  UNL1       -0.4306
     22 C           3.3442    1.2904   19.3342 C.3     1  UNL1        0.1139
     23 C           4.0763    2.0306   20.4142 C.ar    1  UNL1       -0.0029
     24 C           3.5014    3.2958   20.9785 C.ar    1  UNL1       -0.0026
     25 C           4.2335    4.0359   22.0585 C.ar    1  UNL1       -0.0003
     26 C           5.5405    3.5107   22.5741 C.ar    1  UNL1       -0.0000
     27 C           6.1154    2.2454   22.0097 C.ar    1  UNL1       -0.0003
     28 C           5.3833    1.5054   20.9298 C.ar    1  UNL1       -0.0026
     29 C           4.0918    0.7702   18.1423 C.3     1  UNL1        0.0968
     30 N           4.6986   -0.6012   18.1777 N.3     1  UNL1       -0.2689
     31 C           6.1650   -0.9162   18.1980 C.3     1  UNL1        0.0748
     32 C           6.3182   -2.4080   18.2318 C.3     1  UNL1        0.0480
     33 C           4.9464   -3.0150   18.2323 C.3     1  UNL1        0.1278
     34 O           4.6311   -4.4811   18.2612 O.3     1  UNL1       -0.3830
     35 C           3.9454   -1.8982   18.1989 C.3     1  UNL1        0.1017
     36 H           3.6690   -4.6051   18.2551 H       1  UNL1        0.2104
@<TRIPOS>BOND
     1    20    21    1
     2    21    16    1
     3    16    17    2
     4    16    18   am
     5    18    15    1
     6    15     5    1
     7     5     6   ar
     8     6     7   ar
     9     7     8   ar
    10     8     9   ar
    11     9    10   ar
    12     9    11    1
    13    11    12    1
    14    12    13    1
    15    13     1    1
    16     1     2    2
    17     1     3   am
    18     3     4    1
    19     3    22    1
    20    22    29    1
    21    29    30    1
    22    30    31    1
    23    31    32    1
    24    32    33    1
    25    33    34    1
    26    33    35    1
    27    22    23    1
    28    23    24   ar
    29    24    25   ar
    30    25    26   ar
    31    26    27   ar
    32    27    28   ar
    33    13    14    1
    34    10     5   ar
    35    35    30    1
    36    28    23   ar
    37    14     8    1
    38    18    19    1
    39    34    36    1
@<TRIPOS>MOLECULE
*****
 36 39 0 0 0
SMALL
GASTEIGER

@<TRIPOS>ATOM
      1 C           6.3388    0.9190   19.9669 C.2     1  UNL1        0.2661
      2 O           7.4331    1.9311   19.7990 O.2     1  UNL1       -0.2710
      3 N           5.8785    0.1100   18.7906 N.am    1  UNL1       -0.2714
      4 C           6.5124    0.3131   17.4464 C.3     1  UNL1        0.1153
      5 C           4.2636   -1.0138   26.2285 C.ar    1  UNL1       -0.0026
      6 C           5.3580   -1.9309   25.7691 C.ar    1  UNL1        0.0005
      7 C           5.9919   -1.7278   24.4249 C.ar    1  UNL1        0.0363
      8 C           5.5315   -0.6075   23.5401 C.ar    1  UNL1        0.1350
      9 C           4.4371    0.3096   23.9995 C.ar    1  UNL1        0.0117
     10 C           3.8031    0.1064   25.3437 C.ar    1  UNL1       -0.0039
     11 C           3.9765    1.4299   23.1147 C.3     1  UNL1        0.0337
     12 C           4.6104    1.6331   21.7705 C.3     1  UNL1        0.0579
     13 C           5.7049    0.7159   21.3111 C.3     1  UNL1        0.2415
     14 O           6.1654   -0.4044   22.1959 O.3     1  UNL1       -0.4703
     15 C           3.6297   -1.2170   27.5727 C.3     1  UNL1        0.1194
     16 C           1.7696   -0.5053   29.2411 C.2     1  UNL1        0.4020
     17 O           2.6840   -0.8098   30.3905 O.2     1  UNL1       -0.2264
     18 N           2.2425   -0.7089   27.8322 N.am    1  UNL1       -0.2665
     19 H           1.6423   -0.5090   27.0778 H       1  UNL1        0.1531
     20 C          -0.0167    1.3692   29.0275 C.3     1  UNL1        0.2573
     21 O           0.3823    0.0028   29.5006 O.3     1  UNL1       -0.4306
     22 C           4.7842   -0.9021   18.9586 C.3     1  UNL1        0.1139
     23 C           3.3694   -0.4495   19.1668 C.ar    1  UNL1       -0.0029
     24 C           2.7835    0.6112   18.2828 C.ar    1  UNL1       -0.0026
     25 C           1.3687    1.0638   18.4910 C.ar    1  UNL1       -0.0003
     26 C           0.5397    0.4557   19.5833 C.ar    1  UNL1       -0.0000
     27 C           1.1256   -0.6050   20.4673 C.ar    1  UNL1       -0.0003
     28 C           2.5404   -1.0576   20.2591 C.ar    1  UNL1       -0.0026
     29 C           5.1048   -2.3669   18.9183 C.3     1  UNL1        0.0968
     30 N           6.0922   -2.9456   19.8881 N.3     1  UNL1       -0.2689
     31 C           7.5838   -2.8044   19.8174 C.3     1  UNL1        0.0748
     32 C           8.1747   -3.5385   20.9844 C.3     1  UNL1        0.0480
     33 C           7.0482   -4.1334   21.7764 C.3     1  UNL1        0.1278
     34 O           7.1849   -4.9511   23.0264 O.3     1  UNL1       -0.3830
     35 C           5.7611   -3.7669   21.0988 C.3     1  UNL1        0.1017
     36 H           6.3049   -5.2134   23.3390 H       1  UNL1        0.2104
@<TRIPOS>BOND
     1    20    21    1
     2    21    16    1
     3    16    17    2
     4    16    18   am
     5    18    15    1
     6    15     5    1
     7     5     6   ar
     8     6     7   ar
     9     7     8   ar
    10     8     9   ar
    11     9    10   ar
    12     9    11    1
    13    11    12    1
    14    12    13    1
    15    13     1    1
    16     1     2    2
    17     1     3   am
    18     3     4    1
    19     3    22    1
    20    22    29    1
    21    29    30    1
    22    30    31    1
    23    31    32    1
    24    32    33    1
    25    33    34    1
    26    33    35    1
    27    22    23    1
    28    23    24   ar
    29    24    25   ar
    30    25    26   ar
    31    26    27   ar
    32    27    28   ar
    33    13    14    1
    34    10     5   ar
    35    35    30    1
    36    28    23   ar
    37    14     8    1
    38    18    19    1
    39    34    36    1
@<TRIPOS>MOLECULE
*****
 36 39 0 0 0
SMALL
GASTEIGER

@<TRIPOS>ATOM
      1 C           4.5215   -3.5080   20.8980 C.2     1  UNL1        0.2661
      2 O           4.2039   -4.9740   20.8903 O.2     1  UNL1       -0.2710
      3 N           4.9906   -2.8356   19.6418 N.am    1  UNL1       -0.2714
      4 C           5.1421   -3.6292   18.3780 C.3     1  UNL1        0.1153
      5 C           2.8548    0.7220   26.0535 C.ar    1  UNL1       -0.0026
      6 C           1.9453    0.9839   24.8899 C.ar    1  UNL1        0.0005
      7 C           2.0967    0.1903   23.6261 C.ar    1  UNL1        0.0363
      8 C           3.1577   -0.8652   23.5259 C.ar    1  UNL1        0.1350
      9 C           4.0672   -1.1272   24.6895 C.ar    1  UNL1        0.0117
     10 C           3.9158   -0.3336   25.9533 C.ar    1  UNL1       -0.0039
     11 C           5.1283   -2.1828   24.5893 C.3     1  UNL1        0.0337
     12 C           5.2797   -2.9764   23.3255 C.3     1  UNL1        0.0579
     13 C           4.3701   -2.7144   22.1618 C.3     1  UNL1        0.2415
     14 O           3.3091   -1.6589   22.2620 O.3     1  UNL1       -0.4703
     15 C           2.7034    1.5156   27.3173 C.3     1  UNL1        0.1194
     16 C           1.0510    0.2286   28.8546 C.2     1  UNL1        0.4020
     17 O           1.9728   -0.9547   28.8549 O.2     1  UNL1       -0.2264
     18 N           1.4163    1.4637   28.0858 N.am    1  UNL1       -0.2665
     19 H           0.8112    2.2404   28.0856 H       1  UNL1        0.1531
     20 C          -1.4783   -0.3538   28.9708 C.3     1  UNL1        0.2573
     21 O          -0.2362    0.1768   29.6231 O.3     1  UNL1       -0.4306
     22 C           5.3083   -1.3697   19.6495 C.3     1  UNL1        0.1139
     23 C           6.2990   -0.8221   20.6338 C.ar    1  UNL1       -0.0029
     24 C           7.6268   -1.4960   20.8152 C.ar    1  UNL1       -0.0026
     25 C           8.6174   -0.9484   21.7994 C.ar    1  UNL1       -0.0003
     26 C           8.2804    0.2731   22.6021 C.ar    1  UNL1       -0.0000
     27 C           6.9526    0.9470   22.4206 C.ar    1  UNL1       -0.0003
     28 C           5.9620    0.3994   21.4365 C.ar    1  UNL1       -0.0026
     29 C           4.6352   -0.4513   18.6731 C.3     1  UNL1        0.0968
     30 N           3.2573    0.0679   18.9591 N.3     1  UNL1       -0.2689
     31 C           2.6961    1.3801   18.4975 C.3     1  UNL1        0.0748
     32 C           1.2906    1.4893   19.0100 C.3     1  UNL1        0.0480
     33 C           0.9831    0.2444   19.7885 C.3     1  UNL1        0.1278
     34 O          -0.3123   -0.0672   20.4774 O.3     1  UNL1       -0.3830
     35 C           2.1987   -0.6341   19.7570 C.3     1  UNL1        0.1017
     36 H          -0.2494   -0.9345   20.9074 H       1  UNL1        0.2104
@<TRIPOS>BOND
     1    20    21    1
     2    21    16    1
     3    16    17    2
     4    16    18   am
     5    18    15    1
     6    15     5    1
     7     5     6   ar
     8     6     7   ar
     9     7     8   ar
    10     8     9   ar
    11     9    10   ar
    12     9    11    1
    13    11    12    1
    14    12    13    1
    15    13     1    1
    16     1     2    2
    17     1     3   am
    18     3     4    1
    19     3    22    1
    20    22    29    1
    21    29    30    1
    22    30    31    1
    23    31    32    1
    24    32    33    1
    25    33    34    1
    26    33    35    1
    27    22    23    1
    28    23    24   ar
    29    24    25   ar
    30    25    26   ar
    31    26    27   ar
    32    27    28   ar
    33    13    14    1
    34    10     5   ar
    35    35    30    1
    36    28    23   ar
    37    14     8    1
    38    18    19    1
    39    34    36    1
@<TRIPOS>MOLECULE
*****
 36 39 0 0 0
SMALL
GASTEIGER

@<TRIPOS>ATOM
      1 C           1.2192    0.6380   20.8924 C.2     1  UNL1        0.2661
      2 O          -0.2014    0.1910   20.7141 O.2     1  UNL1       -0.2710
      3 N           1.6213    2.0307   20.5066 N.am    1  UNL1       -0.2714
      4 C           0.6027    2.9763   19.9424 C.3     1  UNL1        0.1153
      5 C           5.7053   -3.0327   24.5871 C.ar    1  UNL1       -0.0026
      6 C           5.0983   -1.9755   25.4610 C.ar    1  UNL1        0.0005
      7 C           4.0796   -1.0299   24.8969 C.ar    1  UNL1        0.0363
      8 C           3.6681   -1.1415   23.4588 C.ar    1  UNL1        0.1350
      9 C           4.2751   -2.1987   22.5849 C.ar    1  UNL1        0.0117
     10 C           5.2937   -3.1443   23.1491 C.ar    1  UNL1       -0.0039
     11 C           3.8635   -2.3104   21.1468 C.3     1  UNL1        0.0337
     12 C           2.8449   -1.3648   20.5826 C.3     1  UNL1        0.0579
     13 C           2.2378   -0.3076   21.4566 C.3     1  UNL1        0.2415
     14 O           2.6494   -0.1959   22.8947 O.3     1  UNL1       -0.4703
     15 C           6.7239   -3.9783   25.1513 C.3     1  UNL1        0.1194
     16 C           6.6090   -4.5479   27.6836 C.2     1  UNL1        0.4020
     17 O           7.2560   -3.2342   28.0084 O.2     1  UNL1       -0.2264
     18 N           6.3429   -4.9199   26.2550 N.am    1  UNL1       -0.2665
     19 H           5.9183   -5.7821   26.0418 H       1  UNL1        0.1531
     20 C           7.0765   -5.5818   30.0208 C.3     1  UNL1        0.2573
     21 O           6.2280   -5.4896   28.7873 O.3     1  UNL1       -0.4306
     22 C           3.0420    2.4778   20.6849 C.3     1  UNL1        0.1139
     23 C           3.5533    2.8242   22.0519 C.ar    1  UNL1       -0.0029
     24 C           2.7142    3.6530   22.9787 C.ar    1  UNL1       -0.0026
     25 C           3.2255    3.9994   24.3456 C.ar    1  UNL1       -0.0003
     26 C           4.5759    3.5171   24.7857 C.ar    1  UNL1       -0.0000
     27 C           5.4150    2.6884   23.8590 C.ar    1  UNL1       -0.0003
     28 C           4.9037    2.3419   22.4920 C.ar    1  UNL1       -0.0026
     29 C           3.9514    2.5783   19.4963 C.3     1  UNL1        0.0968
     30 N           4.3141    1.3452   18.7230 N.3     1  UNL1       -0.2689
     31 C           5.5988    0.5793   18.8366 C.3     1  UNL1        0.0748
     32 C           5.5344   -0.5777   17.8841 C.3     1  UNL1        0.0480
     33 C           4.2099   -0.5268   17.1818 C.3     1  UNL1        0.1278
     34 O           3.7247   -1.4945   16.1434 O.3     1  UNL1       -0.3830
     35 C           3.4557    0.6617   17.7003 C.3     1  UNL1        0.1017
     36 H           2.8369   -1.2361   15.8503 H       1  UNL1        0.2104
@<TRIPOS>BOND
     1    20    21    1
     2    21    16    1
     3    16    17    2
     4    16    18   am
     5    18    15    1
     6    15     5    1
     7     5     6   ar
     8     6     7   ar
     9     7     8   ar
    10     8     9   ar
    11     9    10   ar
    12     9    11    1
    13    11    12    1
    14    12    13    1
    15    13     1    1
    16     1     2    2
    17     1     3   am
    18     3     4    1
    19     3    22    1
    20    22    29    1
    21    29    30    1
    22    30    31    1
    23    31    32    1
    24    32    33    1
    25    33    34    1
    26    33    35    1
    27    22    23    1
    28    23    24   ar
    29    24    25   ar
    30    25    26   ar
    31    26    27   ar
    32    27    28   ar
    33    13    14    1
    34    10     5   ar
    35    35    30    1
    36    28    23   ar
    37    14     8    1
    38    18    19    1
    39    34    36    1
@<TRIPOS>MOLECULE
*****
 36 39 0 0 0
SMALL
GASTEIGER

@<TRIPOS>ATOM
      1 C           3.8751   -2.6727   19.6915 C.2     1  UNL1        0.2661
      2 O           3.2768   -4.0083   19.3626 O.2     1  UNL1       -0.2710
      3 N           5.3040   -2.5805   20.1386 N.am    1  UNL1       -0.2714
      4 C           6.1345   -3.8240   20.2569 C.3     1  UNL1        0.1153
      5 C          -0.1803    2.8300   20.4155 C.ar    1  UNL1       -0.0026
      6 C          -0.0829    2.1153   21.7307 C.ar    1  UNL1        0.0005
      7 C           0.7476    0.8719   21.8489 C.ar    1  UNL1        0.0363
      8 C           1.4808    0.3430   20.6520 C.ar    1  UNL1        0.1350
      9 C           1.3834    1.0577   19.3368 C.ar    1  UNL1        0.0117
     10 C           0.5529    2.3011   19.2186 C.ar    1  UNL1       -0.0039
     11 C           2.1167    0.5289   18.1397 C.3     1  UNL1        0.0337
     12 C           2.9472   -0.7146   18.2580 C.3     1  UNL1        0.0579
     13 C           3.0445   -1.4292   19.5733 C.3     1  UNL1        0.2415
     14 O           2.3114   -0.9004   20.7702 O.3     1  UNL1       -0.4703
     15 C          -1.0108    4.0734   20.2973 C.3     1  UNL1        0.1194
     16 C          -3.5039    3.4899   19.8567 C.2     1  UNL1        0.4020
     17 O          -3.5996    2.8697   21.2191 O.2     1  UNL1       -0.2264
     18 N          -2.2096    4.0918   19.3958 N.am    1  UNL1       -0.2665
     19 H          -2.1468    4.4989   18.5016 H       1  UNL1        0.1531
     20 C          -4.5381    3.8085   17.4947 C.3     1  UNL1        0.2573
     21 O          -4.7026    3.5083   18.9551 O.3     1  UNL1       -0.4306
     22 C           5.9023   -1.2449   20.4675 C.3     1  UNL1        0.1139
     23 C           6.0412   -0.2017   19.3986 C.ar    1  UNL1       -0.0029
     24 C           6.5965   -0.5732   18.0557 C.ar    1  UNL1       -0.0026
     25 C           6.7355    0.4701   16.9869 C.ar    1  UNL1       -0.0003
     26 C           6.3192    1.8848   17.2611 C.ar    1  UNL1       -0.0000
     27 C           5.7639    2.2563   18.6041 C.ar    1  UNL1       -0.0003
     28 C           5.6249    1.2131   19.6728 C.ar    1  UNL1       -0.0026
     29 C           6.3616   -0.9525   21.8652 C.3     1  UNL1        0.0968
     30 N           5.3568   -0.8023   22.9688 N.3     1  UNL1       -0.2689
     31 C           4.3584    0.3085   23.1071 C.3     1  UNL1        0.0748
     32 C           3.5586    0.0608   24.3516 C.3     1  UNL1        0.0480
     33 C           4.0628   -1.2033   24.9827 C.3     1  UNL1        0.1278
     34 O           3.5464   -1.8247   26.2464 O.3     1  UNL1       -0.3830
     35 C           5.1742   -1.7367   24.1280 C.3     1  UNL1        0.1017
     36 H           4.0438   -2.6360   26.4345 H       1  UNL1        0.2104
@<TRIPOS>BOND
     1    20    21    1
     2    21    16    1
     3    16    17    2
     4    16    18   am
     5    18    15    1
     6    15     5    1
     7     5     6   ar
     8     6     7   ar
     9     7     8   ar
    10     8     9   ar
    11     9    10   ar
    12     9    11    1
    13    11    12    1
    14    12    13    1
    15    13     1    1
    16     1     2    2
    17     1     3   am
    18     3     4    1
    19     3    22    1
    20    22    29    1
    21    29    30    1
    22    30    31    1
    23    31    32    1
    24    32    33    1
    25    33    34    1
    26    33    35    1
    27    22    23    1
    28    23    24   ar
    29    24    25   ar
    30    25    26   ar
    31    26    27   ar
    32    27    28   ar
    33    13    14    1
    34    10     5   ar
    35    35    30    1
    36    28    23   ar
    37    14     8    1
    38    18    19    1
    39    34    36    1
