@<TRIPOS>MOLECULE
*****
 26 28 0 0 0
SMALL
GASTEIGER

@<TRIPOS>ATOM
      1 C          -7.1129  -15.1623   27.9796 C.3     1  UNL1        0.0522
      2 C          -7.2828  -15.4615   26.5196 C.ar    1  UNL1        0.0625
      3 C          -8.6583  -15.5968   25.9369 C.ar    1  UNL1        0.0522
      4 C          -8.8283  -15.8959   24.4769 C.ar    1  UNL1        0.1482
      5 C          -7.6227  -16.0598   23.5996 C.ar    1  UNL1        0.0612
      6 C          -6.2472  -15.9245   24.1823 C.ar    1  UNL1        0.1374
      7 N          -6.0773  -15.6253   25.6423 N.ar    1  UNL1       -0.2449
      8 C          -5.0415  -16.0883   23.3050 C.2     1  UNL1        0.2684
      9 O          -4.3326  -14.8791   22.7711 O.2     1  UNL1       -0.2681
     10 N          -4.5449  -17.4614   22.9616 N.am    1  UNL1       -0.2646
     11 H          -5.0102  -18.2551   23.3120 H       1  UNL1        0.1566
     12 C          -3.3392  -17.6253   22.0843 C.ar    1  UNL1        0.1346
     13 C          -3.0044  -18.9713   21.5134 C.ar    1  UNL1        0.0368
     14 C          -1.7988  -19.1351   20.6362 C.ar    1  UNL1        0.0341
     15 C          -0.9280  -17.9529   20.3298 C.ar    1  UNL1        0.1593
     16 F           0.2777  -18.1167   19.4525 F       1  UNL1       -0.2025
     17 C          -1.2627  -16.6068   20.9007 C.ar    1  UNL1        0.1298
     18 N          -2.4683  -16.4430   21.7780 N.ar    1  UNL1       -0.2267
     19 O         -10.2039  -16.0313   23.8942 O.3     1  UNL1       -0.4518
     20 C         -10.4238  -16.8857   22.6811 C.ar    1  UNL1        0.1666
     21 C         -10.3935  -16.2691   21.3139 C.ar    1  UNL1        0.1364
     22 N         -10.6134  -17.1236   20.1009 N.ar    1  UNL1       -0.2368
     23 C         -10.8636  -18.5946   20.2549 C.ar    1  UNL1        0.1286
     24 C         -10.8939  -19.2110   21.6220 C.ar    1  UNL1        0.1623
     25 F         -11.1442  -20.6820   21.7761 F       1  UNL1       -0.2024
     26 C         -10.6740  -18.3566   22.8351 C.ar    1  UNL1        0.0703
@<TRIPOS>BOND
     1     1     2    1
     2     2     3   ar
     3     3     4   ar
     4     4    19    1
     5    19    20    1
     6    20    21   ar
     7    21    22   ar
     8    22    23   ar
     9    23    24   ar
    10    24    25    1
    11    24    26   ar
    12     4     5   ar
    13     5     6   ar
    14     6     8    1
    15     8     9    2
    16     8    10   am
    17    10    12    1
    18    12    13   ar
    19    13    14   ar
    20    14    15   ar
    21    15    16    1
    22    15    17   ar
    23    17    18   ar
    24     6     7   ar
    25     7     2   ar
    26    26    20   ar
    27    18    12   ar
    28    10    11    1
@<TRIPOS>MOLECULE
*****
 26 28 0 0 0
SMALL
GASTEIGER

@<TRIPOS>ATOM
      1 C          -6.8323  -15.0190   27.4704 C.3     1  UNL1        0.0522
      2 C          -7.1783  -15.5730   26.1201 C.ar    1  UNL1        0.0625
      3 C          -8.6090  -15.6165   25.6714 C.ar    1  UNL1        0.0522
      4 C          -8.9550  -16.1704   24.3210 C.ar    1  UNL1        0.1482
      5 C          -7.8703  -16.6808   23.4194 C.ar    1  UNL1        0.0612
      6 C          -6.4397  -16.6373   23.8680 C.ar    1  UNL1        0.1374
      7 N          -6.0937  -16.0833   25.2184 N.ar    1  UNL1       -0.2449
      8 C          -5.3550  -17.1477   22.9664 C.2     1  UNL1        0.2684
      9 O          -5.6700  -18.1786   21.9234 O.2     1  UNL1       -0.2681
     10 N          -3.9554  -16.6271   23.1077 N.am    1  UNL1       -0.2646
     11 H          -3.7487  -15.9504   23.7923 H       1  UNL1        0.1566
     12 C          -2.8707  -17.1375   22.2060 C.ar    1  UNL1        0.1346
     13 C          -1.9752  -16.1714   21.4887 C.ar    1  UNL1        0.0368
     14 C          -0.8905  -16.6818   20.5871 C.ar    1  UNL1        0.0341
     15 C          -0.7014  -18.1584   20.4028 C.ar    1  UNL1        0.1593
     16 F           0.3833  -18.6688   19.5011 F       1  UNL1       -0.2025
     17 C          -1.5969  -19.1245   21.1201 C.ar    1  UNL1        0.1298
     18 N          -2.6815  -18.6141   22.0217 N.ar    1  UNL1       -0.2267
     19 O         -10.3857  -16.2139   23.8723 O.3     1  UNL1       -0.4518
     20 C         -10.7316  -16.7667   22.5215 C.ar    1  UNL1        0.1666
     21 C         -10.7389  -18.2499   22.2975 C.ar    1  UNL1        0.1364
     22 N         -11.0847  -18.8027   20.9466 N.ar    1  UNL1       -0.2368
     23 C         -11.4233  -17.8722   19.8198 C.ar    1  UNL1        0.1286
     24 C         -11.4160  -16.3891   20.0438 C.ar    1  UNL1        0.1623
     25 F         -11.7546  -15.4587   18.9170 F       1  UNL1       -0.2024
     26 C         -11.0701  -15.8363   21.3947 C.ar    1  UNL1        0.0703
@<TRIPOS>BOND
     1     1     2    1
     2     2     3   ar
     3     3     4   ar
     4     4    19    1
     5    19    20    1
     6    20    21   ar
     7    21    22   ar
     8    22    23   ar
     9    23    24   ar
    10    24    25    1
    11    24    26   ar
    12     4     5   ar
    13     5     6   ar
    14     6     8    1
    15     8     9    2
    16     8    10   am
    17    10    12    1
    18    12    13   ar
    19    13    14   ar
    20    14    15   ar
    21    15    16    1
    22    15    17   ar
    23    17    18   ar
    24     6     7   ar
    25     7     2   ar
    26    26    20   ar
    27    18    12   ar
    28    10    11    1
@<TRIPOS>MOLECULE
*****
 26 28 0 0 0
SMALL
GASTEIGER

@<TRIPOS>ATOM
      1 C          -4.6898  -15.3521   24.3432 C.3     1  UNL1        0.0522
      2 C          -5.2404  -16.5464   23.6218 C.ar    1  UNL1        0.0625
      3 C          -4.3154  -17.4721   22.8888 C.ar    1  UNL1        0.0522
      4 C          -4.8660  -18.6664   22.1674 C.ar    1  UNL1        0.1482
      5 C          -6.3417  -18.9349   22.1788 C.ar    1  UNL1        0.0612
      6 C          -7.2667  -18.0092   22.9118 C.ar    1  UNL1        0.1374
      7 N          -6.7161  -16.8149   23.6332 N.ar    1  UNL1       -0.2449
      8 C          -8.7425  -18.2777   22.9233 C.2     1  UNL1        0.2684
      9 O          -9.3163  -19.3516   22.0471 O.2     1  UNL1       -0.2681
     10 N          -9.6445  -17.4724   23.8109 N.am    1  UNL1       -0.2646
     11 H          -9.2679  -16.7677   24.3860 H       1  UNL1        0.1566
     12 C         -11.1202  -17.7410   23.8224 C.ar    1  UNL1        0.1346
     13 C         -11.9944  -17.1723   22.7443 C.ar    1  UNL1        0.0368
     14 C         -13.4701  -17.4408   22.7559 C.ar    1  UNL1        0.0341
     15 C         -14.0716  -18.2781   23.8455 C.ar    1  UNL1        0.1593
     16 F         -15.5474  -18.5466   23.8570 F       1  UNL1       -0.2025
     17 C         -13.1974  -18.8467   24.9236 C.ar    1  UNL1        0.1298
     18 N         -11.7217  -18.5782   24.9121 N.ar    1  UNL1       -0.2267
     19 O          -3.9408  -19.5921   21.4344 O.3     1  UNL1       -0.4518
     20 C          -2.8416  -19.0329   20.5807 C.ar    1  UNL1        0.1666
     21 C          -1.4084  -19.3046   20.9303 C.ar    1  UNL1        0.1364
     22 N          -0.3091  -18.7453   20.0766 N.ar    1  UNL1       -0.2368
     23 C          -0.6431  -17.9144   18.8732 C.ar    1  UNL1        0.1286
     24 C          -2.0762  -17.6427   18.5236 C.ar    1  UNL1        0.1623
     25 F          -2.4102  -16.8118   17.3202 F       1  UNL1       -0.2024
     26 C          -3.1755  -18.2020   19.3773 C.ar    1  UNL1        0.0703
@<TRIPOS>BOND
     1     1     2    1
     2     2     3   ar
     3     3     4   ar
     4     4    19    1
     5    19    20    1
     6    20    21   ar
     7    21    22   ar
     8    22    23   ar
     9    23    24   ar
    10    24    25    1
    11    24    26   ar
    12     4     5   ar
    13     5     6   ar
    14     6     8    1
    15     8     9    2
    16     8    10   am
    17    10    12    1
    18    12    13   ar
    19    13    14   ar
    20    14    15   ar
    21    15    16    1
    22    15    17   ar
    23    17    18   ar
    24     6     7   ar
    25     7     2   ar
    26    26    20   ar
    27    18    12   ar
    28    10    11    1
@<TRIPOS>MOLECULE
*****
 26 28 0 0 0
SMALL
GASTEIGER

@<TRIPOS>ATOM
      1 C           1.1611    2.6023   31.6082 C.3     1  UNL1        0.0522
      2 C           2.1079    1.8681   32.5108 C.ar    1  UNL1        0.0625
      3 C           2.4333    2.4217   33.8663 C.ar    1  UNL1        0.0522
      4 C           3.3800    1.6875   34.7689 C.ar    1  UNL1        0.1482
      5 C           4.0015    0.3997   34.3158 C.ar    1  UNL1        0.0612
      6 C           3.6762   -0.1539   32.9603 C.ar    1  UNL1        0.1374
      7 N           2.7294    0.5803   32.0577 N.ar    1  UNL1       -0.2449
      8 C           4.2976   -1.4418   32.5071 C.2     1  UNL1        0.2684
      9 O           3.7513   -2.7507   32.9952 O.2     1  UNL1       -0.2681
     10 N           5.4654   -1.4207   31.5660 N.am    1  UNL1       -0.2646
     11 H           5.8240   -0.5616   31.2457 H       1  UNL1        0.1566
     12 C           6.0869   -2.7086   31.1129 C.ar    1  UNL1        0.1346
     13 C           6.5462   -3.7164   32.1245 C.ar    1  UNL1        0.0368
     14 C           7.1677   -5.0042   31.6713 C.ar    1  UNL1        0.0341
     15 C           7.3298   -5.2842   30.2066 C.ar    1  UNL1        0.1593
     16 F           7.9512   -6.5720   29.7535 F       1  UNL1       -0.2025
     17 C           6.8704   -4.2764   29.1951 C.ar    1  UNL1        0.1298
     18 N           6.2490   -2.9886   29.6482 N.ar    1  UNL1       -0.2267
     19 O           3.7054    2.2412   36.1245 O.3     1  UNL1       -0.4518
     20 C           2.6879    2.1769   37.2248 C.ar    1  UNL1        0.1666
     21 C           1.7226    3.3082   37.4207 C.ar    1  UNL1        0.1364
     22 N           0.7051    3.2439   38.5210 N.ar    1  UNL1       -0.2368
     23 C           0.6531    2.0482   39.4254 C.ar    1  UNL1        0.1286
     24 C           1.6184    0.9170   39.2295 C.ar    1  UNL1        0.1623
     25 F           1.5663   -0.2786   40.1339 F       1  UNL1       -0.2024
     26 C           2.6358    0.9814   38.1292 C.ar    1  UNL1        0.0703
@<TRIPOS>BOND
     1     1     2    1
     2     2     3   ar
     3     3     4   ar
     4     4    19    1
     5    19    20    1
     6    20    21   ar
     7    21    22   ar
     8    22    23   ar
     9    23    24   ar
    10    24    25    1
    11    24    26   ar
    12     4     5   ar
    13     5     6   ar
    14     6     8    1
    15     8     9    2
    16     8    10   am
    17    10    12    1
    18    12    13   ar
    19    13    14   ar
    20    14    15   ar
    21    15    16    1
    22    15    17   ar
    23    17    18   ar
    24     6     7   ar
    25     7     2   ar
    26    26    20   ar
    27    18    12   ar
    28    10    11    1
@<TRIPOS>MOLECULE
*****
 26 28 0 0 0
SMALL
GASTEIGER

@<TRIPOS>ATOM
      1 C           4.5473    4.0939   18.5034 C.3     1  UNL1        0.0522
      2 C           3.6797    2.8763   18.6246 C.ar    1  UNL1        0.0625
      3 C           4.1228    1.5765   18.0212 C.ar    1  UNL1        0.0522
      4 C           3.2552    0.3589   18.1424 C.ar    1  UNL1        0.1482
      5 C           1.9443    0.4412   18.8668 C.ar    1  UNL1        0.0612
      6 C           1.5012    1.7410   19.4702 C.ar    1  UNL1        0.1374
      7 N           2.3688    2.9585   19.3490 N.ar    1  UNL1       -0.2449
      8 C           0.1903    1.8232   20.1947 C.2     1  UNL1        0.2684
      9 O          -0.4981    0.5687   20.6445 O.2     1  UNL1       -0.2681
     10 N          -0.4322    3.1600   20.4694 N.am    1  UNL1       -0.2646
     11 H           0.0196    3.9834   20.1741 H       1  UNL1        0.1566
     12 C          -1.7431    3.2423   21.1939 C.ar    1  UNL1        0.1346
     13 C          -1.7743    3.6048   22.6491 C.ar    1  UNL1        0.0368
     14 C          -3.0852    3.6871   23.3735 C.ar    1  UNL1        0.0341
     15 C          -4.3648    3.4068   22.6428 C.ar    1  UNL1        0.1593
     16 F          -5.6757    3.4891   23.3673 F       1  UNL1       -0.2025
     17 C          -4.3336    3.0443   21.1876 C.ar    1  UNL1        0.1298
     18 N          -3.0228    2.9620   20.4632 N.ar    1  UNL1       -0.2267
     19 O           3.6984   -0.9409   17.5390 O.3     1  UNL1       -0.4518
     20 C           4.3725   -1.9732   18.3934 C.ar    1  UNL1        0.1666
     21 C           5.8250   -1.8283   18.7390 C.ar    1  UNL1        0.1364
     22 N           6.4991   -2.8606   19.5935 N.ar    1  UNL1       -0.2368
     23 C           5.7208   -4.0376   20.1022 C.ar    1  UNL1        0.1286
     24 C           4.2684   -4.1824   19.7566 C.ar    1  UNL1        0.1623
     25 F           3.4901   -5.3595   20.2653 F       1  UNL1       -0.2024
     26 C           3.5943   -3.1502   18.9021 C.ar    1  UNL1        0.0703
@<TRIPOS>BOND
     1     1     2    1
     2     2     3   ar
     3     3     4   ar
     4     4    19    1
     5    19    20    1
     6    20    21   ar
     7    21    22   ar
     8    22    23   ar
     9    23    24   ar
    10    24    25    1
    11    24    26   ar
    12     4     5   ar
    13     5     6   ar
    14     6     8    1
    15     8     9    2
    16     8    10   am
    17    10    12    1
    18    12    13   ar
    19    13    14   ar
    20    14    15   ar
    21    15    16    1
    22    15    17   ar
    23    17    18   ar
    24     6     7   ar
    25     7     2   ar
    26    26    20   ar
    27    18    12   ar
    28    10    11    1
@<TRIPOS>MOLECULE
*****
 26 28 0 0 0
SMALL
GASTEIGER

@<TRIPOS>ATOM
      1 C          -4.8202  -14.8475   25.8955 C.3     1  UNL1        0.0522
      2 C          -5.1866  -15.8597   24.8508 C.ar    1  UNL1        0.0625
      3 C          -4.1429  -16.7921   24.3113 C.ar    1  UNL1        0.0522
      4 C          -4.5093  -17.8043   23.2666 C.ar    1  UNL1        0.1482
      5 C          -5.9194  -17.8840   22.7616 C.ar    1  UNL1        0.0612
      6 C          -6.9631  -16.9516   23.3011 C.ar    1  UNL1        0.1374
      7 N          -6.5967  -15.9394   24.3458 N.ar    1  UNL1       -0.2449
      8 C          -8.3734  -17.0313   22.7961 C.2     1  UNL1        0.2684
      9 O          -8.8141  -16.1552   21.6611 O.2     1  UNL1       -0.2681
     10 N          -9.3427  -17.9870   23.4260 N.am    1  UNL1       -0.2646
     11 H          -9.0534  -18.5620   24.1710 H       1  UNL1        0.1566
     12 C         -10.7530  -18.0667   22.9210 C.ar    1  UNL1        0.1346
     13 C         -11.0155  -18.3372   21.4691 C.ar    1  UNL1        0.0368
     14 C         -12.4256  -18.4169   20.9641 C.ar    1  UNL1        0.0341
     15 C         -13.5733  -18.2261   21.9110 C.ar    1  UNL1        0.1593
     16 F         -14.9835  -18.3058   21.4059 F       1  UNL1       -0.2025
     17 C         -13.3107  -17.9556   23.3628 C.ar    1  UNL1        0.1298
     18 N         -11.9006  -17.8759   23.8678 N.ar    1  UNL1       -0.2267
     19 O          -3.4655  -18.7368   22.7271 O.3     1  UNL1       -0.4518
     20 C          -2.8380  -18.4679   21.3914 C.ar    1  UNL1        0.1666
     21 C          -3.5704  -18.8274   20.1327 C.ar    1  UNL1        0.1364
     22 N          -2.9429  -18.5586   18.7970 N.ar    1  UNL1       -0.2368
     23 C          -1.5829  -17.9303   18.7201 C.ar    1  UNL1        0.1286
     24 C          -0.8506  -17.5709   19.9789 C.ar    1  UNL1        0.1623
     25 F           0.5094  -16.9426   19.9020 F       1  UNL1       -0.2024
     26 C          -1.4781  -17.8397   21.3145 C.ar    1  UNL1        0.0703
@<TRIPOS>BOND
     1     1     2    1
     2     2     3   ar
     3     3     4   ar
     4     4    19    1
     5    19    20    1
     6    20    21   ar
     7    21    22   ar
     8    22    23   ar
     9    23    24   ar
    10    24    25    1
    11    24    26   ar
    12     4     5   ar
    13     5     6   ar
    14     6     8    1
    15     8     9    2
    16     8    10   am
    17    10    12    1
    18    12    13   ar
    19    13    14   ar
    20    14    15   ar
    21    15    16    1
    22    15    17   ar
    23    17    18   ar
    24     6     7   ar
    25     7     2   ar
    26    26    20   ar
    27    18    12   ar
    28    10    11    1
@<TRIPOS>MOLECULE
*****
 26 28 0 0 0
SMALL
GASTEIGER

@<TRIPOS>ATOM
      1 C         -17.0868  -11.3281   19.0064 C.3     1  UNL1        0.0522
      2 C         -16.8130   -9.8534   18.9892 C.ar    1  UNL1        0.0625
      3 C         -17.8517   -8.8919   19.4854 C.ar    1  UNL1        0.0522
      4 C         -17.5779   -7.4172   19.4682 C.ar    1  UNL1        0.1482
      5 C         -16.2653   -6.9040   18.9547 C.ar    1  UNL1        0.0612
      6 C         -15.2266   -7.8656   18.4584 C.ar    1  UNL1        0.1374
      7 N         -15.5004   -9.3403   18.4757 N.ar    1  UNL1       -0.2449
      8 C         -13.9139   -7.3524   17.9449 C.2     1  UNL1        0.2684
      9 O         -13.1222   -8.1664   16.9647 O.2     1  UNL1       -0.2681
     10 N         -13.3930   -6.0255   18.4115 N.am    1  UNL1       -0.2646
     11 H         -13.9127   -5.4913   19.0548 H       1  UNL1        0.1566
     12 C         -12.0803   -5.5123   17.8979 C.ar    1  UNL1        0.1346
     13 C         -10.8711   -5.5250   18.7854 C.ar    1  UNL1        0.0368
     14 C          -9.5586   -5.0119   18.2718 C.ar    1  UNL1        0.0341
     15 C          -9.4552   -4.4861   16.8708 C.ar    1  UNL1        0.1593
     16 F          -8.1425   -3.9730   16.3572 F       1  UNL1       -0.2025
     17 C         -10.6644   -4.4735   15.9833 C.ar    1  UNL1        0.1298
     18 N         -11.9769   -4.9866   16.4969 N.ar    1  UNL1       -0.2267
     19 O         -18.6168   -6.4556   19.9645 O.3     1  UNL1       -0.4518
     20 C         -18.7240   -5.0882   19.3574 C.ar    1  UNL1        0.1666
     21 C         -19.3681   -4.9124   18.0141 C.ar    1  UNL1        0.1364
     22 N         -19.4753   -3.5449   17.4069 N.ar    1  UNL1       -0.2368
     23 C         -18.9385   -2.3533   18.1432 C.ar    1  UNL1        0.1286
     24 C         -18.2945   -2.5291   19.4864 C.ar    1  UNL1        0.1623
     25 F         -17.7578   -1.3374   20.2226 F       1  UNL1       -0.2024
     26 C         -18.1873   -3.8965   20.0935 C.ar    1  UNL1        0.0703
@<TRIPOS>BOND
     1     1     2    1
     2     2     3   ar
     3     3     4   ar
     4     4    19    1
     5    19    20    1
     6    20    21   ar
     7    21    22   ar
     8    22    23   ar
     9    23    24   ar
    10    24    25    1
    11    24    26   ar
    12     4     5   ar
    13     5     6   ar
    14     6     8    1
    15     8     9    2
    16     8    10   am
    17    10    12    1
    18    12    13   ar
    19    13    14   ar
    20    14    15   ar
    21    15    16    1
    22    15    17   ar
    23    17    18   ar
    24     6     7   ar
    25     7     2   ar
    26    26    20   ar
    27    18    12   ar
    28    10    11    1
@<TRIPOS>MOLECULE
*****
 26 28 0 0 0
SMALL
GASTEIGER

@<TRIPOS>ATOM
      1 C           9.3524   -4.4455   20.4495 C.3     1  UNL1        0.0522
      2 C           8.1848   -4.1986   21.3582 C.ar    1  UNL1        0.0625
      3 C           6.8322   -3.9071   20.7791 C.ar    1  UNL1        0.0522
      4 C           5.6646   -3.6602   21.6878 C.ar    1  UNL1        0.1482
      5 C           5.8496   -3.7048   23.1756 C.ar    1  UNL1        0.0612
      6 C           7.2022   -3.9963   23.7548 C.ar    1  UNL1        0.1374
      7 N           8.3698   -4.2432   22.8461 N.ar    1  UNL1       -0.2449
      8 C           7.3872   -4.0410   25.2427 C.2     1  UNL1        0.2684
      9 O           8.7688   -4.0443   25.8269 O.2     1  UNL1       -0.2681
     10 N           6.1907   -4.0823   26.1464 N.am    1  UNL1       -0.2646
     11 H           5.2840   -4.0802   25.7629 H       1  UNL1        0.1566
     12 C           6.3758   -4.1270   27.6343 C.ar    1  UNL1        0.1346
     13 C           6.6438   -5.4350   28.3178 C.ar    1  UNL1        0.0368
     14 C           6.8288   -5.4796   29.8057 C.ar    1  UNL1        0.0341
     15 C           6.7458   -4.2162   30.6100 C.ar    1  UNL1        0.1593
     16 F           6.9308   -4.2608   32.0979 F       1  UNL1       -0.2025
     17 C           6.4777   -2.9082   29.9265 C.ar    1  UNL1        0.1298
     18 N           6.2927   -2.8636   28.4386 N.ar    1  UNL1       -0.2267
     19 O           4.3120   -3.3686   21.1085 O.3     1  UNL1       -0.4518
     20 C           4.0949   -2.1242   20.2997 C.ar    1  UNL1        0.1666
     21 C           4.0252   -0.7896   20.9809 C.ar    1  UNL1        0.1364
     22 N           3.8081    0.4549   20.1720 N.ar    1  UNL1       -0.2368
     23 C           3.6606    0.3646   18.6819 C.ar    1  UNL1        0.1286
     24 C           3.7303   -0.9700   18.0008 C.ar    1  UNL1        0.1623
     25 F           3.5828   -1.0602   16.5108 F       1  UNL1       -0.2024
     26 C           3.9474   -2.2144   18.8097 C.ar    1  UNL1        0.0703
@<TRIPOS>BOND
     1     1     2    1
     2     2     3   ar
     3     3     4   ar
     4     4    19    1
     5    19    20    1
     6    20    21   ar
     7    21    22   ar
     8    22    23   ar
     9    23    24   ar
    10    24    25    1
    11    24    26   ar
    12     4     5   ar
    13     5     6   ar
    14     6     8    1
    15     8     9    2
    16     8    10   am
    17    10    12    1
    18    12    13   ar
    19    13    14   ar
    20    14    15   ar
    21    15    16    1
    22    15    17   ar
    23    17    18   ar
    24     6     7   ar
    25     7     2   ar
    26    26    20   ar
    27    18    12   ar
    28    10    11    1
@<TRIPOS>MOLECULE
*****
 26 28 0 0 0
SMALL
GASTEIGER

@<TRIPOS>ATOM
      1 C           2.7257    3.8128   18.1998 C.3     1  UNL1        0.0522
      2 C           1.7572    2.9417   18.9436 C.ar    1  UNL1        0.0625
      3 C           2.0290    1.4739   19.0909 C.ar    1  UNL1        0.0522
      4 C           1.0605    0.6028   19.8347 C.ar    1  UNL1        0.1482
      5 C          -0.1797    1.1994   20.4312 C.ar    1  UNL1        0.0612
      6 C          -0.4514    2.6672   20.2839 C.ar    1  UNL1        0.1374
      7 N           0.5170    3.5383   19.5401 N.ar    1  UNL1       -0.2449
      8 C          -1.6917    3.2639   20.8804 C.2     1  UNL1        0.2684
      9 O          -1.5960    4.4910   21.7378 O.2     1  UNL1       -0.2681
     10 N          -3.0275    2.6336   20.6195 N.am    1  UNL1       -0.2646
     11 H          -3.0903    1.8282   20.0568 H       1  UNL1        0.1566
     12 C          -4.2678    3.2303   21.2160 C.ar    1  UNL1        0.1346
     13 C          -5.2742    3.9066   20.3330 C.ar    1  UNL1        0.0368
     14 C          -6.5144    4.5032   20.9295 C.ar    1  UNL1        0.0341
     15 C          -6.7482    4.4237   22.4091 C.ar    1  UNL1        0.1593
     16 F          -7.9884    5.0204   23.0056 F       1  UNL1       -0.2025
     17 C          -5.7417    3.7474   23.2921 C.ar    1  UNL1        0.1298
     18 N          -4.5016    3.1507   22.6955 N.ar    1  UNL1       -0.2267
     19 O           1.3323   -0.8651   19.9820 O.3     1  UNL1       -0.4518
     20 C           2.7365   -1.3508   20.1877 C.ar    1  UNL1        0.1666
     21 C           3.4426   -1.0774   21.4826 C.ar    1  UNL1        0.1364
     22 N           4.8467   -1.5632   21.6883 N.ar    1  UNL1       -0.2368
     23 C           5.5449   -2.3224   20.5991 C.ar    1  UNL1        0.1286
     24 C           4.8388   -2.5958   19.3042 C.ar    1  UNL1        0.1623
     25 F           5.5369   -3.3550   18.2150 F       1  UNL1       -0.2024
     26 C           3.4346   -2.1100   19.0985 C.ar    1  UNL1        0.0703
@<TRIPOS>BOND
     1     1     2    1
     2     2     3   ar
     3     3     4   ar
     4     4    19    1
     5    19    20    1
     6    20    21   ar
     7    21    22   ar
     8    22    23   ar
     9    23    24   ar
    10    24    25    1
    11    24    26   ar
    12     4     5   ar
    13     5     6   ar
    14     6     8    1
    15     8     9    2
    16     8    10   am
    17    10    12    1
    18    12    13   ar
    19    13    14   ar
    20    14    15   ar
    21    15    16    1
    22    15    17   ar
    23    17    18   ar
    24     6     7   ar
    25     7     2   ar
    26    26    20   ar
    27    18    12   ar
    28    10    11    1
