@<TRIPOS>MOLECULE
*****
 28 30 0 0 0
SMALL
GASTEIGER

@<TRIPOS>ATOM
      1 C         -11.1496  -17.8657   22.5086 C.ar    1  UNL1        0.0618
      2 C         -10.3210  -18.5695   21.4753 C.ar    1  UNL1        0.0298
      3 C          -8.8300  -18.6348   21.6266 C.ar    1  UNL1        0.0662
      4 N          -8.1678  -17.9963   22.8114 N.ar    1  UNL1       -0.2306
      5 C          -8.9965  -17.2925   23.8448 C.ar    1  UNL1        0.1615
      6 N         -10.4874  -17.2272   23.6934 N.ar    1  UNL1       -0.2309
      7 C          -8.3342  -16.6539   25.0296 C.ar    1  UNL1        0.0366
      8 C          -8.9863  -16.7193   26.3789 C.ar    1  UNL1        0.0031
      9 C          -8.3241  -16.0808   27.5637 C.ar    1  UNL1        0.0010
     10 C          -7.0097  -15.3769   27.3992 C.ar    1  UNL1        0.0114
     11 C          -6.3577  -15.3115   26.0499 C.ar    1  UNL1        0.0578
     12 CL         -5.0433  -14.6076   25.8854 Cl      1  UNL1       -0.0822
     13 C          -7.0199  -15.9500   24.8652 C.ar    1  UNL1        0.0144
     14 C         -13.5219  -17.8878   23.5679 C.3     1  UNL1        0.0067
     15 C         -12.6405  -17.8004   22.3573 C.3     1  UNL1        0.0459
     16 C          -8.0014  -19.3386   20.5932 C.3     1  UNL1        0.0721
     17 C          -6.5086  -19.3850   20.7331 C.ar    1  UNL1       -0.0162
     18 C          -5.6346  -19.0329   19.5660 C.ar    1  UNL1       -0.0042
     19 C          -4.1419  -19.0793   19.7059 C.ar    1  UNL1       -0.0041
     20 C          -3.5232  -19.4778   21.0130 C.ar    1  UNL1       -0.0131
     21 C          -4.3972  -19.8298   22.1801 C.ar    1  UNL1       -0.0041
     22 C          -5.8899  -19.7835   22.0402 C.ar    1  UNL1       -0.0042
     23 C          -2.0304  -19.5241   21.1530 C.3     1  UNL1        0.1111
     24 C          -1.1943  -18.3843   20.6510 C.2     1  UNL1        0.2238
     25 N          -1.4452  -16.9928   21.1517 N.am    1  UNL1       -0.3285
     26 O          -0.1074  -18.6361   19.6485 O.2     1  UNL1       -0.2750
     27 H          -2.1585  -16.8276   21.8098 H       1  UNL1        0.1450
     28 H          -0.8964  -16.2447   20.8223 H       1  UNL1        0.1450
@<TRIPOS>BOND
     1    14    15    1
     2    15     1    1
     3     1     2   ar
     4     2     3   ar
     5     3    16    1
     6    16    17    1
     7    17    18   ar
     8    18    19   ar
     9    19    20   ar
    10    20    23    1
    11    23    24    1
    12    24    25   am
    13    24    26    2
    14    20    21   ar
    15    21    22   ar
    16     3     4   ar
    17     4     5   ar
    18     5     7    1
    19     7     8   ar
    20     8     9   ar
    21     9    10   ar
    22    10    11   ar
    23    11    12    1
    24    11    13   ar
    25     5     6   ar
    26     6     1   ar
    27    22    17   ar
    28    13     7   ar
    29    25    27    1
    30    25    28    1
@<TRIPOS>MOLECULE
*****
 28 30 0 0 0
SMALL
GASTEIGER

@<TRIPOS>ATOM
      1 C          -7.1101  -16.4093   23.6250 C.ar    1  UNL1        0.0618
      2 C          -6.2654  -17.5069   23.0492 C.ar    1  UNL1        0.0298
      3 C          -6.9164  -18.6992   22.4132 C.ar    1  UNL1        0.0662
      4 N          -8.4122  -18.7939   22.3530 N.ar    1  UNL1       -0.2306
      5 C          -9.2569  -17.6963   22.9288 C.ar    1  UNL1        0.1615
      6 N          -8.6059  -16.5040   23.5648 N.ar    1  UNL1       -0.2309
      7 C         -10.7528  -17.7910   22.8687 C.ar    1  UNL1        0.0366
      8 C         -11.4678  -17.5518   21.5720 C.ar    1  UNL1        0.0031
      9 C         -12.9637  -17.6465   21.5118 C.ar    1  UNL1        0.0010
     10 C         -13.7444  -17.9804   22.7484 C.ar    1  UNL1        0.0114
     11 C         -13.0292  -18.2195   24.0451 C.ar    1  UNL1        0.0578
     12 CL        -13.8099  -18.5534   25.2816 Cl      1  UNL1       -0.0822
     13 C         -11.5335  -18.1249   24.1052 C.ar    1  UNL1        0.0144
     14 C          -5.7990  -15.3489   25.6015 C.3     1  UNL1        0.0067
     15 C          -6.4591  -15.2170   24.2610 C.3     1  UNL1        0.0459
     16 C          -6.0716  -19.7969   21.8373 C.3     1  UNL1        0.0721
     17 C          -4.7210  -19.4823   21.2655 C.ar    1  UNL1       -0.0162
     18 C          -4.5939  -19.0566   19.8327 C.ar    1  UNL1       -0.0042
     19 C          -3.2433  -18.7420   19.2609 C.ar    1  UNL1       -0.0041
     20 C          -2.0199  -18.8532   20.1218 C.ar    1  UNL1       -0.0131
     21 C          -2.1471  -19.2789   21.5544 C.ar    1  UNL1       -0.0041
     22 C          -3.4977  -19.5935   22.1263 C.ar    1  UNL1       -0.0042
     23 C          -0.6693  -18.5386   19.5499 C.3     1  UNL1        0.1111
     24 C           0.2215  -17.5441   20.2336 C.2     1  UNL1        0.2238
     25 N          -0.2351  -16.1265   20.4120 N.am    1  UNL1       -0.3285
     26 O           1.5689  -17.9672   20.7390 O.2     1  UNL1       -0.2750
     27 H          -1.1195  -15.8488   20.0803 H       1  UNL1        0.1450
     28 H           0.3495  -15.4737   20.8607 H       1  UNL1        0.1450
@<TRIPOS>BOND
     1    14    15    1
     2    15     1    1
     3     1     2   ar
     4     2     3   ar
     5     3    16    1
     6    16    17    1
     7    17    18   ar
     8    18    19   ar
     9    19    20   ar
    10    20    23    1
    11    23    24    1
    12    24    25   am
    13    24    26    2
    14    20    21   ar
    15    21    22   ar
    16     3     4   ar
    17     4     5   ar
    18     5     7    1
    19     7     8   ar
    20     8     9   ar
    21     9    10   ar
    22    10    11   ar
    23    11    12    1
    24    11    13   ar
    25     5     6   ar
    26     6     1   ar
    27    22    17   ar
    28    13     7   ar
    29    25    27    1
    30    25    28    1
@<TRIPOS>MOLECULE
*****
 28 30 0 0 0
SMALL
GASTEIGER

@<TRIPOS>ATOM
      1 C          -5.4176  -19.1128   20.6418 C.ar    1  UNL1        0.0618
      2 C          -6.8026  -19.5021   20.2173 C.ar    1  UNL1        0.0298
      3 C          -7.9908  -18.9981   20.9815 C.ar    1  UNL1        0.0662
      4 N          -7.7941  -18.1048   22.1703 N.ar    1  UNL1       -0.2306
      5 C          -6.4092  -17.7154   22.5948 C.ar    1  UNL1        0.1615
      6 N          -5.2209  -18.2194   21.8306 N.ar    1  UNL1       -0.2309
      7 C          -6.2124  -16.8220   23.7836 C.ar    1  UNL1        0.0366
      8 C          -4.8517  -16.2702   24.0900 C.ar    1  UNL1        0.0031
      9 C          -4.6549  -15.3768   25.2789 C.ar    1  UNL1        0.0010
     10 C          -5.8189  -15.0353   26.1612 C.ar    1  UNL1        0.0114
     11 C          -7.1796  -15.5872   25.8547 C.ar    1  UNL1        0.0578
     12 CL         -8.3436  -15.2457   26.7371 Cl      1  UNL1       -0.0822
     13 C          -7.3764  -16.4805   24.6660 C.ar    1  UNL1        0.0144
     14 C          -3.1200  -18.6764   19.5103 C.3     1  UNL1        0.0067
     15 C          -4.2294  -19.6168   19.8776 C.3     1  UNL1        0.0459
     16 C          -9.3758  -19.3875   20.5570 C.3     1  UNL1        0.0721
     17 C         -10.5626  -18.9083   21.3392 C.ar    1  UNL1       -0.0162
     18 C         -11.5291  -17.9428   20.7196 C.ar    1  UNL1       -0.0042
     19 C         -12.7159  -17.4636   21.5018 C.ar    1  UNL1       -0.0041
     20 C         -12.9362  -17.9499   22.9037 C.ar    1  UNL1       -0.0131
     21 C         -11.9697  -18.9152   23.5232 C.ar    1  UNL1       -0.0041
     22 C         -10.7829  -19.3945   22.7410 C.ar    1  UNL1       -0.0042
     23 C         -14.1230  -17.4706   23.6859 C.3     1  UNL1        0.1111
     24 C         -14.7709  -18.3730   24.6940 C.2     1  UNL1        0.2238
     25 N         -14.2225  -18.4565   26.0876 N.am    1  UNL1       -0.3285
     26 O         -15.9670  -19.1918   24.3083 O.2     1  UNL1       -0.2750
     27 H         -13.4374  -17.9191   26.3407 H       1  UNL1        0.1450
     28 H         -14.6477  -19.0487   26.7493 H       1  UNL1        0.1450
@<TRIPOS>BOND
     1    14    15    1
     2    15     1    1
     3     1     2   ar
     4     2     3   ar
     5     3    16    1
     6    16    17    1
     7    17    18   ar
     8    18    19   ar
     9    19    20   ar
    10    20    23    1
    11    23    24    1
    12    24    25   am
    13    24    26    2
    14    20    21   ar
    15    21    22   ar
    16     3     4   ar
    17     4     5   ar
    18     5     7    1
    19     7     8   ar
    20     8     9   ar
    21     9    10   ar
    22    10    11   ar
    23    11    12    1
    24    11    13   ar
    25     5     6   ar
    26     6     1   ar
    27    22    17   ar
    28    13     7   ar
    29    25    27    1
    30    25    28    1
@<TRIPOS>MOLECULE
*****
 28 30 0 0 0
SMALL
GASTEIGER

@<TRIPOS>ATOM
      1 C          -6.6751  -16.3276   23.7113 C.ar    1  UNL1        0.0618
      2 C          -5.8704  -17.4606   23.1468 C.ar    1  UNL1        0.0298
      3 C          -6.5419  -18.5217   22.3264 C.ar    1  UNL1        0.0662
      4 N          -8.0181  -18.4499   22.0705 N.ar    1  UNL1       -0.2306
      5 C          -8.8229  -17.3169   22.6350 C.ar    1  UNL1        0.1615
      6 N          -8.1514  -16.2558   23.4554 N.ar    1  UNL1       -0.2309
      7 C         -10.2992  -17.2450   22.3791 C.ar    1  UNL1        0.0366
      8 C         -11.2593  -17.8731   23.3454 C.ar    1  UNL1        0.0031
      9 C         -12.7356  -17.8012   23.0895 C.ar    1  UNL1        0.0010
     10 C         -13.2517  -17.1013   21.8673 C.ar    1  UNL1        0.0114
     11 C         -12.2915  -16.4732   20.9011 C.ar    1  UNL1        0.0578
     12 CL        -12.8077  -15.7732   19.6789 Cl      1  UNL1       -0.0822
     13 C         -10.8153  -16.5451   21.1570 C.ar    1  UNL1        0.0144
     14 C          -5.4570  -15.6007   25.8879 C.3     1  UNL1        0.0067
     15 C          -6.0037  -15.2664   24.5317 C.3     1  UNL1        0.0459
     16 C          -5.7371  -19.6547   21.7619 C.3     1  UNL1        0.0721
     17 C          -4.3597  -19.4015   21.2244 C.ar    1  UNL1       -0.0162
     18 C          -4.1758  -19.0051   19.7895 C.ar    1  UNL1       -0.0042
     19 C          -2.7984  -18.7519   19.2520 C.ar    1  UNL1       -0.0041
     20 C          -1.6051  -18.8951   20.1496 C.ar    1  UNL1       -0.0131
     21 C          -1.7891  -19.2914   21.5845 C.ar    1  UNL1       -0.0041
     22 C          -3.1664  -19.5447   22.1219 C.ar    1  UNL1       -0.0042
     23 C          -0.2278  -18.6418   19.6121 C.3     1  UNL1        0.1111
     24 C           0.6153  -17.5468   20.1954 C.2     1  UNL1        0.2238
     25 N           0.1559  -16.1213   20.1121 N.am    1  UNL1       -0.3285
     26 O           1.9178  -17.8773   20.8620 O.2     1  UNL1       -0.2750
     27 H          -0.6990  -15.9044   19.6746 H       1  UNL1        0.1450
     28 H           0.7092  -15.4026   20.4950 H       1  UNL1        0.1450
@<TRIPOS>BOND
     1    14    15    1
     2    15     1    1
     3     1     2   ar
     4     2     3   ar
     5     3    16    1
     6    16    17    1
     7    17    18   ar
     8    18    19   ar
     9    19    20   ar
    10    20    23    1
    11    23    24    1
    12    24    25   am
    13    24    26    2
    14    20    21   ar
    15    21    22   ar
    16     3     4   ar
    17     4     5   ar
    18     5     7    1
    19     7     8   ar
    20     8     9   ar
    21     9    10   ar
    22    10    11   ar
    23    11    12    1
    24    11    13   ar
    25     5     6   ar
    26     6     1   ar
    27    22    17   ar
    28    13     7   ar
    29    25    27    1
    30    25    28    1
@<TRIPOS>MOLECULE
*****
 28 30 0 0 0
SMALL
GASTEIGER

@<TRIPOS>ATOM
      1 C          -2.8856  -18.2091   21.4258 C.ar    1  UNL1        0.0618
      2 C          -3.8397  -19.0500   20.6305 C.ar    1  UNL1        0.0298
      3 C          -5.2979  -19.0655   20.9817 C.ar    1  UNL1        0.0662
      4 N          -5.8021  -18.2402   22.1283 N.ar    1  UNL1       -0.2306
      5 C          -4.8480  -17.3994   22.9237 C.ar    1  UNL1        0.1615
      6 N          -3.3898  -17.3838   22.5724 N.ar    1  UNL1       -0.2309
      7 C          -5.3521  -16.5741   24.0703 C.ar    1  UNL1        0.0366
      8 C          -4.3954  -16.0724   25.1110 C.ar    1  UNL1        0.0031
      9 C          -4.8995  -15.2471   26.2577 C.ar    1  UNL1        0.0010
     10 C          -6.3604  -14.9234   26.3636 C.ar    1  UNL1        0.0114
     11 C          -7.3171  -15.4251   25.3228 C.ar    1  UNL1        0.0578
     12 CL         -8.7779  -15.1015   25.4288 Cl      1  UNL1       -0.0822
     13 C          -6.8129  -16.2504   24.1762 C.ar    1  UNL1        0.0144
     14 C          -1.0005  -17.9742   19.6535 C.3     1  UNL1        0.0067
     15 C          -1.4274  -18.1936   21.0746 C.3     1  UNL1        0.0459
     16 C          -6.2520  -19.9064   20.1862 C.3     1  UNL1        0.0721
     17 C          -7.7313  -19.7114   20.3401 C.ar    1  UNL1       -0.0162
     18 C          -8.6164  -19.7009   19.1290 C.ar    1  UNL1       -0.0042
     19 C         -10.0957  -19.5059   19.2828 C.ar    1  UNL1       -0.0041
     20 C         -10.6899  -19.3212   20.6477 C.ar    1  UNL1       -0.0131
     21 C          -9.8048  -19.3317   21.8587 C.ar    1  UNL1       -0.0041
     22 C          -8.3256  -19.5267   21.7049 C.ar    1  UNL1       -0.0042
     23 C         -12.1692  -19.1262   20.8015 C.3     1  UNL1        0.1111
     24 C         -12.6996  -17.8624   21.4112 C.2     1  UNL1        0.2238
     25 N         -13.0945  -17.8360   22.8581 N.am    1  UNL1       -0.3285
     26 O         -12.8352  -16.6252   20.5741 O.2     1  UNL1       -0.2750
     27 H         -13.0056  -18.6481   23.4075 H       1  UNL1        0.1450
     28 H         -13.4427  -17.0066   23.2583 H       1  UNL1        0.1450
@<TRIPOS>BOND
     1    14    15    1
     2    15     1    1
     3     1     2   ar
     4     2     3   ar
     5     3    16    1
     6    16    17    1
     7    17    18   ar
     8    18    19   ar
     9    19    20   ar
    10    20    23    1
    11    23    24    1
    12    24    25   am
    13    24    26    2
    14    20    21   ar
    15    21    22   ar
    16     3     4   ar
    17     4     5   ar
    18     5     7    1
    19     7     8   ar
    20     8     9   ar
    21     9    10   ar
    22    10    11   ar
    23    11    12    1
    24    11    13   ar
    25     5     6   ar
    26     6     1   ar
    27    22    17   ar
    28    13     7   ar
    29    25    27    1
    30    25    28    1
@<TRIPOS>MOLECULE
*****
 28 30 0 0 0
SMALL
GASTEIGER

@<TRIPOS>ATOM
      1 C          -2.8022  -18.2282   20.0445 C.ar    1  UNL1        0.0618
      2 C          -3.9220  -19.0336   19.4551 C.ar    1  UNL1        0.0298
      3 C          -5.1923  -19.2300   20.2283 C.ar    1  UNL1        0.0662
      4 N          -5.3428  -18.6210   21.5908 N.ar    1  UNL1       -0.2306
      5 C          -4.2230  -17.8156   22.1801 C.ar    1  UNL1        0.1615
      6 N          -2.9527  -17.6192   21.4069 N.ar    1  UNL1       -0.2309
      7 C          -4.3735  -17.2065   23.5426 C.ar    1  UNL1        0.0366
      8 C          -5.1339  -15.9246   23.7113 C.ar    1  UNL1        0.0031
      9 C          -5.2844  -15.3155   25.0739 C.ar    1  UNL1        0.0010
     10 C          -4.6744  -15.9884   26.2677 C.ar    1  UNL1        0.0114
     11 C          -3.9139  -17.2703   26.0989 C.ar    1  UNL1        0.0578
     12 CL         -3.3039  -17.9432   27.2927 Cl      1  UNL1       -0.0822
     13 C          -3.7635  -17.8793   24.7364 C.ar    1  UNL1        0.0144
     14 C          -0.2608  -17.6915   19.9912 C.3     1  UNL1        0.0067
     15 C          -1.5319  -18.0319   19.2713 C.3     1  UNL1        0.0459
     16 C          -6.3122  -20.0354   19.6389 C.3     1  UNL1        0.0721
     17 C          -7.7331  -19.7245   20.0052 C.ar    1  UNL1       -0.0162
     18 C          -8.0845  -19.3820   21.4227 C.ar    1  UNL1       -0.0042
     19 C          -9.5055  -19.0711   21.7890 C.ar    1  UNL1       -0.0041
     20 C         -10.5751  -19.1028   20.7377 C.ar    1  UNL1       -0.0131
     21 C         -10.2237  -19.4453   19.3203 C.ar    1  UNL1       -0.0041
     22 C          -8.8027  -19.7562   18.9540 C.ar    1  UNL1       -0.0042
     23 C         -11.9961  -18.7919   21.1040 C.3     1  UNL1        0.1111
     24 C         -12.3938  -17.3847   21.4384 C.2     1  UNL1        0.2238
     25 N         -12.6429  -16.3946   20.3395 N.am    1  UNL1       -0.3285
     26 O         -12.5422  -16.9677   22.8715 O.2     1  UNL1       -0.2750
     27 H         -12.5455  -16.6683   19.3988 H       1  UNL1        0.1450
     28 H         -12.9039  -15.4710   20.5589 H       1  UNL1        0.1450
@<TRIPOS>BOND
     1    14    15    1
     2    15     1    1
     3     1     2   ar
     4     2     3   ar
     5     3    16    1
     6    16    17    1
     7    17    18   ar
     8    18    19   ar
     9    19    20   ar
    10    20    23    1
    11    23    24    1
    12    24    25   am
    13    24    26    2
    14    20    21   ar
    15    21    22   ar
    16     3     4   ar
    17     4     5   ar
    18     5     7    1
    19     7     8   ar
    20     8     9   ar
    21     9    10   ar
    22    10    11   ar
    23    11    12    1
    24    11    13   ar
    25     5     6   ar
    26     6     1   ar
    27    22    17   ar
    28    13     7   ar
    29    25    27    1
    30    25    28    1
@<TRIPOS>MOLECULE
*****
 28 30 0 0 0
SMALL
GASTEIGER

@<TRIPOS>ATOM
      1 C          -8.5029  -16.3150   22.1668 C.ar    1  UNL1        0.0618
      2 C          -7.5960  -17.5079   22.1009 C.ar    1  UNL1        0.0298
      3 C          -8.1398  -18.8794   22.3717 C.ar    1  UNL1        0.0662
      4 N          -9.5905  -19.0580   22.7086 N.ar    1  UNL1       -0.2306
      5 C         -10.4974  -17.8651   22.7746 C.ar    1  UNL1        0.1615
      6 N          -9.9537  -16.4936   22.5037 N.ar    1  UNL1       -0.2309
      7 C         -11.9482  -18.0436   23.1114 C.ar    1  UNL1        0.0366
      8 C         -12.9775  -18.0395   22.0203 C.ar    1  UNL1        0.0031
      9 C         -14.4283  -18.2181   22.3572 C.ar    1  UNL1        0.0010
     10 C         -14.8497  -18.4006   23.7852 C.ar    1  UNL1        0.0114
     11 C         -13.8203  -18.4047   24.8763 C.ar    1  UNL1        0.0578
     12 CL        -14.2418  -18.5873   26.3042 Cl      1  UNL1       -0.0822
     13 C         -12.3696  -18.2262   24.5394 C.ar    1  UNL1        0.0144
     14 C          -8.4329  -14.1716   20.7004 C.3     1  UNL1        0.0067
     15 C          -7.9592  -14.9436   21.8960 C.3     1  UNL1        0.0459
     16 C          -7.2328  -20.0724   22.3057 C.3     1  UNL1        0.0721
     17 C          -5.8275  -19.9192   21.8041 C.ar    1  UNL1       -0.0162
     18 C          -4.8043  -19.2128   22.6434 C.ar    1  UNL1       -0.0042
     19 C          -3.3990  -19.0596   22.1418 C.ar    1  UNL1       -0.0041
     20 C          -3.0168  -19.6128   20.8008 C.ar    1  UNL1       -0.0131
     21 C          -4.0400  -20.3191   19.9616 C.ar    1  UNL1       -0.0041
     22 C          -5.4453  -20.4723   20.4632 C.ar    1  UNL1       -0.0042
     23 C          -1.6115  -19.4596   20.2992 C.3     1  UNL1        0.1111
     24 C          -1.1726  -18.1650   19.6816 C.2     1  UNL1        0.2238
     25 N          -0.6120  -17.0741   20.5452 N.am    1  UNL1       -0.3285
     26 O          -1.2942  -17.9613   18.2005 O.2     1  UNL1       -0.2750
     27 H          -0.5321  -17.2078   21.5173 H       1  UNL1        0.1450
     28 H          -0.3239  -16.2244   20.1398 H       1  UNL1        0.1450
@<TRIPOS>BOND
     1    14    15    1
     2    15     1    1
     3     1     2   ar
     4     2     3   ar
     5     3    16    1
     6    16    17    1
     7    17    18   ar
     8    18    19   ar
     9    19    20   ar
    10    20    23    1
    11    23    24    1
    12    24    25   am
    13    24    26    2
    14    20    21   ar
    15    21    22   ar
    16     3     4   ar
    17     4     5   ar
    18     5     7    1
    19     7     8   ar
    20     8     9   ar
    21     9    10   ar
    22    10    11   ar
    23    11    12    1
    24    11    13   ar
    25     5     6   ar
    26     6     1   ar
    27    22    17   ar
    28    13     7   ar
    29    25    27    1
    30    25    28    1
@<TRIPOS>MOLECULE
*****
 28 30 0 0 0
SMALL
GASTEIGER

@<TRIPOS>ATOM
      1 C          -7.0382  -16.0163   24.3443 C.ar    1  UNL1        0.0618
      2 C          -6.1086  -17.1030   23.8919 C.ar    1  UNL1        0.0298
      3 C          -6.5967  -18.1639   22.9505 C.ar    1  UNL1        0.0662
      4 N          -8.0144  -18.1380   22.4614 N.ar    1  UNL1       -0.2306
      5 C          -8.9441  -17.0512   22.9138 C.ar    1  UNL1        0.1615
      6 N          -8.4560  -15.9904   23.8552 N.ar    1  UNL1       -0.2309
      7 C         -10.3619  -17.0253   22.4247 C.ar    1  UNL1        0.0366
      8 C         -11.4544  -17.6246   23.2597 C.ar    1  UNL1        0.0031
      9 C         -12.8722  -17.5986   22.7707 C.ar    1  UNL1        0.0010
     10 C         -13.1975  -16.9734   21.4465 C.ar    1  UNL1        0.0114
     11 C         -12.1049  -16.3742   20.6115 C.ar    1  UNL1        0.0578
     12 CL        -12.4302  -15.7490   19.2874 Cl      1  UNL1       -0.0822
     13 C         -10.6872  -16.4001   21.1006 C.ar    1  UNL1        0.0144
     14 C          -5.2034  -15.0887   25.9327 C.3     1  UNL1        0.0067
     15 C          -6.5501  -14.9554   25.2857 C.3     1  UNL1        0.0459
     16 C          -5.6670  -19.2507   22.4982 C.3     1  UNL1        0.0721
     17 C          -4.5642  -18.9396   21.5301 C.ar    1  UNL1       -0.0162
     18 C          -3.2332  -18.4677   22.0359 C.ar    1  UNL1       -0.0042
     19 C          -2.1304  -18.1565   21.0678 C.ar    1  UNL1       -0.0041
     20 C          -2.3587  -18.3173   19.5940 C.ar    1  UNL1       -0.0131
     21 C          -3.6897  -18.7892   19.0883 C.ar    1  UNL1       -0.0041
     22 C          -4.7924  -19.1003   20.0564 C.ar    1  UNL1       -0.0042
     23 C          -1.2560  -18.0062   18.6259 C.3     1  UNL1        0.1111
     24 C          -1.5849  -17.5210   17.2451 C.2     1  UNL1        0.2238
     25 N          -0.8558  -18.0811   16.0599 N.am    1  UNL1       -0.3285
     26 O          -2.6427  -16.4757   17.0496 O.2     1  UNL1       -0.2750
     27 H          -0.1615  -18.7672   16.1882 H       1  UNL1        0.1450
     28 H          -1.0716  -17.7627   15.1537 H       1  UNL1        0.1450
@<TRIPOS>BOND
     1    14    15    1
     2    15     1    1
     3     1     2   ar
     4     2     3   ar
     5     3    16    1
     6    16    17    1
     7    17    18   ar
     8    18    19   ar
     9    19    20   ar
    10    20    23    1
    11    23    24    1
    12    24    25   am
    13    24    26    2
    14    20    21   ar
    15    21    22   ar
    16     3     4   ar
    17     4     5   ar
    18     5     7    1
    19     7     8   ar
    20     8     9   ar
    21     9    10   ar
    22    10    11   ar
    23    11    12    1
    24    11    13   ar
    25     5     6   ar
    26     6     1   ar
    27    22    17   ar
    28    13     7   ar
    29    25    27    1
    30    25    28    1
@<TRIPOS>MOLECULE
*****
 28 30 0 0 0
SMALL
GASTEIGER

@<TRIPOS>ATOM
      1 C           1.9739    1.7233   38.4036 C.ar    1  UNL1        0.0618
      2 C           3.3027    1.0924   38.1098 C.ar    1  UNL1        0.0298
      3 C           4.1428    1.6058   36.9782 C.ar    1  UNL1        0.0662
      4 N           3.6543    2.7500   36.1404 N.ar    1  UNL1       -0.2306
      5 C           2.3255    3.3809   36.4342 C.ar    1  UNL1        0.1615
      6 N           1.4854    2.8675   37.5658 N.ar    1  UNL1       -0.2309
      7 C           1.8369    4.5252   35.5964 C.ar    1  UNL1        0.0366
      8 C           1.8141    5.9137   36.1633 C.ar    1  UNL1        0.0031
      9 C           1.3255    7.0580   35.3255 C.ar    1  UNL1        0.0010
     10 C           0.8596    6.8137   33.9208 C.ar    1  UNL1        0.0114
     11 C           0.8824    5.4251   33.3538 C.ar    1  UNL1        0.0578
     12 CL          0.4166    5.1808   31.9491 Cl      1  UNL1       -0.0822
     13 C           1.3711    4.2809   34.1916 C.ar    1  UNL1        0.0144
     14 C           1.1269   -0.2544   39.8600 C.3     1  UNL1        0.0067
     15 C           1.1337    1.2099   39.5353 C.3     1  UNL1        0.0459
     16 C           5.4717    0.9748   36.6844 C.3     1  UNL1        0.0721
     17 C           5.6311    0.0850   35.4874 C.ar    1  UNL1       -0.0162
     18 C           6.8897    0.1415   34.6732 C.ar    1  UNL1       -0.0042
     19 C           7.0491   -0.7483   33.4762 C.ar    1  UNL1       -0.0041
     20 C           5.9500   -1.6947   33.0934 C.ar    1  UNL1       -0.0131
     21 C           4.6916   -1.7512   33.9077 C.ar    1  UNL1       -0.0041
     22 C           4.5321   -0.8614   35.1047 C.ar    1  UNL1       -0.0042
     23 C           6.1095   -2.5845   31.8965 C.3     1  UNL1        0.1111
     24 C           6.9159   -3.8450   32.0011 C.2     1  UNL1        0.2238
     25 N           6.2834   -5.0984   32.5293 N.am    1  UNL1       -0.3285
     26 O           8.3548   -3.8521   31.5775 O.2     1  UNL1       -0.2750
     27 H           5.3390   -5.0937   32.8074 H       1  UNL1        0.1450
     28 H           6.8127   -5.9256   32.5980 H       1  UNL1        0.1450
@<TRIPOS>BOND
     1    14    15    1
     2    15     1    1
     3     1     2   ar
     4     2     3   ar
     5     3    16    1
     6    16    17    1
     7    17    18   ar
     8    18    19   ar
     9    19    20   ar
    10    20    23    1
    11    23    24    1
    12    24    25   am
    13    24    26    2
    14    20    21   ar
    15    21    22   ar
    16     3     4   ar
    17     4     5   ar
    18     5     7    1
    19     7     8   ar
    20     8     9   ar
    21     9    10   ar
    22    10    11   ar
    23    11    12    1
    24    11    13   ar
    25     5     6   ar
    26     6     1   ar
    27    22    17   ar
    28    13     7   ar
    29    25    27    1
    30    25    28    1
