@<TRIPOS>MOLECULE
*****
 35 38 0 0 0
SMALL
GASTEIGER

@<TRIPOS>ATOM
      1 C           0.1113    3.5027   19.4842 C.ar    1  UNL1        0.0635
      2 C           0.8327    2.2002   19.3023 C.ar    1  UNL1        0.0171
      3 C           2.2874    2.0932   19.6527 C.ar    1  UNL1        0.0190
      4 C           3.0204    3.2887   20.1849 C.ar    1  UNL1        0.0023
      5 C           2.2990    4.5912   20.3668 C.ar    1  UNL1        0.0116
      6 C           0.8444    4.6982   20.0164 C.ar    1  UNL1        0.0821
      7 C           3.0088    0.7907   19.4708 C.ar    1  UNL1        0.0829
      8 C           2.6529   -0.5127   20.1223 C.ar    1  UNL1        0.0246
      9 C           3.6369   -1.5459   19.6597 C.ar    1  UNL1        0.0933
     10 C           4.6009   -0.8811   18.7222 C.ar    1  UNL1        0.1178
     11 C           5.7820   -1.4042   17.9598 C.ar    1  UNL1        0.1450
     12 N           6.1703   -2.8484   18.0765 N.pl3   1  UNL1       -0.3414
     13 N           6.5749   -0.4831   17.0807 N.ar    1  UNL1       -0.2065
     14 C           6.1867    0.9611   16.9640 C.ar    1  UNL1        0.2211
     15 N           5.0055    1.4841   17.7264 N.ar    1  UNL1       -0.1422
     16 N           4.2127    0.5630   18.6055 N.ar    1  UNL1       -0.2255
     17 H           5.6499   -3.4529   18.6535 H       1  UNL1        0.1438
     18 H           6.9455   -3.1917   17.5761 H       1  UNL1        0.1438
     19 C           3.6540   -2.9905   20.0635 C.3     1  UNL1        0.4201
     20 F           3.6711   -4.4350   20.4673 F       1  UNL1       -0.1658
     21 F           3.1784   -3.3787   18.6949 F       1  UNL1       -0.1658
     22 F           4.1296   -2.6023   21.4320 F       1  UNL1       -0.1658
     23 C          -3.6192    4.4072   15.9820 C.3     1  UNL1        0.0338
     24 C          -3.2085    4.0619   17.3827 C.3     1  UNL1        0.1341
     25 O          -4.2525    3.8235   18.4331 O.3     1  UNL1       -0.3507
     26 C          -3.8418    3.4781   19.8339 C.3     1  UNL1        0.1612
     27 C          -5.3337    3.4633   19.9887 C.3     1  UNL1        0.0391
     28 C          -3.9493    3.1276   21.2884 C.3     1  UNL1        0.0391
     29 C          -2.3872    3.3712   20.1842 C.2     1  UNL1        0.2537
     30 O          -1.9765    3.0258   21.5849 O.2     1  UNL1       -0.2720
     31 N          -1.3433    3.6097   19.1338 N.am    1  UNL1       -0.2554
     32 C          -1.7539    3.9550   17.7330 C.3     1  UNL1        0.1070
     33 C          -0.7100    4.1935   16.6826 C.3     1  UNL1        0.0245
     34 C           0.1230    6.0007   20.1983 C.1     1  UNL1        0.1017
     35 N          -0.5985    7.3031   20.3801 N.1     1  UNL1       -0.1908
@<TRIPOS>BOND
     1    24    23    1
     2    24    25    1
     3    25    26    1
     4    26    27    1
     5    26    28    1
     6    26    29    1
     7    29    30    2
     8    29    31   am
     9    31     1    1
    10     1     2   ar
    11     2     3   ar
    12     3     7    1
    13     7     8   ar
    14     8     9   ar
    15     9    19    1
    16    19    20    1
    17    19    21    1
    18    19    22    1
    19     9    10   ar
    20    10    11   ar
    21    11    12    1
    22    11    13   ar
    23    13    14   ar
    24    14    15   ar
    25    15    16   ar
    26     3     4   ar
    27     4     5   ar
    28     5     6   ar
    29     6    34    1
    30    34    35    3
    31    31    32    1
    32    32    33    1
    33    32    24    1
    34     6     1   ar
    35    16     7   ar
    36    16    10   ar
    37    12    17    1
    38    12    18    1
@<TRIPOS>MOLECULE
*****
 35 38 0 0 0
SMALL
GASTEIGER

@<TRIPOS>ATOM
      1 C           6.1632   -2.3741   21.2483 C.ar    1  UNL1        0.0635
      2 C           6.2382   -3.0839   22.5676 C.ar    1  UNL1        0.0171
      3 C           7.2109   -4.2096   22.7594 C.ar    1  UNL1        0.0190
      4 C           8.1085   -4.6255   21.6319 C.ar    1  UNL1        0.0023
      5 C           8.0335   -3.9157   20.3126 C.ar    1  UNL1        0.0116
      6 C           7.0609   -2.7900   20.1208 C.ar    1  UNL1        0.0821
      7 C           7.2859   -4.9194   24.0787 C.ar    1  UNL1        0.0829
      8 C           7.7631   -6.3245   24.2981 C.ar    1  UNL1        0.0246
      9 C           7.6690   -6.6221   25.7653 C.ar    1  UNL1        0.0933
     10 C           7.1336   -5.4011   26.4526 C.ar    1  UNL1        0.1178
     11 C           6.8311   -5.1115   27.8929 C.ar    1  UNL1        0.1450
     12 N           7.0678   -6.1639   28.9353 N.pl3   1  UNL1       -0.3414
     13 N           6.2918   -3.7696   28.2909 N.ar    1  UNL1       -0.2065
     14 C           6.0550   -2.7173   27.2485 C.ar    1  UNL1        0.2211
     15 N           6.3576   -3.0068   25.8082 N.ar    1  UNL1       -0.1422
     16 N           6.8968   -4.3487   25.4102 N.ar    1  UNL1       -0.2255
     17 H           7.4218   -7.0446   28.6741 H       1  UNL1        0.1438
     18 H           6.8693   -5.9738   29.8806 H       1  UNL1        0.1438
     19 C           8.0443   -7.9140   26.4287 C.3     1  UNL1        0.4201
     20 F           8.4196   -9.2060   27.0921 F       1  UNL1       -0.1658
     21 F           6.6414   -8.4137   26.2494 F       1  UNL1       -0.1658
     22 F           9.4472   -7.4145   26.6079 F       1  UNL1       -0.1658
     23 C           1.4977   -0.6687   19.7239 C.3     1  UNL1        0.0338
     24 C           2.8578   -0.3958   20.2943 C.3     1  UNL1        0.1341
     25 O           3.2453    1.0030   20.6731 O.3     1  UNL1       -0.3507
     26 C           4.6054    1.2760   21.2436 C.3     1  UNL1        0.1612
     27 C           4.0366    2.6639   21.2509 C.3     1  UNL1        0.0391
     28 C           5.7680    2.0310   21.8166 C.3     1  UNL1        0.0391
     29 C           5.5781    0.1502   21.4353 C.2     1  UNL1        0.2537
     30 O           6.9383    0.4232   22.0058 O.2     1  UNL1       -0.2720
     31 N           5.1906   -1.2485   21.0565 N.am    1  UNL1       -0.2554
     32 C           3.8304   -1.5215   20.4860 C.3     1  UNL1        0.1070
     33 C           3.4429   -2.9202   20.1073 C.3     1  UNL1        0.0245
     34 C           6.9859   -2.0802   18.8015 C.1     1  UNL1        0.1017
     35 N           6.9110   -1.3705   17.4821 N.1     1  UNL1       -0.1908
@<TRIPOS>BOND
     1    24    23    1
     2    24    25    1
     3    25    26    1
     4    26    27    1
     5    26    28    1
     6    26    29    1
     7    29    30    2
     8    29    31   am
     9    31     1    1
    10     1     2   ar
    11     2     3   ar
    12     3     7    1
    13     7     8   ar
    14     8     9   ar
    15     9    19    1
    16    19    20    1
    17    19    21    1
    18    19    22    1
    19     9    10   ar
    20    10    11   ar
    21    11    12    1
    22    11    13   ar
    23    13    14   ar
    24    14    15   ar
    25    15    16   ar
    26     3     4   ar
    27     4     5   ar
    28     5     6   ar
    29     6    34    1
    30    34    35    3
    31    31    32    1
    32    32    33    1
    33    32    24    1
    34     6     1   ar
    35    16     7   ar
    36    16    10   ar
    37    12    17    1
    38    12    18    1
@<TRIPOS>MOLECULE
*****
 35 38 0 0 0
SMALL
GASTEIGER

@<TRIPOS>ATOM
      1 C           6.1571   -2.2686   21.2823 C.ar    1  UNL1        0.0635
      2 C           6.2208   -2.9719   22.6057 C.ar    1  UNL1        0.0171
      3 C           7.1526   -4.1323   22.7944 C.ar    1  UNL1        0.0190
      4 C           8.0206   -4.5892   21.6597 C.ar    1  UNL1        0.0023
      5 C           7.9569   -3.8859   20.3363 C.ar    1  UNL1        0.0116
      6 C           7.0252   -2.7256   20.1476 C.ar    1  UNL1        0.0821
      7 C           7.2162   -4.8356   24.1177 C.ar    1  UNL1        0.0829
      8 C           7.6865   -6.2413   24.3474 C.ar    1  UNL1        0.0246
      9 C           7.5816   -6.5311   25.8154 C.ar    1  UNL1        0.0933
     10 C           7.0466   -5.3045   26.4930 C.ar    1  UNL1        0.1178
     11 C           6.7358   -5.0064   27.9298 C.ar    1  UNL1        0.1450
     12 N           6.9617   -6.0543   28.9791 N.pl3   1  UNL1       -0.3414
     13 N           6.1993   -3.6603   28.3174 N.ar    1  UNL1       -0.2065
     14 C           5.9734   -2.6124   27.2682 C.ar    1  UNL1        0.2211
     15 N           6.2841   -2.9106   25.8314 N.ar    1  UNL1       -0.1422
     16 N           6.8207   -4.2566   25.4438 N.ar    1  UNL1       -0.2255
     17 H           7.3139   -6.9377   28.7247 H       1  UNL1        0.1438
     18 H           6.7577   -5.8586   29.9221 H       1  UNL1        0.1438
     19 C           7.9476   -7.8210   26.4878 C.3     1  UNL1        0.4201
     20 F           8.3136   -9.1110   27.1602 F       1  UNL1       -0.1658
     21 F           9.3197   -7.2847   26.7700 F       1  UNL1       -0.1658
     22 F           6.5756   -8.3574   26.2056 F       1  UNL1       -0.1658
     23 C           5.1895    2.8258   21.6139 C.3     1  UNL1        0.0338
     24 C           4.7415    1.4388   21.2595 C.3     1  UNL1        0.1341
     25 O           3.3617    1.2122   20.7165 O.3     1  UNL1       -0.3507
     26 C           2.9138   -0.1748   20.3621 C.3     1  UNL1        0.1612
     27 C           1.6773    0.5967   20.0076 C.3     1  UNL1        0.0391
     28 C           2.0364   -1.2938   19.8845 C.3     1  UNL1        0.0391
     29 C           3.8457   -1.3351   20.5507 C.2     1  UNL1        0.2537
     30 O           3.3977   -2.7221   20.1963 O.2     1  UNL1       -0.2720
     31 N           5.2254   -1.1084   21.0937 N.am    1  UNL1       -0.2554
     32 C           5.6733    0.2786   21.4481 C.3     1  UNL1        0.1070
     33 C           7.0531    0.5054   21.9912 C.3     1  UNL1        0.0245
     34 C           6.9616   -2.0223   18.8242 C.1     1  UNL1        0.1017
     35 N           6.8981   -1.3191   17.5009 N.1     1  UNL1       -0.1908
@<TRIPOS>BOND
     1    24    23    1
     2    24    25    1
     3    25    26    1
     4    26    27    1
     5    26    28    1
     6    26    29    1
     7    29    30    2
     8    29    31   am
     9    31     1    1
    10     1     2   ar
    11     2     3   ar
    12     3     7    1
    13     7     8   ar
    14     8     9   ar
    15     9    19    1
    16    19    20    1
    17    19    21    1
    18    19    22    1
    19     9    10   ar
    20    10    11   ar
    21    11    12    1
    22    11    13   ar
    23    13    14   ar
    24    14    15   ar
    25    15    16   ar
    26     3     4   ar
    27     4     5   ar
    28     5     6   ar
    29     6    34    1
    30    34    35    3
    31    31    32    1
    32    32    33    1
    33    32    24    1
    34     6     1   ar
    35    16     7   ar
    36    16    10   ar
    37    12    17    1
    38    12    18    1
@<TRIPOS>MOLECULE
*****
 35 38 0 0 0
SMALL
GASTEIGER

@<TRIPOS>ATOM
      1 C           0.2536    3.5320   19.4299 C.ar    1  UNL1        0.0635
      2 C           0.9788    2.2263   19.2906 C.ar    1  UNL1        0.0171
      3 C           2.4426    2.1438   19.6081 C.ar    1  UNL1        0.0190
      4 C           3.1810    3.3668   20.0649 C.ar    1  UNL1        0.0023
      5 C           2.4558    4.6725   20.2042 C.ar    1  UNL1        0.0116
      6 C           0.9922    4.7551   19.8867 C.ar    1  UNL1        0.0821
      7 C           3.1678    0.8381   19.4688 C.ar    1  UNL1        0.0829
      8 C           2.8418   -0.4333   20.1949 C.ar    1  UNL1        0.0246
      9 C           3.8188   -1.4825   19.7538 C.ar    1  UNL1        0.0933
     10 C           4.7486   -0.8595   18.7550 C.ar    1  UNL1        0.1178
     11 C           5.9096   -1.4130   17.9832 C.ar    1  UNL1        0.1450
     12 N           6.3120   -2.8472   18.1593 N.pl3   1  UNL1       -0.3414
     13 N           6.6682   -0.5322   17.0353 N.ar    1  UNL1       -0.2065
     14 C           6.2658    0.9021   16.8592 C.ar    1  UNL1        0.2211
     15 N           5.1048    1.4555   17.6310 N.ar    1  UNL1       -0.1422
     16 N           4.3462    0.5747   18.5789 N.ar    1  UNL1       -0.2255
     17 H           5.8140   -3.4253   18.7815 H       1  UNL1        0.1438
     18 H           7.0740   -3.2105   17.6528 H       1  UNL1        0.1438
     19 C           3.8590   -2.9050   20.2281 C.3     1  UNL1        0.4201
     20 F           3.8992   -4.3275   20.7023 F       1  UNL1       -0.1658
     21 F           3.2476   -3.3538   18.9340 F       1  UNL1       -0.1658
     22 F           4.4704   -2.4562   21.5221 F       1  UNL1       -0.1658
     23 C          -4.7036    3.3542   20.9770 C.3     1  UNL1        0.0338
     24 C          -3.6887    3.5256   19.8859 C.3     1  UNL1        0.1341
     25 O          -4.1374    3.7795   18.4773 O.3     1  UNL1       -0.3507
     26 C          -3.1225    3.9508   17.3862 C.3     1  UNL1        0.1612
     27 C          -4.3860    4.1123   16.5942 C.3     1  UNL1        0.0391
     28 C          -2.5463    4.1783   16.0201 C.3     1  UNL1        0.0391
     29 C          -1.6587    3.8683   17.7038 C.2     1  UNL1        0.2537
     30 O          -0.6437    4.0397   16.6127 O.2     1  UNL1       -0.2720
     31 N          -1.2100    3.6145   19.1124 N.am    1  UNL1       -0.2554
     32 C          -2.2250    3.4431   20.2035 C.3     1  UNL1        0.1070
     33 C          -1.7763    3.1892   21.6121 C.3     1  UNL1        0.0245
     34 C           0.2670    6.0607   20.0260 C.1     1  UNL1        0.1017
     35 N          -0.4583    7.3663   20.1653 N.1     1  UNL1       -0.1908
@<TRIPOS>BOND
     1    24    23    1
     2    24    25    1
     3    25    26    1
     4    26    27    1
     5    26    28    1
     6    26    29    1
     7    29    30    2
     8    29    31   am
     9    31     1    1
    10     1     2   ar
    11     2     3   ar
    12     3     7    1
    13     7     8   ar
    14     8     9   ar
    15     9    19    1
    16    19    20    1
    17    19    21    1
    18    19    22    1
    19     9    10   ar
    20    10    11   ar
    21    11    12    1
    22    11    13   ar
    23    13    14   ar
    24    14    15   ar
    25    15    16   ar
    26     3     4   ar
    27     4     5   ar
    28     5     6   ar
    29     6    34    1
    30    34    35    3
    31    31    32    1
    32    32    33    1
    33    32    24    1
    34     6     1   ar
    35    16     7   ar
    36    16    10   ar
    37    12    17    1
    38    12    18    1
@<TRIPOS>MOLECULE
*****
 35 38 0 0 0
SMALL
GASTEIGER

@<TRIPOS>ATOM
      1 C           4.4656   -0.5996   22.3568 C.ar    1  UNL1        0.0635
      2 C           3.2690   -0.1572   23.1457 C.ar    1  UNL1        0.0171
      3 C           3.4467    0.4126   24.5219 C.ar    1  UNL1        0.0190
      4 C           4.8211    0.5400   25.1090 C.ar    1  UNL1        0.0023
      5 C           6.0177    0.0976   24.3201 C.ar    1  UNL1        0.0116
      6 C           5.8400   -0.4722   22.9440 C.ar    1  UNL1        0.0821
      7 C           2.2501    0.8549   25.3108 C.ar    1  UNL1        0.0829
      8 C           1.9882    0.5565   26.7573 C.ar    1  UNL1        0.0246
      9 C           0.6815    1.1905   27.1321 C.ar    1  UNL1        0.0933
     10 C           0.1358    1.8807   25.9173 C.ar    1  UNL1        0.1178
     11 C          -1.1187    2.6713   25.6907 C.ar    1  UNL1        0.1450
     12 N          -2.0881    2.8787   26.8164 N.pl3   1  UNL1       -0.3414
     13 N          -1.4036    3.2544   24.3384 N.ar    1  UNL1       -0.2065
     14 C          -0.4342    3.0470   23.2128 C.ar    1  UNL1        0.2211
     15 N           0.8202    2.2564   23.4394 N.ar    1  UNL1       -0.1422
     16 N           1.1052    1.6733   24.7916 N.ar    1  UNL1       -0.2255
     17 H          -1.9011    2.4960   27.7039 H       1  UNL1        0.1438
     18 H          -2.9115    3.3976   26.6676 H       1  UNL1        0.1438
     19 C           0.0341    1.1428   28.4844 C.3     1  UNL1        0.4201
     20 F          -0.6132    1.0950   29.8367 F       1  UNL1       -0.1658
     21 F           0.8858    2.2932   28.9328 F       1  UNL1       -0.1658
     22 F          -0.8175   -0.0076   28.0361 F       1  UNL1       -0.1658
     23 C           3.9960   -4.7114   19.2148 C.3     1  UNL1        0.0338
     24 C           4.0530   -3.2252   19.4097 C.3     1  UNL1        0.1341
     25 O           3.9322   -2.3088   18.2283 O.3     1  UNL1       -0.3507
     26 C           3.9892   -0.8226   18.4232 C.3     1  UNL1        0.1612
     27 C           3.8095   -0.8835   16.9352 C.3     1  UNL1        0.0391
     28 C           3.9838    0.6425   18.1012 C.3     1  UNL1        0.0391
     29 C           4.1670   -0.2529   19.7994 C.2     1  UNL1        0.2537
     30 O           4.2240    1.2333   19.9943 O.2     1  UNL1       -0.2720
     31 N           4.2878   -1.1694   20.9807 N.am    1  UNL1       -0.2554
     32 C           4.2308   -2.6555   20.7858 C.3     1  UNL1        0.1070
     33 C           4.3516   -3.5720   21.9671 C.3     1  UNL1        0.0245
     34 C           7.0367   -0.9145   22.1551 C.1     1  UNL1        0.1017
     35 N           8.2332   -1.3568   21.3661 N.1     1  UNL1       -0.1908
@<TRIPOS>BOND
     1    24    23    1
     2    24    25    1
     3    25    26    1
     4    26    27    1
     5    26    28    1
     6    26    29    1
     7    29    30    2
     8    29    31   am
     9    31     1    1
    10     1     2   ar
    11     2     3   ar
    12     3     7    1
    13     7     8   ar
    14     8     9   ar
    15     9    19    1
    16    19    20    1
    17    19    21    1
    18    19    22    1
    19     9    10   ar
    20    10    11   ar
    21    11    12    1
    22    11    13   ar
    23    13    14   ar
    24    14    15   ar
    25    15    16   ar
    26     3     4   ar
    27     4     5   ar
    28     5     6   ar
    29     6    34    1
    30    34    35    3
    31    31    32    1
    32    32    33    1
    33    32    24    1
    34     6     1   ar
    35    16     7   ar
    36    16    10   ar
    37    12    17    1
    38    12    18    1
@<TRIPOS>MOLECULE
*****
 35 38 0 0 0
SMALL
GASTEIGER

@<TRIPOS>ATOM
      1 C           2.6913    0.9160   25.0114 C.ar    1  UNL1        0.0635
      2 C           2.8424    0.4515   23.5932 C.ar    1  UNL1        0.0171
      3 C           3.5176   -0.8555   23.3000 C.ar    1  UNL1        0.0190
      4 C           4.0416   -1.6979   24.4250 C.ar    1  UNL1        0.0023
      5 C           3.8905   -1.2333   25.8432 C.ar    1  UNL1        0.0116
      6 C           3.2153    0.0736   26.1364 C.ar    1  UNL1        0.0821
      7 C           3.6688   -1.3201   21.8817 C.ar    1  UNL1        0.0829
      8 C           4.0096   -2.7130   21.4418 C.ar    1  UNL1        0.0246
      9 C           4.0570   -2.7270   19.9426 C.ar    1  UNL1        0.0933
     10 C           3.7455   -1.3427   19.4560 C.ar    1  UNL1        0.1178
     11 C           3.6494   -0.7617   18.0765 C.ar    1  UNL1        0.1450
     12 N           3.8894   -1.6312   16.8780 N.pl3   1  UNL1       -0.3414
     13 N           3.3134    0.6889   17.8954 N.ar    1  UNL1       -0.2065
     14 C           3.0734    1.5584   19.0939 C.ar    1  UNL1        0.2211
     15 N           3.1695    0.9774   20.4734 N.ar    1  UNL1       -0.1422
     16 N           3.5056   -0.4732   20.6545 N.ar    1  UNL1       -0.2255
     17 H           4.1100   -2.5833   16.9969 H       1  UNL1        0.1438
     18 H           3.8263   -1.2498   15.9726 H       1  UNL1        0.1438
     19 C           4.3623   -3.9164   19.0812 C.3     1  UNL1        0.4201
     20 F           4.6678   -5.1059   18.2198 F       1  UNL1       -0.1658
     21 F           5.8240   -3.5850   19.1416 F       1  UNL1       -0.1658
     22 F           2.9008   -4.2479   19.0208 F       1  UNL1       -0.1658
     23 C           2.9505    6.0593   25.7039 C.3     1  UNL1        0.0338
     24 C           2.1457    4.7946   25.6508 C.3     1  UNL1        0.1341
     25 O           0.6656    4.8370   25.8908 O.3     1  UNL1       -0.3507
     26 C          -0.1392    3.5723   25.8377 C.3     1  UNL1        0.1612
     27 C          -1.2249    4.5590   26.1500 C.3     1  UNL1        0.0391
     28 C          -1.3211    2.6503   25.8930 C.3     1  UNL1        0.0391
     29 C           0.5361    2.2653   25.5445 C.2     1  UNL1        0.2537
     30 O          -0.2688    1.0006   25.4914 O.2     1  UNL1       -0.2720
     31 N           2.0161    2.2230   25.3045 N.am    1  UNL1       -0.2554
     32 C           2.8210    3.4877   25.3576 C.3     1  UNL1        0.1070
     33 C           4.3010    3.4454   25.1176 C.3     1  UNL1        0.0245
     34 C           3.0642    0.5382   27.5547 C.1     1  UNL1        0.1017
     35 N           2.9132    1.0027   28.9728 N.1     1  UNL1       -0.1908
@<TRIPOS>BOND
     1    24    23    1
     2    24    25    1
     3    25    26    1
     4    26    27    1
     5    26    28    1
     6    26    29    1
     7    29    30    2
     8    29    31   am
     9    31     1    1
    10     1     2   ar
    11     2     3   ar
    12     3     7    1
    13     7     8   ar
    14     8     9   ar
    15     9    19    1
    16    19    20    1
    17    19    21    1
    18    19    22    1
    19     9    10   ar
    20    10    11   ar
    21    11    12    1
    22    11    13   ar
    23    13    14   ar
    24    14    15   ar
    25    15    16   ar
    26     3     4   ar
    27     4     5   ar
    28     5     6   ar
    29     6    34    1
    30    34    35    3
    31    31    32    1
    32    32    33    1
    33    32    24    1
    34     6     1   ar
    35    16     7   ar
    36    16    10   ar
    37    12    17    1
    38    12    18    1
@<TRIPOS>MOLECULE
*****
 35 38 0 0 0
SMALL
GASTEIGER

@<TRIPOS>ATOM
      1 C           2.4704    1.7027   25.0823 C.ar    1  UNL1        0.0635
      2 C           2.5468    0.8687   23.8378 C.ar    1  UNL1        0.0171
      3 C           3.7970    0.8712   23.0088 C.ar    1  UNL1        0.0190
      4 C           4.9707    1.7076   23.4244 C.ar    1  UNL1        0.0023
      5 C           4.8943    2.5416   24.6688 C.ar    1  UNL1        0.0116
      6 C           3.6442    2.5391   25.4978 C.ar    1  UNL1        0.0821
      7 C           3.8734    0.0372   21.7643 C.ar    1  UNL1        0.0829
      8 C           3.7077    0.5339   20.3587 C.ar    1  UNL1        0.0246
      9 C           3.8608   -0.6362   19.4327 C.ar    1  UNL1        0.0933
     10 C           4.1210   -1.8560   20.2660 C.ar    1  UNL1        0.1178
     11 C           4.3519   -3.2919   19.8989 C.ar    1  UNL1        0.1450
     12 N           4.3441   -3.7081   18.4578 N.pl3   1  UNL1       -0.3414
     13 N           4.5905   -4.3115   20.9728 N.ar    1  UNL1       -0.2065
     14 C           4.5983   -3.8953   22.4138 C.ar    1  UNL1        0.2211
     15 N           4.3674   -2.4594   22.7810 N.ar    1  UNL1       -0.1422
     16 N           4.1288   -1.4397   21.7071 N.ar    1  UNL1       -0.2255
     17 H           4.1874   -3.0389   17.7530 H       1  UNL1        0.1438
     18 H           4.4956   -4.6506   18.2168 H       1  UNL1        0.1438
     19 C           3.7696   -0.5940   17.9360 C.3     1  UNL1        0.4201
     20 F           3.6784   -0.5518   16.4394 F       1  UNL1       -0.1658
     21 F           2.2895   -0.3703   18.0325 F       1  UNL1       -0.1658
     22 F           5.2496   -0.8177   17.8396 F       1  UNL1       -0.1658
     23 C          -2.3521    3.4281   25.9576 C.3     1  UNL1        0.0338
     24 C          -1.1910    2.5628   26.3488 C.3     1  UNL1        0.1341
     25 O          -1.2801    1.6949   27.5691 O.3     1  UNL1       -0.3507
     26 C          -0.1189    0.8296   27.9603 C.3     1  UNL1        0.1612
     27 C          -1.0819    0.4849   29.0574 C.3     1  UNL1        0.0391
     28 C           0.7077   -0.1554   28.7326 C.3     1  UNL1        0.0391
     29 C           1.1313    0.8322   27.1313 C.2     1  UNL1        0.2537
     30 O           2.2924   -0.0331   27.5226 O.2     1  UNL1       -0.2720
     31 N           1.2203    1.7001   25.9111 N.am    1  UNL1       -0.2554
     32 C           0.0592    2.5654   25.5199 C.3     1  UNL1        0.1070
     33 C           0.1482    3.4333   24.2997 C.3     1  UNL1        0.0245
     34 C           3.5678    3.3730   26.7423 C.1     1  UNL1        0.1017
     35 N           3.4914    4.2071   27.9866 N.1     1  UNL1       -0.1908
@<TRIPOS>BOND
     1    24    23    1
     2    24    25    1
     3    25    26    1
     4    26    27    1
     5    26    28    1
     6    26    29    1
     7    29    30    2
     8    29    31   am
     9    31     1    1
    10     1     2   ar
    11     2     3   ar
    12     3     7    1
    13     7     8   ar
    14     8     9   ar
    15     9    19    1
    16    19    20    1
    17    19    21    1
    18    19    22    1
    19     9    10   ar
    20    10    11   ar
    21    11    12    1
    22    11    13   ar
    23    13    14   ar
    24    14    15   ar
    25    15    16   ar
    26     3     4   ar
    27     4     5   ar
    28     5     6   ar
    29     6    34    1
    30    34    35    3
    31    31    32    1
    32    32    33    1
    33    32    24    1
    34     6     1   ar
    35    16     7   ar
    36    16    10   ar
    37    12    17    1
    38    12    18    1
@<TRIPOS>MOLECULE
*****
 35 38 0 0 0
SMALL
GASTEIGER

@<TRIPOS>ATOM
      1 C           0.0172    3.4017   19.8612 C.ar    1  UNL1        0.0635
      2 C           0.6452    2.0420   19.9448 C.ar    1  UNL1        0.0171
      3 C           2.0572    1.8965   20.4298 C.ar    1  UNL1        0.0190
      4 C           2.8411    3.1107   20.8311 C.ar    1  UNL1        0.0023
      5 C           2.2131    4.4704   20.7476 C.ar    1  UNL1        0.0116
      6 C           0.8012    4.6158   20.2626 C.ar    1  UNL1        0.0821
      7 C           2.6852    0.5369   20.5133 C.ar    1  UNL1        0.0829
      8 C           3.0047   -0.3595   19.3538 C.ar    1  UNL1        0.0246
      9 C           3.6209   -1.6155   19.8950 C.ar    1  UNL1        0.0933
     10 C           3.6821   -1.4954   21.3889 C.ar    1  UNL1        0.1178
     11 C           4.1898   -2.4254   22.4506 C.ar    1  UNL1        0.1450
     12 N           4.7681   -3.7556   22.0684 N.pl3   1  UNL1       -0.3414
     13 N           4.1192   -2.0252   23.8945 N.ar    1  UNL1       -0.2065
     14 C           3.5409   -0.6950   24.2766 C.ar    1  UNL1        0.2211
     15 N           3.0332    0.2351   23.2149 N.ar    1  UNL1       -0.1422
     16 N           3.1038   -0.1651   21.7711 N.ar    1  UNL1       -0.2255
     17 H           4.8145   -4.0183   21.1208 H       1  UNL1        0.1438
     18 H           5.1013   -4.3660   22.7653 H       1  UNL1        0.1438
     19 C           4.0929   -2.7861   19.0845 C.3     1  UNL1        0.4201
     20 F           4.5648   -3.9568   18.2740 F       1  UNL1       -0.1658
     21 F           2.7595   -3.4490   19.2654 F       1  UNL1       -0.1658
     22 F           5.4262   -2.1232   18.9036 F       1  UNL1       -0.1658
     23 C          -3.3487    4.2258   15.9894 C.3     1  UNL1        0.0338
     24 C          -3.0777    3.9591   17.4404 C.3     1  UNL1        0.1341
     25 O          -4.2188    3.8379   18.4065 O.3     1  UNL1       -0.3507
     26 C          -3.9478    3.5712   19.8575 C.3     1  UNL1        0.1612
     27 C          -5.4464    3.6312   19.8792 C.3     1  UNL1        0.0391
     28 C          -4.1974    3.3254   21.3160 C.3     1  UNL1        0.0391
     29 C          -2.5358    3.4258   20.3424 C.2     1  UNL1        0.2537
     30 O          -2.2648    3.1592   21.7934 O.2     1  UNL1       -0.2720
     31 N          -1.3948    3.5471   19.3763 N.am    1  UNL1       -0.2554
     32 C          -1.6657    3.8137   17.9253 C.3     1  UNL1        0.1070
     33 C          -0.5247    3.9350   16.9591 C.3     1  UNL1        0.0245
     34 C           0.1732    5.9755   20.1791 C.1     1  UNL1        0.1017
     35 N          -0.4547    7.3352   20.0956 N.1     1  UNL1       -0.1908
@<TRIPOS>BOND
     1    24    23    1
     2    24    25    1
     3    25    26    1
     4    26    27    1
     5    26    28    1
     6    26    29    1
     7    29    30    2
     8    29    31   am
     9    31     1    1
    10     1     2   ar
    11     2     3   ar
    12     3     7    1
    13     7     8   ar
    14     8     9   ar
    15     9    19    1
    16    19    20    1
    17    19    21    1
    18    19    22    1
    19     9    10   ar
    20    10    11   ar
    21    11    12    1
    22    11    13   ar
    23    13    14   ar
    24    14    15   ar
    25    15    16   ar
    26     3     4   ar
    27     4     5   ar
    28     5     6   ar
    29     6    34    1
    30    34    35    3
    31    31    32    1
    32    32    33    1
    33    32    24    1
    34     6     1   ar
    35    16     7   ar
    36    16    10   ar
    37    12    17    1
    38    12    18    1
@<TRIPOS>MOLECULE
*****
 35 38 0 0 0
SMALL
GASTEIGER

@<TRIPOS>ATOM
      1 C           4.4430   -0.6808   21.6450 C.ar    1  UNL1        0.0635
      2 C           3.6978   -0.6128   22.9450 C.ar    1  UNL1        0.0171
      3 C           3.1976    0.7064   23.4547 C.ar    1  UNL1        0.0190
      4 C           3.4426    1.9574   22.6643 C.ar    1  UNL1        0.0023
      5 C           4.1878    1.8894   21.3642 C.ar    1  UNL1        0.0116
      6 C           4.6880    0.5703   20.8546 C.ar    1  UNL1        0.0821
      7 C           2.4524    0.7744   24.7547 C.ar    1  UNL1        0.0829
      8 C           1.0818    1.3496   24.9562 C.ar    1  UNL1        0.0246
      9 C           0.7293    1.2098   26.4075 C.ar    1  UNL1        0.0933
     10 C           1.8820    0.5482   27.1029 C.ar    1  UNL1        0.1178
     11 C           2.0996    0.1561   28.5343 C.ar    1  UNL1        0.1450
     12 N           1.0346    0.4252   29.5558 N.pl3   1  UNL1       -0.3414
     13 N           3.3820   -0.5051   28.9441 N.ar    1  UNL1       -0.2065
     14 C           4.4470   -0.7742   27.9226 C.ar    1  UNL1        0.2211
     15 N           4.2294   -0.3821   26.4912 N.ar    1  UNL1       -0.1422
     16 N           2.9470    0.2791   26.0814 N.ar    1  UNL1       -0.2255
     17 H           0.1929    0.8592   29.2868 H       1  UNL1        0.1438
     18 H           1.1774    0.1678   30.4953 H       1  UNL1        0.1438
     19 C          -0.5511    1.6537   27.0506 C.3     1  UNL1        0.4201
     20 F          -1.8315    2.0976   27.6936 F       1  UNL1       -0.1658
     21 F          -0.1460    3.0864   26.8684 F       1  UNL1       -0.1658
     22 F          -0.9563    0.2210   27.2328 F       1  UNL1       -0.1658
     23 C           8.1216   -4.3478   21.5021 C.3     1  UNL1        0.0338
     24 C           6.7824   -3.8335   21.0639 C.3     1  UNL1        0.1341
     25 O           5.9433   -4.6383   20.1161 O.3     1  UNL1       -0.3507
     26 C           4.6041   -4.1239   19.6780 C.3     1  UNL1        0.1612
     27 C           4.6439   -5.4208   18.9255 C.3     1  UNL1        0.0391
     28 C           3.2788   -4.0600   18.9785 C.3     1  UNL1        0.0391
     29 C           4.1040   -2.8047   20.1877 C.2     1  UNL1        0.2537
     30 O           2.7648   -2.2903   19.7495 O.2     1  UNL1       -0.2720
     31 N           4.9431   -1.9999   21.1354 N.am    1  UNL1       -0.2554
     32 C           6.2823   -2.5143   21.5735 C.3     1  UNL1        0.1070
     33 C           7.1214   -1.7095   22.5213 C.3     1  UNL1        0.0245
     34 C           5.4332    0.5023   19.5546 C.1     1  UNL1        0.1017
     35 N           6.1784    0.4342   18.2546 N.1     1  UNL1       -0.1908
@<TRIPOS>BOND
     1    24    23    1
     2    24    25    1
     3    25    26    1
     4    26    27    1
     5    26    28    1
     6    26    29    1
     7    29    30    2
     8    29    31   am
     9    31     1    1
    10     1     2   ar
    11     2     3   ar
    12     3     7    1
    13     7     8   ar
    14     8     9   ar
    15     9    19    1
    16    19    20    1
    17    19    21    1
    18    19    22    1
    19     9    10   ar
    20    10    11   ar
    21    11    12    1
    22    11    13   ar
    23    13    14   ar
    24    14    15   ar
    25    15    16   ar
    26     3     4   ar
    27     4     5   ar
    28     5     6   ar
    29     6    34    1
    30    34    35    3
    31    31    32    1
    32    32    33    1
    33    32    24    1
    34     6     1   ar
    35    16     7   ar
    36    16    10   ar
    37    12    17    1
    38    12    18    1
