@<TRIPOS>MOLECULE
*****
 30 34 0 0 0
SMALL
GASTEIGER

@<TRIPOS>ATOM
      1 N           6.5331   -5.2788   32.4714 N.3     1  UNL1       -0.3219
      2 C           6.2618   -3.8995   31.9480 C.3     1  UNL1        0.0563
      3 C           5.6058   -2.8784   32.8295 C.3     1  UNL1        0.0318
      4 C           5.3345   -1.4991   32.3060 C.3     1  UNL1        0.0595
      5 C           5.7192   -1.1410   30.9011 C.3     1  UNL1        0.0164
      6 C           6.3752   -2.1621   30.0196 C.3     1  UNL1        0.0071
      7 C           6.6466   -3.5414   30.5431 C.3     1  UNL1        0.0389
      8 H           6.2094   -5.3460   33.4363 H       1  UNL1        0.1188
      9 H           7.5353   -5.4651   32.4352 H       1  UNL1        0.1188
     10 N           4.6784   -0.4780   33.1874 N.3     1  UNL1       -0.2650
     11 C           3.6256    0.5041   32.7665 C.3     1  UNL1        0.1205
     12 C           3.2566    1.3294   33.9635 C.ar    1  UNL1        0.0954
     13 N           2.3778    2.4464   34.4432 N.ar    1  UNL1       -0.1669
     14 N           2.6595    2.6648   35.9003 N.ar    1  UNL1       -0.2112
     15 C           2.0933    3.6309   36.8981 C.ar    1  UNL1        0.1037
     16 C           2.5799    3.6151   38.3169 C.ar    1  UNL1        0.0414
     17 C           3.6328    2.6330   38.7377 C.ar    1  UNL1        0.1022
     18 N           4.1990    1.6669   37.7398 N.ar    1  UNL1       -0.2252
     19 C           3.7123    1.6827   36.3211 C.ar    1  UNL1        0.1623
     20 C           4.0813    0.8574   35.1241 C.ar    1  UNL1        0.0463
     21 C           4.9602   -0.2597   34.6445 C.3     1  UNL1        0.1038
     22 C           7.3026   -4.5625   29.6616 C.ar    1  UNL1        0.0086
     23 C           6.5263   -5.2024   28.5490 C.ar    1  UNL1        0.0300
     24 C           7.1823   -6.2235   27.6675 C.ar    1  UNL1        0.1672
     25 F           6.4060   -6.8634   26.5549 F       1  UNL1       -0.2018
     26 C           8.6145   -6.6047   27.8986 C.ar    1  UNL1        0.1696
     27 F           9.2705   -7.6258   27.0171 F       1  UNL1       -0.2017
     28 C           9.3907   -5.9647   29.0113 C.ar    1  UNL1        0.0612
     29 C           8.7348   -4.9436   29.8928 C.ar    1  UNL1        0.1385
     30 F           9.5110   -4.3037   31.0054 F       1  UNL1       -0.2044
@<TRIPOS>BOND
     1     2     1    1
     2     2     3    1
     3     3     4    1
     4     4    10    1
     5    10    11    1
     6    11    12    1
     7    12    13   ar
     8    13    14   ar
     9    14    15   ar
    10    15    16   ar
    11    16    17   ar
    12    17    18   ar
    13    18    19   ar
    14    19    20   ar
    15    20    21    1
    16     4     5    1
    17     5     6    1
    18     6     7    1
    19     7    22    1
    20    22    23   ar
    21    23    24   ar
    22    24    25    1
    23    24    26   ar
    24    26    27    1
    25    26    28   ar
    26    28    29   ar
    27    29    30    1
    28     7     2    1
    29    29    22   ar
    30    21    10    1
    31    20    12   ar
    32    19    14   ar
    33     1     8    1
    34     1     9    1
@<TRIPOS>MOLECULE
*****
 30 34 0 0 0
SMALL
GASTEIGER

@<TRIPOS>ATOM
      1 N           7.2930    0.7634   33.8791 N.3     1  UNL1       -0.3219
      2 C           6.4452   -0.4314   33.5576 C.3     1  UNL1        0.0563
      3 C           6.8938   -1.4105   32.5135 C.3     1  UNL1        0.0318
      4 C           6.0459   -2.6054   32.1921 C.3     1  UNL1        0.0595
      5 C           4.7493   -2.8212   32.9148 C.3     1  UNL1        0.0164
      6 C           4.3006   -1.8421   33.9589 C.3     1  UNL1        0.0071
      7 C           5.1485   -0.6472   34.2804 C.3     1  UNL1        0.0389
      8 H           8.1313    0.7517   33.2980 H       1  UNL1        0.1188
      9 H           7.5609    0.7354   34.8629 H       1  UNL1        0.1188
     10 N           6.4945   -3.5844   31.1480 N.3     1  UNL1       -0.2650
     11 C           7.1111   -4.9274   31.4056 C.3     1  UNL1        0.1205
     12 C           7.4029   -5.5654   30.0798 C.ar    1  UNL1        0.0954
     13 N           7.9644   -6.7896   29.4195 N.ar    1  UNL1       -0.1669
     14 N           7.8752   -6.5977   27.9345 N.ar    1  UNL1       -0.2112
     15 C           8.2758   -7.4722   26.7836 C.ar    1  UNL1        0.1037
     16 C           8.0598   -7.0038   25.3751 C.ar    1  UNL1        0.0414
     17 C           7.4433   -5.6608   25.1175 C.ar    1  UNL1        0.1022
     18 N           7.0427   -4.7863   26.2685 N.ar    1  UNL1       -0.2252
     19 C           7.2587   -5.2547   27.6770 C.ar    1  UNL1        0.1623
     20 C           6.9668   -4.6167   29.0028 C.ar    1  UNL1        0.0463
     21 C           6.4053   -3.3924   29.6630 C.3     1  UNL1        0.1038
     22 C           4.6999    0.3318   35.3244 C.ar    1  UNL1        0.0086
     23 C           3.6292    1.3323   35.0036 C.ar    1  UNL1        0.0300
     24 C           3.1805    2.3113   36.0477 C.ar    1  UNL1        0.1672
     25 F           2.1099    3.3118   35.7269 F       1  UNL1       -0.2018
     26 C           3.8024    2.2899   37.4125 C.ar    1  UNL1        0.1696
     27 F           3.3536    3.2690   38.4567 F       1  UNL1       -0.2017
     28 C           4.8730    1.2895   37.7333 C.ar    1  UNL1        0.0612
     29 C           5.3217    0.3104   36.6892 C.ar    1  UNL1        0.1385
     30 F           6.3924   -0.6900   37.0100 F       1  UNL1       -0.2044
@<TRIPOS>BOND
     1     2     1    1
     2     2     3    1
     3     3     4    1
     4     4    10    1
     5    10    11    1
     6    11    12    1
     7    12    13   ar
     8    13    14   ar
     9    14    15   ar
    10    15    16   ar
    11    16    17   ar
    12    17    18   ar
    13    18    19   ar
    14    19    20   ar
    15    20    21    1
    16     4     5    1
    17     5     6    1
    18     6     7    1
    19     7    22    1
    20    22    23   ar
    21    23    24   ar
    22    24    25    1
    23    24    26   ar
    24    26    27    1
    25    26    28   ar
    26    28    29   ar
    27    29    30    1
    28     7     2    1
    29    29    22   ar
    30    21    10    1
    31    20    12   ar
    32    19    14   ar
    33     1     8    1
    34     1     9    1
@<TRIPOS>MOLECULE
*****
 30 34 0 0 0
SMALL
GASTEIGER

@<TRIPOS>ATOM
      1 N           4.3023    0.5006   17.9051 N.3     1  UNL1       -0.3219
      2 C           3.0446    0.4238   18.7188 C.3     1  UNL1        0.0563
      3 C           1.9973    1.4890   18.5830 C.3     1  UNL1        0.0318
      4 C           0.7395    1.4122   19.3968 C.3     1  UNL1        0.0595
      5 C           0.5291    0.2702   20.3463 C.3     1  UNL1        0.0164
      6 C           1.5765   -0.7951   20.4820 C.3     1  UNL1        0.0071
      7 C           2.8342   -0.7183   19.6683 C.3     1  UNL1        0.0389
      8 H           4.2777    1.3350   17.3190 H       1  UNL1        0.1188
      9 H           4.3763   -0.3278   17.3145 H       1  UNL1        0.1188
     10 N          -0.3078    2.4774   19.2611 N.3     1  UNL1       -0.2650
     11 C          -0.5079    3.3709   18.0730 C.3     1  UNL1        0.1205
     12 C          -1.6627    4.2818   18.3673 C.ar    1  UNL1        0.0954
     13 N          -2.5001    5.3970   17.8150 N.ar    1  UNL1       -0.1669
     14 N          -3.5313    5.7557   18.8436 N.ar    1  UNL1       -0.2112
     15 C          -4.6266    6.7804   18.8518 C.ar    1  UNL1        0.1037
     16 C          -5.5219    6.9117   20.0482 C.ar    1  UNL1        0.0414
     17 C          -5.3218    6.0182   21.2363 C.ar    1  UNL1        0.1022
     18 N          -4.2265    4.9934   21.2280 N.ar    1  UNL1       -0.2252
     19 C          -3.3313    4.8621   20.0317 C.ar    1  UNL1        0.1623
     20 C          -2.1764    3.9512   19.7373 C.ar    1  UNL1        0.0463
     21 C          -1.3390    2.8360   20.2898 C.3     1  UNL1        0.1038
     22 C           3.8815   -1.7835   19.8040 C.ar    1  UNL1        0.0086
     23 C           3.7502   -3.0662   19.0377 C.ar    1  UNL1        0.0300
     24 C           4.7975   -4.1315   19.1734 C.ar    1  UNL1        0.1672
     25 F           4.6662   -5.4143   18.4071 F       1  UNL1       -0.2018
     26 C           5.9760   -3.9140   20.0754 C.ar    1  UNL1        0.1696
     27 F           7.0234   -4.9793   20.2112 F       1  UNL1       -0.2017
     28 C           6.1073   -2.6312   20.8418 C.ar    1  UNL1        0.0612
     29 C           5.0600   -1.5659   20.7061 C.ar    1  UNL1        0.1385
     30 F           5.1913   -0.2831   21.4724 F       1  UNL1       -0.2044
@<TRIPOS>BOND
     1     2     1    1
     2     2     3    1
     3     3     4    1
     4     4    10    1
     5    10    11    1
     6    11    12    1
     7    12    13   ar
     8    13    14   ar
     9    14    15   ar
    10    15    16   ar
    11    16    17   ar
    12    17    18   ar
    13    18    19   ar
    14    19    20   ar
    15    20    21    1
    16     4     5    1
    17     5     6    1
    18     6     7    1
    19     7    22    1
    20    22    23   ar
    21    23    24   ar
    22    24    25    1
    23    24    26   ar
    24    26    27    1
    25    26    28   ar
    26    28    29   ar
    27    29    30    1
    28     7     2    1
    29    29    22   ar
    30    21    10    1
    31    20    12   ar
    32    19    14   ar
    33     1     8    1
    34     1     9    1
@<TRIPOS>MOLECULE
*****
 30 34 0 0 0
SMALL
GASTEIGER

@<TRIPOS>ATOM
      1 N          -0.1521    5.0394   27.7021 N.3     1  UNL1       -0.3219
      2 C          -0.1468    3.5859   28.0723 C.3     1  UNL1        0.0563
      3 C           0.7431    3.0961   29.1760 C.3     1  UNL1        0.0318
      4 C           0.7483    1.6425   29.5461 C.3     1  UNL1        0.0595
      5 C          -0.1363    0.6786   28.8124 C.3     1  UNL1        0.0164
      6 C          -1.0262    1.1683   27.7086 C.3     1  UNL1        0.0071
      7 C          -1.0315    2.6219   27.3385 C.3     1  UNL1        0.0389
      8 H           0.5036    5.5444   28.2984 H       1  UNL1        0.1188
      9 H          -1.0900    5.4194   27.8299 H       1  UNL1        0.1188
     10 N           1.6381    1.1527   30.6499 N.3     1  UNL1       -0.2650
     11 C           2.4681   -0.0965   30.6247 C.3     1  UNL1        0.1205
     12 C           3.1972   -0.1950   31.9319 C.ar    1  UNL1        0.0954
     13 N           4.1607   -1.0279   32.7243 N.ar    1  UNL1       -0.1669
     14 N           4.3768   -0.3544   34.0471 N.ar    1  UNL1       -0.2112
     15 C           5.2221   -0.7173   35.2319 C.ar    1  UNL1        0.1037
     16 C           5.2374    0.1691   36.4418 C.ar    1  UNL1        0.0414
     17 C           4.4074    1.4183   36.4670 C.ar    1  UNL1        0.1022
     18 N           3.5621    1.7811   35.2822 N.ar    1  UNL1       -0.2252
     19 C           3.5468    0.8948   34.0722 C.ar    1  UNL1        0.1623
     20 C           2.8178    0.9933   32.7650 C.ar    1  UNL1        0.0463
     21 C           1.8542    1.8263   31.9727 C.3     1  UNL1        0.1038
     22 C          -1.9213    3.1116   26.2348 C.ar    1  UNL1        0.0086
     23 C          -3.3212    3.5551   26.5409 C.ar    1  UNL1        0.0300
     24 C          -4.2111    4.0448   25.4372 C.ar    1  UNL1        0.1672
     25 F          -5.6109    4.4883   25.7433 F       1  UNL1       -0.2018
     26 C          -3.7011    4.0909   24.0273 C.ar    1  UNL1        0.1696
     27 F          -4.5911    4.5806   22.9235 F       1  UNL1       -0.2017
     28 C          -2.3013    3.6474   23.7211 C.ar    1  UNL1        0.0612
     29 C          -1.4114    3.1578   24.8249 C.ar    1  UNL1        0.1385
     30 F          -0.0115    2.7142   24.5187 F       1  UNL1       -0.2044
@<TRIPOS>BOND
     1     2     1    1
     2     2     3    1
     3     3     4    1
     4     4    10    1
     5    10    11    1
     6    11    12    1
     7    12    13   ar
     8    13    14   ar
     9    14    15   ar
    10    15    16   ar
    11    16    17   ar
    12    17    18   ar
    13    18    19   ar
    14    19    20   ar
    15    20    21    1
    16     4     5    1
    17     5     6    1
    18     6     7    1
    19     7    22    1
    20    22    23   ar
    21    23    24   ar
    22    24    25    1
    23    24    26   ar
    24    26    27    1
    25    26    28   ar
    26    28    29   ar
    27    29    30    1
    28     7     2    1
    29    29    22   ar
    30    21    10    1
    31    20    12   ar
    32    19    14   ar
    33     1     8    1
    34     1     9    1
@<TRIPOS>MOLECULE
*****
 30 34 0 0 0
SMALL
GASTEIGER

@<TRIPOS>ATOM
      1 N          -0.6659   -0.6299   29.5237 N.3     1  UNL1       -0.3219
      2 C          -0.3899    0.7018   28.8911 C.3     1  UNL1        0.0563
      3 C          -1.3030    1.2291   27.8243 C.3     1  UNL1        0.0318
      4 C          -1.0269    2.5609   27.1916 C.3     1  UNL1        0.0595
      5 C           0.1624    3.3653   27.6259 C.3     1  UNL1        0.0164
      6 C           1.0755    2.8380   28.6928 C.3     1  UNL1        0.0071
      7 C           0.7994    1.5063   29.3254 C.3     1  UNL1        0.0389
      8 H          -1.5067   -1.0344   29.1115 H       1  UNL1        0.1188
      9 H          -0.8041   -0.5076   30.5269 H       1  UNL1        0.1188
     10 N          -1.9399    3.0882   26.1248 N.3     1  UNL1       -0.2650
     11 C          -1.5802    3.3061   24.6850 C.3     1  UNL1        0.1205
     12 C          -2.7911    3.8428   23.9808 C.ar    1  UNL1        0.0954
     13 N          -3.3172    4.3091   22.6558 N.ar    1  UNL1       -0.1669
     14 N          -4.7503    4.7112   22.8414 N.ar    1  UNL1       -0.2112
     15 C          -5.7742    5.2475   21.8855 C.ar    1  UNL1        0.1037
     16 C          -7.1578    5.5659   22.3693 C.ar    1  UNL1        0.0414
     17 C          -7.5175    5.3481   23.8092 C.ar    1  UNL1        0.1022
     18 N          -6.4936    4.8117   24.7651 N.ar    1  UNL1       -0.2252
     19 C          -5.1100    4.4933   24.2813 C.ar    1  UNL1        0.1623
     20 C          -3.8991    3.9566   24.9854 C.ar    1  UNL1        0.0463
     21 C          -3.3731    3.4902   26.3106 C.3     1  UNL1        0.1038
     22 C           1.7125    0.9790   30.3922 C.ar    1  UNL1        0.0086
     23 C           1.7788    1.6606   31.7268 C.ar    1  UNL1        0.0300
     24 C           2.6919    1.1334   32.7937 C.ar    1  UNL1        0.1672
     25 F           2.7581    1.8150   34.1283 F       1  UNL1       -0.2018
     26 C           3.5388   -0.0753   32.5260 C.ar    1  UNL1        0.1696
     27 F           4.4519   -0.6026   33.5929 F       1  UNL1       -0.2017
     28 C           3.4725   -0.7569   31.1914 C.ar    1  UNL1        0.0612
     29 C           2.5594   -0.2297   30.1245 C.ar    1  UNL1        0.1385
     30 F           2.4931   -0.9113   28.7899 F       1  UNL1       -0.2044
@<TRIPOS>BOND
     1     2     1    1
     2     2     3    1
     3     3     4    1
     4     4    10    1
     5    10    11    1
     6    11    12    1
     7    12    13   ar
     8    13    14   ar
     9    14    15   ar
    10    15    16   ar
    11    16    17   ar
    12    17    18   ar
    13    18    19   ar
    14    19    20   ar
    15    20    21    1
    16     4     5    1
    17     5     6    1
    18     6     7    1
    19     7    22    1
    20    22    23   ar
    21    23    24   ar
    22    24    25    1
    23    24    26   ar
    24    26    27    1
    25    26    28   ar
    26    28    29   ar
    27    29    30    1
    28     7     2    1
    29    29    22   ar
    30    21    10    1
    31    20    12   ar
    32    19    14   ar
    33     1     8    1
    34     1     9    1
@<TRIPOS>MOLECULE
*****
 30 34 0 0 0
SMALL
GASTEIGER

@<TRIPOS>ATOM
      1 N           1.6998   -0.4104   29.9017 N.3     1  UNL1       -0.3219
      2 C           2.9377   -0.6170   29.0802 C.3     1  UNL1        0.0563
      3 C           2.8270   -0.8514   27.6028 C.3     1  UNL1        0.0318
      4 C           4.0650   -1.0580   26.7813 C.3     1  UNL1        0.0595
      5 C           5.4136   -1.0301   27.4373 C.3     1  UNL1        0.0164
      6 C           5.5244   -0.7957   28.9148 C.3     1  UNL1        0.0071
      7 C           4.2864   -0.5891   29.7362 C.3     1  UNL1        0.0389
      8 H           0.8790   -0.4607   29.2983 H       1  UNL1        0.1188
      9 H           1.7375    0.5056   30.3489 H       1  UNL1        0.1188
     10 N           3.9543   -1.2925   25.3039 N.3     1  UNL1       -0.2650
     11 C           3.0862   -0.5243   24.3519 C.3     1  UNL1        0.1205
     12 C           3.2877   -1.0934   22.9787 C.ar    1  UNL1        0.0954
     13 N           2.8757   -0.9704   21.5417 N.ar    1  UNL1       -0.1669
     14 N           3.6137   -2.0142   20.7569 N.ar    1  UNL1       -0.2112
     15 C           3.6074   -2.3645   19.2984 C.ar    1  UNL1        0.1037
     16 C           4.4691   -3.4829   18.7919 C.ar    1  UNL1        0.0414
     17 C           5.3372   -4.2510   19.7440 C.ar    1  UNL1        0.1022
     18 N           5.3435   -3.9008   21.2025 N.ar    1  UNL1       -0.2252
     19 C           4.4818   -2.7824   21.7089 C.ar    1  UNL1        0.1623
     20 C           4.2803   -2.2133   23.0821 C.ar    1  UNL1        0.0463
     21 C           4.6923   -2.3363   24.5192 C.3     1  UNL1        0.1038
     22 C           4.3972   -0.3546   31.2136 C.ar    1  UNL1        0.0086
     23 C           4.1137   -1.4718   32.1736 C.ar    1  UNL1        0.0300
     24 C           4.2245   -1.2375   33.6510 C.ar    1  UNL1        0.1672
     25 F           3.9410   -2.3547   34.6110 F       1  UNL1       -0.2018
     26 C           4.6187    0.1141   34.1684 C.ar    1  UNL1        0.1696
     27 F           4.7295    0.3486   35.6459 F       1  UNL1       -0.2017
     28 C           4.9021    1.2313   33.2085 C.ar    1  UNL1        0.0612
     29 C           4.7914    0.9970   31.7310 C.ar    1  UNL1        0.1385
     30 F           5.0748    2.1142   30.7711 F       1  UNL1       -0.2044
@<TRIPOS>BOND
     1     2     1    1
     2     2     3    1
     3     3     4    1
     4     4    10    1
     5    10    11    1
     6    11    12    1
     7    12    13   ar
     8    13    14   ar
     9    14    15   ar
    10    15    16   ar
    11    16    17   ar
    12    17    18   ar
    13    18    19   ar
    14    19    20   ar
    15    20    21    1
    16     4     5    1
    17     5     6    1
    18     6     7    1
    19     7    22    1
    20    22    23   ar
    21    23    24   ar
    22    24    25    1
    23    24    26   ar
    24    26    27    1
    25    26    28   ar
    26    28    29   ar
    27    29    30    1
    28     7     2    1
    29    29    22   ar
    30    21    10    1
    31    20    12   ar
    32    19    14   ar
    33     1     8    1
    34     1     9    1
@<TRIPOS>MOLECULE
*****
 30 34 0 0 0
SMALL
GASTEIGER

@<TRIPOS>ATOM
      1 N          -0.5569   -0.5544   29.5450 N.3     1  UNL1       -0.3219
      2 C          -0.2602    0.7819   28.9318 C.3     1  UNL1        0.0563
      3 C          -1.1186    1.3031   27.8176 C.3     1  UNL1        0.0318
      4 C          -0.8218    2.6395   27.2044 C.3     1  UNL1        0.0595
      5 C           0.3334    3.4547   27.7054 C.3     1  UNL1        0.0164
      6 C           1.1918    2.9335   28.8197 C.3     1  UNL1        0.0071
      7 C           0.8950    1.5971   29.4329 C.3     1  UNL1        0.0389
      8 H          -1.3695   -0.9662   29.0861 H       1  UNL1        0.1188
      9 H          -0.7513   -0.4366   30.5394 H       1  UNL1        0.1188
     10 N          -1.6802    3.1607   26.0902 N.3     1  UNL1       -0.2650
     11 C          -2.7824    4.1692   26.2241 C.3     1  UNL1        0.1205
     12 C          -3.3705    4.3967   24.8630 C.ar    1  UNL1        0.0954
     13 N          -4.4151    5.1606   24.1046 N.ar    1  UNL1       -0.1669
     14 N          -4.3219    4.7648   22.6608 N.ar    1  UNL1       -0.2112
     15 C          -5.0984    5.1924   21.4507 C.ar    1  UNL1        0.1037
     16 C          -4.7726    4.6115   20.1068 C.ar    1  UNL1        0.0414
     17 C          -3.6703    3.6030   19.9728 C.ar    1  UNL1        0.1022
     18 N          -2.8939    3.1753   21.1828 N.ar    1  UNL1       -0.2252
     19 C          -3.2197    3.7563   22.5268 C.ar    1  UNL1        0.1623
     20 C          -2.6317    3.5288   23.8879 C.ar    1  UNL1        0.0463
     21 C          -1.5870    2.7648   24.6463 C.3     1  UNL1        0.1038
     22 C           1.7534    1.0759   30.5471 C.ar    1  UNL1        0.0086
     23 C           1.7481    1.7613   31.8814 C.ar    1  UNL1        0.0300
     24 C           2.6065    1.2402   32.9956 C.ar    1  UNL1        0.1672
     25 F           2.6011    1.9256   34.3299 F       1  UNL1       -0.2018
     26 C           3.4702    0.0338   32.7756 C.ar    1  UNL1        0.1696
     27 F           4.3287   -0.4874   33.8899 F       1  UNL1       -0.2017
     28 C           3.4755   -0.6516   31.4413 C.ar    1  UNL1        0.0612
     29 C           2.6171   -0.1305   30.3271 C.ar    1  UNL1        0.1385
     30 F           2.6225   -0.8158   28.9928 F       1  UNL1       -0.2044
@<TRIPOS>BOND
     1     2     1    1
     2     2     3    1
     3     3     4    1
     4     4    10    1
     5    10    11    1
     6    11    12    1
     7    12    13   ar
     8    13    14   ar
     9    14    15   ar
    10    15    16   ar
    11    16    17   ar
    12    17    18   ar
    13    18    19   ar
    14    19    20   ar
    15    20    21    1
    16     4     5    1
    17     5     6    1
    18     6     7    1
    19     7    22    1
    20    22    23   ar
    21    23    24   ar
    22    24    25    1
    23    24    26   ar
    24    26    27    1
    25    26    28   ar
    26    28    29   ar
    27    29    30    1
    28     7     2    1
    29    29    22   ar
    30    21    10    1
    31    20    12   ar
    32    19    14   ar
    33     1     8    1
    34     1     9    1
@<TRIPOS>MOLECULE
*****
 30 34 0 0 0
SMALL
GASTEIGER

@<TRIPOS>ATOM
      1 N          -1.1306    1.7837   27.2793 N.3     1  UNL1       -0.3219
      2 C          -0.7846    2.0326   25.8412 C.3     1  UNL1        0.0563
      3 C           0.2485    1.1843   25.1607 C.3     1  UNL1        0.0318
      4 C           0.5945    1.4333   23.7225 C.3     1  UNL1        0.0595
      5 C          -0.0925    2.5306   22.9649 C.3     1  UNL1        0.0164
      6 C          -1.1257    3.3789   23.6455 C.3     1  UNL1        0.0071
      7 C          -1.4717    3.1299   25.0837 C.3     1  UNL1        0.0389
      8 H          -0.5724    1.0071   27.6338 H       1  UNL1        0.1188
      9 H          -2.1212    1.5530   27.3556 H       1  UNL1        0.1188
     10 N           1.6276    0.5851   23.0419 N.3     1  UNL1       -0.2650
     11 C           2.6809   -0.2376   23.7228 C.3     1  UNL1        0.1205
     12 C           3.4930   -0.9206   22.6626 C.ar    1  UNL1        0.0954
     13 N           4.6459   -1.8511   22.4282 N.ar    1  UNL1       -0.1669
     14 N           4.8070   -2.0256   20.9471 N.ar    1  UNL1       -0.2112
     15 C           5.7767   -2.8274   20.1306 C.ar    1  UNL1        0.1037
     16 C           5.6931   -2.8064   18.6331 C.ar    1  UNL1        0.0414
     17 C           4.6398   -1.9838   17.9521 C.ar    1  UNL1        0.1022
     18 N           3.6701   -1.1820   18.7686 N.ar    1  UNL1       -0.2252
     19 C           3.7537   -1.2030   20.2661 C.ar    1  UNL1        0.1623
     20 C           2.9416   -0.5200   21.3264 C.ar    1  UNL1        0.0463
     21 C           1.7886    0.4106   21.5608 C.3     1  UNL1        0.1038
     22 C          -2.5047    3.9782   25.7642 C.ar    1  UNL1        0.0086
     23 C          -2.0896    4.9728   26.8074 C.ar    1  UNL1        0.0300
     24 C          -3.1226    5.8212   27.4880 C.ar    1  UNL1        0.1672
     25 F          -2.7076    6.8158   28.5313 F       1  UNL1       -0.2018
     26 C          -4.5707    5.6749   27.1253 C.ar    1  UNL1        0.1696
     27 F          -5.6039    6.5232   27.8059 F       1  UNL1       -0.2017
     28 C          -4.9858    4.6802   26.0820 C.ar    1  UNL1        0.0612
     29 C          -3.9528    3.8319   25.4014 C.ar    1  UNL1        0.1385
     30 F          -4.3679    2.8372   24.3582 F       1  UNL1       -0.2044
@<TRIPOS>BOND
     1     2     1    1
     2     2     3    1
     3     3     4    1
     4     4    10    1
     5    10    11    1
     6    11    12    1
     7    12    13   ar
     8    13    14   ar
     9    14    15   ar
    10    15    16   ar
    11    16    17   ar
    12    17    18   ar
    13    18    19   ar
    14    19    20   ar
    15    20    21    1
    16     4     5    1
    17     5     6    1
    18     6     7    1
    19     7    22    1
    20    22    23   ar
    21    23    24   ar
    22    24    25    1
    23    24    26   ar
    24    26    27    1
    25    26    28   ar
    26    28    29   ar
    27    29    30    1
    28     7     2    1
    29    29    22   ar
    30    21    10    1
    31    20    12   ar
    32    19    14   ar
    33     1     8    1
    34     1     9    1
@<TRIPOS>MOLECULE
*****
 30 34 0 0 0
SMALL
GASTEIGER

@<TRIPOS>ATOM
      1 N          -0.1861    0.9423   30.1077 N.3     1  UNL1       -0.3219
      2 C           1.1642    1.0990   29.4739 C.3     1  UNL1        0.0563
      3 C           1.4659    0.4164   28.1727 C.3     1  UNL1        0.0318
      4 C           2.8163    0.5732   27.5389 C.3     1  UNL1        0.0595
      5 C           3.8651    1.4127   28.2062 C.3     1  UNL1        0.0164
      6 C           3.5635    2.0954   29.5074 C.3     1  UNL1        0.0071
      7 C           2.2130    1.9385   30.1412 C.3     1  UNL1        0.0389
      8 H          -0.7688    0.3433   29.5228 H       1  UNL1        0.1188
      9 H          -0.6260    1.8577   30.2015 H       1  UNL1        0.1188
     10 N           3.1180   -0.1094   26.2377 N.3     1  UNL1       -0.2650
     11 C           4.0776   -1.2452   26.0396 C.3     1  UNL1        0.1205
     12 C           4.0656   -1.6138   24.5856 C.ar    1  UNL1        0.0954
     13 N           4.6513   -2.5435   23.5646 N.ar    1  UNL1       -0.1669
     14 N           4.0463   -2.2102   22.2331 N.ar    1  UNL1       -0.2112
     15 C           4.2453   -2.7942   20.8658 C.ar    1  UNL1        0.1037
     16 C           3.4846   -2.2424   19.6967 C.ar    1  UNL1        0.0414
     17 C           2.5250   -1.1066   19.8948 C.ar    1  UNL1        0.1022
     18 N           2.3261   -0.5227   21.2621 N.ar    1  UNL1       -0.2252
     19 C           3.0868   -1.0745   22.4312 C.ar    1  UNL1        0.1623
     20 C           3.0987   -0.7058   23.8851 C.ar    1  UNL1        0.0463
     21 C           2.5130    0.2240   24.9062 C.3     1  UNL1        0.1038
     22 C           1.9115    2.6212   31.4423 C.ar    1  UNL1        0.0086
     23 C           2.3275    1.9866   32.7363 C.ar    1  UNL1        0.0300
     24 C           2.0260    2.6692   34.0375 C.ar    1  UNL1        0.1672
     25 F           2.4420    2.0346   35.3314 F       1  UNL1       -0.2018
     26 C           1.3084    3.9864   34.0447 C.ar    1  UNL1        0.1696
     27 F           1.0068    4.6690   35.3460 F       1  UNL1       -0.2017
     28 C           0.8923    4.6209   32.7508 C.ar    1  UNL1        0.0612
     29 C           1.1939    3.9383   31.4496 C.ar    1  UNL1        0.1385
     30 F           0.7778    4.5729   30.1557 F       1  UNL1       -0.2044
@<TRIPOS>BOND
     1     2     1    1
     2     2     3    1
     3     3     4    1
     4     4    10    1
     5    10    11    1
     6    11    12    1
     7    12    13   ar
     8    13    14   ar
     9    14    15   ar
    10    15    16   ar
    11    16    17   ar
    12    17    18   ar
    13    18    19   ar
    14    19    20   ar
    15    20    21    1
    16     4     5    1
    17     5     6    1
    18     6     7    1
    19     7    22    1
    20    22    23   ar
    21    23    24   ar
    22    24    25    1
    23    24    26   ar
    24    26    27    1
    25    26    28   ar
    26    28    29   ar
    27    29    30    1
    28     7     2    1
    29    29    22   ar
    30    21    10    1
    31    20    12   ar
    32    19    14   ar
    33     1     8    1
    34     1     9    1
