@<TRIPOS>MOLECULE
*****
 29 31 0 0 0
SMALL
GASTEIGER

@<TRIPOS>ATOM
      1 C         -12.6388  -17.9550   22.2983 C.ar    1  UNL1        0.1359
      2 C         -13.8172  -17.8262   23.2175 C.ar    1  UNL1        0.0366
      3 C         -13.7205  -18.3119   24.6334 C.ar    1  UNL1        0.0028
      4 C         -12.4454  -18.9263   25.1301 C.ar    1  UNL1       -0.0043
      5 C         -11.2671  -19.0551   24.2110 C.ar    1  UNL1       -0.0200
      6 C         -11.3638  -18.5694   22.7951 C.ar    1  UNL1        0.0258
      7 C         -10.1854  -18.6982   21.8759 C.3     1  UNL1        0.1004
      8 N          -8.9104  -19.3126   22.3726 N.am    1  UNL1       -0.2759
      9 C          -7.7320  -19.4414   21.4534 C.2     1  UNL1        0.2420
     10 O          -7.8287  -18.9557   20.0375 O.2     1  UNL1       -0.2734
     11 C          -8.8137  -19.7983   23.7885 C.3     1  UNL1        0.0984
     12 C          -9.9920  -19.6695   24.7077 C.3     1  UNL1        0.0477
     13 C         -10.2821  -18.2125   20.4599 C.3     1  UNL1        0.0225
     14 C         -10.6651  -19.1638   19.3653 C.3     1  UNL1        0.0021
     15 C          -9.9958  -16.7755   20.1388 C.3     1  UNL1        0.0021
     16 C         -12.9383  -16.0097   20.6024 C.3     1  UNL1        0.2525
     17 O         -12.7355  -17.4693   20.8824 O.3     1  UNL1       -0.4717
     18 C          -6.4570  -20.0558   21.9501 C.3     1  UNL1        0.1552
     19 N          -5.3079  -19.1786   22.3503 N.3     1  UNL1       -0.2879
     20 H          -5.4891  -18.8740   23.3067 H       1  UNL1        0.1238
     21 C          -3.9084  -19.7180   22.3254 C.3     1  UNL1        0.0961
     22 C          -2.8668  -19.0619   21.4684 C.3     1  UNL1        0.1027
     23 O          -2.8832  -20.4311   20.8561 O.3     1  UNL1       -0.3854
     24 C          -3.2122  -17.9206   22.3784 C.3     1  UNL1        0.0283
     25 C          -2.5217  -16.5986   22.2187 C.3     1  UNL1        0.0024
     26 C          -1.4857  -16.4179   21.1489 C.3     1  UNL1        0.0002
     27 C          -1.1404  -17.5592   20.2390 C.3     1  UNL1        0.0024
     28 C          -1.8309  -18.8812   20.3987 C.3     1  UNL1        0.0283
     29 H          -3.5298  -20.9853   21.3205 H       1  UNL1        0.2103
@<TRIPOS>BOND
     1    16    17    1
     2    17     1    1
     3     1     2   ar
     4     2     3   ar
     5     3     4   ar
     6     4     5   ar
     7     5     6   ar
     8     6     7    1
     9     7    13    1
    10    13    14    1
    11    13    15    1
    12     7     8    1
    13     8     9   am
    14     9    10    2
    15     9    18    1
    16    18    19    1
    17    19    21    1
    18    21    22    1
    19    22    23    1
    20    22    24    1
    21    24    25    1
    22    25    26    1
    23    26    27    1
    24    27    28    1
    25     8    11    1
    26    11    12    1
    27     6     1   ar
    28    28    22    1
    29    12     5    1
    30    19    20    1
    31    23    29    1
@<TRIPOS>MOLECULE
*****
 29 31 0 0 0
SMALL
GASTEIGER

@<TRIPOS>ATOM
      1 C          -9.1366  -19.7259   19.7080 C.ar    1  UNL1        0.1359
      2 C         -10.6178  -19.6945   19.4740 C.ar    1  UNL1        0.0366
      3 C         -11.5078  -18.9232   20.4029 C.ar    1  UNL1        0.0028
      4 C         -10.9165  -18.1832   21.5660 C.ar    1  UNL1       -0.0043
      5 C          -9.4352  -18.2145   21.8000 C.ar    1  UNL1       -0.0200
      6 C          -8.5452  -18.9859   20.8710 C.ar    1  UNL1        0.0258
      7 C          -7.0639  -19.0172   21.1051 C.3     1  UNL1        0.1004
      8 N          -6.4726  -18.2772   22.2682 N.am    1  UNL1       -0.2759
      9 C          -4.9912  -18.3085   22.5023 C.2     1  UNL1        0.2420
     10 O          -4.1013  -19.0798   21.5733 O.2     1  UNL1       -0.2734
     11 C          -7.3625  -17.5058   23.1972 C.3     1  UNL1        0.0984
     12 C          -8.8438  -17.4745   22.9631 C.3     1  UNL1        0.0477
     13 C          -6.1740  -19.7885   20.1762 C.3     1  UNL1        0.0225
     14 C          -5.4456  -19.0788   19.0736 C.3     1  UNL1        0.0021
     15 C          -6.0124  -21.2697   20.3498 C.3     1  UNL1        0.0021
     16 C          -8.8464  -21.3323   17.6869 C.3     1  UNL1        0.2525
     17 O          -8.2466  -20.4972   18.7790 O.3     1  UNL1       -0.4717
     18 C          -4.3999  -17.5685   23.6653 C.3     1  UNL1        0.1552
     19 N          -4.4107  -16.0687   23.6837 N.3     1  UNL1       -0.2879
     20 H          -5.0085  -15.7690   22.9135 H       1  UNL1        0.1238
     21 C          -4.8801  -15.3369   24.9061 C.3     1  UNL1        0.0961
     22 C          -6.3485  -15.1881   25.1735 C.3     1  UNL1        0.1027
     23 O          -6.2776  -14.6215   23.7864 O.3     1  UNL1       -0.3854
     24 C          -5.9094  -15.8063   26.4677 C.3     1  UNL1        0.0283
     25 C          -6.9142  -16.0790   27.5476 C.3     1  UNL1        0.0024
     26 C          -8.3580  -15.7335   27.3332 C.3     1  UNL1        0.0002
     27 C          -8.7971  -15.1152   26.0391 C.3     1  UNL1        0.0024
     28 C          -7.7924  -14.8426   24.9592 C.3     1  UNL1        0.0283
     29 H          -5.3609  -14.6524   23.4710 H       1  UNL1        0.2103
@<TRIPOS>BOND
     1    16    17    1
     2    17     1    1
     3     1     2   ar
     4     2     3   ar
     5     3     4   ar
     6     4     5   ar
     7     5     6   ar
     8     6     7    1
     9     7    13    1
    10    13    14    1
    11    13    15    1
    12     7     8    1
    13     8     9   am
    14     9    10    2
    15     9    18    1
    16    18    19    1
    17    19    21    1
    18    21    22    1
    19    22    23    1
    20    22    24    1
    21    24    25    1
    22    25    26    1
    23    26    27    1
    24    27    28    1
    25     8    11    1
    26    11    12    1
    27     6     1   ar
    28    28    22    1
    29    12     5    1
    30    19    20    1
    31    23    29    1
@<TRIPOS>MOLECULE
*****
 29 31 0 0 0
SMALL
GASTEIGER

@<TRIPOS>ATOM
      1 C         -11.6717   -3.2068   17.6902 C.ar    1  UNL1        0.1359
      2 C         -10.3676   -2.7016   17.1481 C.ar    1  UNL1        0.0366
      3 C          -9.3340   -3.6709   16.6560 C.ar    1  UNL1        0.0028
      4 C          -9.6046   -5.1454   16.7060 C.ar    1  UNL1       -0.0043
      5 C         -10.9087   -5.6506   17.2482 C.ar    1  UNL1       -0.0200
      6 C         -11.9423   -4.6813   17.7403 C.ar    1  UNL1        0.0258
      7 C         -13.2465   -5.1866   18.2824 C.3     1  UNL1        0.1004
      8 N         -13.5170   -6.6611   18.3325 N.am    1  UNL1       -0.2759
      9 C         -14.8212   -7.1663   18.8746 C.2     1  UNL1        0.2420
     10 O         -15.8548   -6.1970   19.3667 O.2     1  UNL1       -0.2734
     11 C         -12.4834   -7.6304   17.8404 C.3     1  UNL1        0.0984
     12 C         -11.1793   -7.1252   17.2982 C.3     1  UNL1        0.0477
     13 C         -14.2800   -4.2172   18.7745 C.3     1  UNL1        0.0225
     14 C         -14.2843   -3.7914   20.2128 C.3     1  UNL1        0.0021
     15 C         -15.3093   -3.6738   17.8283 C.3     1  UNL1        0.0021
     16 C         -12.2908   -0.8770   18.6590 C.3     1  UNL1        0.2525
     17 O         -12.7053   -2.2375   18.1823 O.3     1  UNL1       -0.4717
     18 C         -15.0918   -8.6409   18.9247 C.3     1  UNL1        0.1552
     19 N         -15.9898   -9.2029   19.9865 N.3     1  UNL1       -0.2879
     20 H         -16.4839   -8.4135   20.4025 H       1  UNL1        0.1238
     21 C         -17.0288  -10.2235   19.6272 C.3     1  UNL1        0.0961
     22 C         -18.2763   -9.8027   18.9086 C.3     1  UNL1        0.1027
     23 O         -17.8671  -10.9690   18.0587 O.3     1  UNL1       -0.3854
     24 C         -18.2523   -8.7825   20.0079 C.3     1  UNL1        0.0283
     25 C         -19.3337   -7.7466   20.0936 C.3     1  UNL1        0.0024
     26 C         -20.4392   -7.7308   19.0798 C.3     1  UNL1        0.0002
     27 C         -20.4632   -8.7509   17.9804 C.3     1  UNL1        0.0024
     28 C         -19.3818   -9.7869   17.8948 C.3     1  UNL1        0.0283
     29 H         -17.0505  -11.3556   18.4118 H       1  UNL1        0.2103
@<TRIPOS>BOND
     1    16    17    1
     2    17     1    1
     3     1     2   ar
     4     2     3   ar
     5     3     4   ar
     6     4     5   ar
     7     5     6   ar
     8     6     7    1
     9     7    13    1
    10    13    14    1
    11    13    15    1
    12     7     8    1
    13     8     9   am
    14     9    10    2
    15     9    18    1
    16    18    19    1
    17    19    21    1
    18    21    22    1
    19    22    23    1
    20    22    24    1
    21    24    25    1
    22    25    26    1
    23    26    27    1
    24    27    28    1
    25     8    11    1
    26    11    12    1
    27     6     1   ar
    28    28    22    1
    29    12     5    1
    30    19    20    1
    31    23    29    1
@<TRIPOS>MOLECULE
*****
 29 31 0 0 0
SMALL
GASTEIGER

@<TRIPOS>ATOM
      1 C         -12.5979  -17.9641   22.2901 C.ar    1  UNL1        0.1359
      2 C         -13.7676  -17.7862   23.2120 C.ar    1  UNL1        0.0366
      3 C         -13.6885  -18.2766   24.6273 C.ar    1  UNL1        0.0028
      4 C         -12.4396  -18.9449   25.1208 C.ar    1  UNL1       -0.0043
      5 C         -11.2698  -19.1228   24.1989 C.ar    1  UNL1       -0.0200
      6 C         -11.3490  -18.6324   22.7835 C.ar    1  UNL1        0.0258
      7 C         -10.1791  -18.8104   21.8616 C.3     1  UNL1        0.1004
      8 N          -8.9302  -19.4787   22.3551 N.am    1  UNL1       -0.2759
      9 C          -7.7604  -19.6567   21.4332 C.2     1  UNL1        0.2420
     10 O          -7.8395  -19.1663   20.0178 O.2     1  UNL1       -0.2734
     11 C          -8.8511  -19.9691   23.7704 C.3     1  UNL1        0.0984
     12 C         -10.0208  -19.7912   24.6924 C.3     1  UNL1        0.0477
     13 C         -10.2583  -18.3200   20.4462 C.3     1  UNL1        0.0225
     14 C          -9.9168  -16.8950   20.1260 C.3     1  UNL1        0.0021
     15 C         -10.6789  -19.2548   19.3511 C.3     1  UNL1        0.0021
     16 C         -12.8912  -16.0153   20.5971 C.3     1  UNL1        0.2525
     17 O         -12.6770  -17.4738   20.8747 O.3     1  UNL1       -0.4717
     18 C          -6.5115  -20.3250   21.9266 C.3     1  UNL1        0.1552
     19 N          -5.3572  -19.4964   22.4073 N.3     1  UNL1       -0.2879
     20 H          -4.5372  -19.8015   21.8830 H       1  UNL1        0.1238
     21 C          -5.4100  -18.0013   22.2971 C.3     1  UNL1        0.0961
     22 C          -5.2629  -17.1531   23.5254 C.3     1  UNL1        0.1027
     23 O          -3.8996  -17.7769   23.4749 O.3     1  UNL1       -0.3854
     24 C          -6.6771  -16.8239   23.1493 C.3     1  UNL1        0.0283
     25 C          -7.4709  -15.8631   23.9840 C.3     1  UNL1        0.0024
     26 C          -6.8504  -15.2315   25.1948 C.3     1  UNL1        0.0002
     27 C          -5.4361  -15.5606   25.5709 C.3     1  UNL1        0.0024
     28 C          -4.6424  -16.5215   24.7362 C.3     1  UNL1        0.0283
     29 H          -3.8434  -18.3694   22.7089 H       1  UNL1        0.2103
@<TRIPOS>BOND
     1    16    17    1
     2    17     1    1
     3     1     2   ar
     4     2     3   ar
     5     3     4   ar
     6     4     5   ar
     7     5     6   ar
     8     6     7    1
     9     7    13    1
    10    13    14    1
    11    13    15    1
    12     7     8    1
    13     8     9   am
    14     9    10    2
    15     9    18    1
    16    18    19    1
    17    19    21    1
    18    21    22    1
    19    22    23    1
    20    22    24    1
    21    24    25    1
    22    25    26    1
    23    26    27    1
    24    27    28    1
    25     8    11    1
    26    11    12    1
    27     6     1   ar
    28    28    22    1
    29    12     5    1
    30    19    20    1
    31    23    29    1
@<TRIPOS>MOLECULE
*****
 29 31 0 0 0
SMALL
GASTEIGER

@<TRIPOS>ATOM
      1 C         -11.1936   -3.2492   17.5258 C.ar    1  UNL1        0.1359
      2 C          -9.8466   -3.8972   17.4010 C.ar    1  UNL1        0.0366
      3 C          -9.5889   -5.2232   18.0531 C.ar    1  UNL1        0.0028
      4 C         -10.6782   -5.9012   18.8301 C.ar    1  UNL1       -0.0043
      5 C         -12.0252   -5.2532   18.9550 C.ar    1  UNL1       -0.0200
      6 C         -12.2829   -3.9272   18.3028 C.ar    1  UNL1        0.0258
      7 C         -13.6300   -3.2792   18.4277 C.3     1  UNL1        0.1004
      8 N         -14.7193   -3.9572   19.2047 N.am    1  UNL1       -0.2759
      9 C         -16.0664   -3.3092   19.3296 C.2     1  UNL1        0.2420
     10 O         -16.3241   -1.9832   18.6774 O.2     1  UNL1       -0.2734
     11 C         -14.4615   -5.2832   19.8568 C.3     1  UNL1        0.0984
     12 C         -13.1145   -5.9312   19.7320 C.3     1  UNL1        0.0477
     13 C         -13.8877   -1.9532   17.7755 C.3     1  UNL1        0.0225
     14 C         -14.4033   -1.8972   16.3681 C.3     1  UNL1        0.0021
     15 C         -13.6299   -0.6831   18.5310 C.3     1  UNL1        0.0021
     16 C         -10.3390   -0.9264   16.7357 C.3     1  UNL1        0.2525
     17 O         -11.4514   -1.9232   16.8737 O.3     1  UNL1       -0.4717
     18 C         -17.1556   -3.9872   20.1066 C.3     1  UNL1        0.1552
     19 N         -18.2990   -4.6365   19.3848 N.3     1  UNL1       -0.2879
     20 H         -18.3006   -4.2602   18.4368 H       1  UNL1        0.1238
     21 C         -18.3545   -6.1302   19.2578 C.3     1  UNL1        0.0961
     22 C         -17.3372   -6.8503   18.4233 C.3     1  UNL1        0.1027
     23 O         -17.7790   -5.8004   17.4471 O.3     1  UNL1       -0.3854
     24 C         -17.2488   -7.6499   19.6892 C.3     1  UNL1        0.0283
     25 C         -16.2965   -8.8052   19.7816 C.3     1  UNL1        0.0024
     26 C         -15.4326   -9.1607   18.6080 C.3     1  UNL1        0.0002
     27 C         -15.5210   -8.3610   17.3420 C.3     1  UNL1        0.0024
     28 C         -16.4733   -7.2058   17.2496 C.3     1  UNL1        0.0283
     29 H         -18.4565   -5.2412   17.8583 H       1  UNL1        0.2103
@<TRIPOS>BOND
     1    16    17    1
     2    17     1    1
     3     1     2   ar
     4     2     3   ar
     5     3     4   ar
     6     4     5   ar
     7     5     6   ar
     8     6     7    1
     9     7    13    1
    10    13    14    1
    11    13    15    1
    12     7     8    1
    13     8     9   am
    14     9    10    2
    15     9    18    1
    16    18    19    1
    17    19    21    1
    18    21    22    1
    19    22    23    1
    20    22    24    1
    21    24    25    1
    22    25    26    1
    23    26    27    1
    24    27    28    1
    25     8    11    1
    26    11    12    1
    27     6     1   ar
    28    28    22    1
    29    12     5    1
    30    19    20    1
    31    23    29    1
@<TRIPOS>MOLECULE
*****
 29 31 0 0 0
SMALL
GASTEIGER

@<TRIPOS>ATOM
      1 C         -10.5795  -18.3087   21.5387 C.ar    1  UNL1        0.1359
      2 C         -12.0079  -17.8517   21.5667 C.ar    1  UNL1        0.0366
      3 C         -12.3935  -16.6443   22.3688 C.ar    1  UNL1        0.0028
      4 C         -11.3507  -15.8938   23.1429 C.ar    1  UNL1       -0.0043
      5 C          -9.9223  -16.3508   23.1150 C.ar    1  UNL1       -0.0200
      6 C          -9.5367  -17.5582   22.3129 C.ar    1  UNL1        0.0258
      7 C          -8.1082  -18.0152   22.2850 C.3     1  UNL1        0.1004
      8 N          -7.0654  -17.2647   23.0591 N.am    1  UNL1       -0.2759
      9 C          -5.6370  -17.7216   23.0312 C.2     1  UNL1        0.2420
     10 O          -5.2513  -18.9291   22.2291 O.2     1  UNL1       -0.2734
     11 C          -7.4511  -16.0572   23.8612 C.3     1  UNL1        0.0984
     12 C          -8.8795  -15.6003   23.8892 C.3     1  UNL1        0.0477
     13 C          -7.7226  -19.2226   21.4829 C.3     1  UNL1        0.0225
     14 C          -7.7388  -20.5814   22.1179 C.3     1  UNL1        0.0021
     15 C          -7.3207  -19.0712   20.0456 C.3     1  UNL1        0.0021
     16 C         -10.5760  -19.6083   19.2891 C.3     1  UNL1        0.2525
     17 O         -10.1938  -19.5161   20.7366 O.3     1  UNL1       -0.4717
     18 C          -4.5942  -16.9711   23.8053 C.3     1  UNL1        0.1552
     19 N          -3.2096  -17.5327   23.9378 N.3     1  UNL1       -0.2879
     20 H          -3.2954  -18.5467   23.8692 H       1  UNL1        0.1238
     21 C          -2.1382  -17.1224   22.9715 C.3     1  UNL1        0.0961
     22 C          -2.3429  -17.3158   21.4982 C.3     1  UNL1        0.1027
     23 O          -2.3856  -15.8182   21.5726 O.3     1  UNL1       -0.3854
     24 C          -2.2291  -18.7461   21.9354 C.3     1  UNL1        0.0283
     25 C          -2.3348  -19.8499   20.9252 C.3     1  UNL1        0.0024
     26 C          -2.5543  -19.5232   19.4777 C.3     1  UNL1        0.0002
     27 C          -2.6681  -18.0929   19.0405 C.3     1  UNL1        0.0024
     28 C          -2.5624  -16.9892   20.0507 C.3     1  UNL1        0.0283
     29 H          -2.2635  -15.5366   22.4928 H       1  UNL1        0.2103
@<TRIPOS>BOND
     1    16    17    1
     2    17     1    1
     3     1     2   ar
     4     2     3   ar
     5     3     4   ar
     6     4     5   ar
     7     5     6   ar
     8     6     7    1
     9     7    13    1
    10    13    14    1
    11    13    15    1
    12     7     8    1
    13     8     9   am
    14     9    10    2
    15     9    18    1
    16    18    19    1
    17    19    21    1
    18    21    22    1
    19    22    23    1
    20    22    24    1
    21    24    25    1
    22    25    26    1
    23    26    27    1
    24    27    28    1
    25     8    11    1
    26    11    12    1
    27     6     1   ar
    28    28    22    1
    29    12     5    1
    30    19    20    1
    31    23    29    1
@<TRIPOS>MOLECULE
*****
 29 31 0 0 0
SMALL
GASTEIGER

@<TRIPOS>ATOM
      1 C           7.3108   -5.2739   25.0027 C.ar    1  UNL1        0.1359
      2 C           7.7484   -6.5440   25.6700 C.ar    1  UNL1        0.0366
      3 C           8.5554   -7.5525   24.9073 C.ar    1  UNL1        0.0028
      4 C           8.9246   -7.2909   23.4772 C.ar    1  UNL1       -0.0043
      5 C           8.4870   -6.0208   22.8099 C.ar    1  UNL1       -0.0200
      6 C           7.6801   -5.0123   23.5727 C.ar    1  UNL1        0.0258
      7 C           7.2424   -3.7422   22.9053 C.3     1  UNL1        0.1004
      8 N           7.6117   -3.4806   21.4752 N.am    1  UNL1       -0.2759
      9 C           7.1741   -2.2105   20.8078 C.2     1  UNL1        0.2420
     10 O           6.3672   -1.2020   21.5706 O.2     1  UNL1       -0.2734
     11 C           8.4187   -4.4891   20.7124 C.3     1  UNL1        0.0984
     12 C           8.8563   -5.7592   21.3797 C.3     1  UNL1        0.0477
     13 C           6.4355   -2.7337   23.6680 C.3     1  UNL1        0.0225
     14 C           7.1267   -1.6523   24.4444 C.3     1  UNL1        0.0021
     15 C           4.9373   -2.8067   23.6544 C.3     1  UNL1        0.0021
     16 C           6.6678   -4.1426   27.2514 C.3     1  UNL1        0.2525
     17 O           6.5039   -4.2654   25.7655 O.3     1  UNL1       -0.4717
     18 C           7.5434   -1.9489   19.3778 C.3     1  UNL1        0.1552
     19 N           6.5912   -2.3153   18.2782 N.3     1  UNL1       -0.2879
     20 H           6.9407   -3.1781   17.8614 H       1  UNL1        0.1238
     21 C           5.1404   -2.5398   18.5863 C.3     1  UNL1        0.0961
     22 C           4.1392   -1.4570   18.3123 C.3     1  UNL1        0.1027
     23 O           4.9916   -1.3406   17.0835 O.3     1  UNL1       -0.3854
     24 C           3.6345   -1.9496   19.6362 C.3     1  UNL1        0.0283
     25 C           2.4247   -1.3189   20.2594 C.3     1  UNL1        0.0024
     26 C           1.7194   -0.1956   19.5587 C.3     1  UNL1        0.0002
     27 C           2.2241    0.2969   18.2349 C.3     1  UNL1        0.0024
     28 C           3.4339   -0.3338   17.6116 C.3     1  UNL1        0.0283
     29 H           5.7035   -1.9983   17.1204 H       1  UNL1        0.2103
@<TRIPOS>BOND
     1    16    17    1
     2    17     1    1
     3     1     2   ar
     4     2     3   ar
     5     3     4   ar
     6     4     5   ar
     7     5     6   ar
     8     6     7    1
     9     7    13    1
    10    13    14    1
    11    13    15    1
    12     7     8    1
    13     8     9   am
    14     9    10    2
    15     9    18    1
    16    18    19    1
    17    19    21    1
    18    21    22    1
    19    22    23    1
    20    22    24    1
    21    24    25    1
    22    25    26    1
    23    26    27    1
    24    27    28    1
    25     8    11    1
    26    11    12    1
    27     6     1   ar
    28    28    22    1
    29    12     5    1
    30    19    20    1
    31    23    29    1
@<TRIPOS>MOLECULE
*****
 29 31 0 0 0
SMALL
GASTEIGER

@<TRIPOS>ATOM
      1 C           2.9072   -0.8670   19.1715 C.ar    1  UNL1        0.1359
      2 C           1.8622    0.1717   18.8901 C.ar    1  UNL1        0.0366
      3 C           1.1901    0.8861   20.0249 C.ar    1  UNL1        0.0028
      4 C           1.5629    0.5618   21.4412 C.ar    1  UNL1       -0.0043
      5 C           2.6079   -0.4768   21.7226 C.ar    1  UNL1       -0.0200
      6 C           3.2800   -1.1912   20.5877 C.ar    1  UNL1        0.0258
      7 C           4.3250   -2.2299   20.8692 C.3     1  UNL1        0.1004
      8 N           4.6978   -2.5542   22.2855 N.am    1  UNL1       -0.2759
      9 C           5.7428   -3.5929   22.5669 C.2     1  UNL1        0.2420
     10 O           6.4150   -4.3072   21.4321 O.2     1  UNL1       -0.2734
     11 C           4.0257   -1.8398   23.4203 C.3     1  UNL1        0.0984
     12 C           2.9807   -0.8011   23.1389 C.3     1  UNL1        0.0477
     13 C           4.9972   -2.9443   19.7344 C.3     1  UNL1        0.0225
     14 C           6.2700   -2.4016   19.1553 C.3     1  UNL1        0.0021
     15 C           4.3964   -4.2014   19.1786 C.3     1  UNL1        0.0021
     16 C           3.8703   -0.8521   16.7586 C.3     1  UNL1        0.2525
     17 O           3.5794   -1.5813   18.0366 O.3     1  UNL1       -0.4717
     18 C           6.1157   -3.9171   23.9832 C.3     1  UNL1        0.1552
     19 N           7.5468   -3.8228   24.4223 N.3     1  UNL1       -0.2879
     20 H           7.5354   -3.6386   25.4255 H       1  UNL1        0.1238
     21 C           8.4758   -4.9803   24.2052 C.3     1  UNL1        0.0961
     22 C           8.2672   -6.2609   24.9578 C.3     1  UNL1        0.1027
     23 O           7.9706   -6.7272   23.5633 O.3     1  UNL1       -0.3854
     24 C           8.6363   -5.3499   26.0909 C.3     1  UNL1        0.0283
     25 C           8.6937   -5.8814   27.4924 C.3     1  UNL1        0.0024
     26 C           8.3821   -7.3240   27.7608 C.3     1  UNL1        0.0002
     27 C           8.0130   -8.2350   26.6277 C.3     1  UNL1        0.0024
     28 C           7.9556   -7.7035   25.2262 C.3     1  UNL1        0.0283
     29 H           8.0677   -5.9848   22.9466 H       1  UNL1        0.2103
@<TRIPOS>BOND
     1    16    17    1
     2    17     1    1
     3     1     2   ar
     4     2     3   ar
     5     3     4   ar
     6     4     5   ar
     7     5     6   ar
     8     6     7    1
     9     7    13    1
    10    13    14    1
    11    13    15    1
    12     7     8    1
    13     8     9   am
    14     9    10    2
    15     9    18    1
    16    18    19    1
    17    19    21    1
    18    21    22    1
    19    22    23    1
    20    22    24    1
    21    24    25    1
    22    25    26    1
    23    26    27    1
    24    27    28    1
    25     8    11    1
    26    11    12    1
    27     6     1   ar
    28    28    22    1
    29    12     5    1
    30    19    20    1
    31    23    29    1
@<TRIPOS>MOLECULE
*****
 29 31 0 0 0
SMALL
GASTEIGER

@<TRIPOS>ATOM
      1 C         -10.8308   -2.8014   16.7917 C.ar    1  UNL1        0.1359
      2 C          -9.4479   -3.1675   16.3407 C.ar    1  UNL1        0.0366
      3 C          -8.8390   -4.4693   16.7701 C.ar    1  UNL1        0.0028
      4 C          -9.6130   -5.4051   17.6505 C.ar    1  UNL1       -0.0043
      5 C         -10.9959   -5.0390   18.1016 C.ar    1  UNL1       -0.0200
      6 C         -11.6048   -3.7372   17.6722 C.ar    1  UNL1        0.0258
      7 C         -12.9878   -3.3711   18.1232 C.3     1  UNL1        0.1004
      8 N         -13.7618   -4.3069   19.0037 N.am    1  UNL1       -0.2759
      9 C         -15.1448   -3.9408   19.4548 C.2     1  UNL1        0.2420
     10 O         -15.7537   -2.6390   19.0254 O.2     1  UNL1       -0.2734
     11 C         -13.1528   -5.6087   19.4331 C.3     1  UNL1        0.0984
     12 C         -11.7699   -5.9748   18.9821 C.3     1  UNL1        0.0477
     13 C         -13.5967   -2.0693   17.6938 C.3     1  UNL1        0.0225
     14 C         -13.4627   -0.8552   18.5645 C.3     1  UNL1        0.0021
     15 C         -14.3397   -1.9815   16.3937 C.3     1  UNL1        0.0021
     16 C         -10.6736   -0.2212   16.5316 C.3     1  UNL1        0.2525
     17 O         -11.4398   -1.4995   16.3623 O.3     1  UNL1       -0.4717
     18 C         -15.9188   -4.8766   20.3352 C.3     1  UNL1        0.1552
     19 N         -16.8744   -5.8601   19.7275 N.3     1  UNL1       -0.2879
     20 H         -17.6410   -5.3180   19.3288 H       1  UNL1        0.1238
     21 C         -16.4044   -6.7984   18.6557 C.3     1  UNL1        0.0961
     22 C         -16.7173   -8.2623   18.7503 C.3     1  UNL1        0.1027
     23 O         -15.5866   -8.1737   19.7320 O.3     1  UNL1       -0.3854
     24 C         -17.7393   -7.8425   17.7358 C.3     1  UNL1        0.0283
     25 C         -18.6816   -8.8558   17.1568 C.3     1  UNL1        0.0024
     26 C         -18.6019  -10.2890   17.5924 C.3     1  UNL1        0.0002
     27 C         -17.5800  -10.7088   18.6069 C.3     1  UNL1        0.0024
     28 C         -16.6376   -9.6955   19.1859 C.3     1  UNL1        0.0283
     29 H         -15.2707   -7.2578   19.7795 H       1  UNL1        0.2103
@<TRIPOS>BOND
     1    16    17    1
     2    17     1    1
     3     1     2   ar
     4     2     3   ar
     5     3     4   ar
     6     4     5   ar
     7     5     6   ar
     8     6     7    1
     9     7    13    1
    10    13    14    1
    11    13    15    1
    12     7     8    1
    13     8     9   am
    14     9    10    2
    15     9    18    1
    16    18    19    1
    17    19    21    1
    18    21    22    1
    19    22    23    1
    20    22    24    1
    21    24    25    1
    22    25    26    1
    23    26    27    1
    24    27    28    1
    25     8    11    1
    26    11    12    1
    27     6     1   ar
    28    28    22    1
    29    12     5    1
    30    19    20    1
    31    23    29    1
