@<TRIPOS>MOLECULE
*****
 17 18 0 0 0
SMALL
GASTEIGER

@<TRIPOS>ATOM
      1 C          -8.9940  -16.2360   23.6342 C.ar    1  UNL1        0.1461
      2 C          -8.8960  -15.5895   24.9842 C.ar    1  UNL1        0.0403
      3 C          -7.4571  -15.2435   25.2291 C.ar    1  UNL1        0.0375
      4 C          -6.6658  -15.6762   24.0305 C.ar    1  UNL1        0.1385
      5 O          -7.6157  -16.2895   23.0448 O.2     1  UNL1       -0.4563
      6 C         -10.9476  -17.9462   23.5429 C.ar    1  UNL1       -0.0162
      7 C         -12.2034  -18.4505   22.8959 C.ar    1  UNL1        0.0165
      8 C         -12.7614  -17.7490   21.6932 C.ar    1  UNL1        0.0986
      9 N         -12.0636  -16.5431   21.1375 N.ar    1  UNL1       -0.2422
     10 C         -10.8078  -16.0388   21.7845 C.ar    1  UNL1        0.1016
     11 C         -10.2498  -16.7403   22.9872 C.ar    1  UNL1        0.0497
     12 C         -10.0682  -20.1114   24.6781 C.3     1  UNL1        0.0050
     13 C         -10.3897  -18.6478   24.7456 C.3     1  UNL1        0.0266
     14 C          -5.1848  -15.5224   23.8493 C.3     1  UNL1        0.1307
     15 N          -4.6492  -14.5309   22.8594 N.3     1  UNL1       -0.3148
     16 H          -4.9076  -14.8191   21.9157 H       1  UNL1        0.1192
     17 H          -3.6329  -14.4891   22.9359 H       1  UNL1        0.1192
@<TRIPOS>BOND
     1    12    13    1
     2    13     6    1
     3     6     7   ar
     4     7     8   ar
     5     8     9   ar
     6     9    10   ar
     7    10    11   ar
     8    11     1    1
     9     1     2   ar
    10     2     3   ar
    11     3     4   ar
    12     4    14    1
    13    14    15    1
    14     4     5   ar
    15    11     6   ar
    16     5     1   ar
    17    15    16    1
    18    15    17    1
@<TRIPOS>MOLECULE
*****
 17 18 0 0 0
SMALL
GASTEIGER

@<TRIPOS>ATOM
      1 C          -9.4181  -18.6476   20.7750 C.ar    1  UNL1        0.1461
      2 C          -9.4841  -19.5017   19.5437 C.ar    1  UNL1        0.0403
      3 C          -8.0809  -19.8581   19.1510 C.ar    1  UNL1        0.0375
      4 C          -7.1477  -19.2243   20.1397 C.ar    1  UNL1        0.1385
      5 O          -7.9741  -18.4762   21.1434 O.2     1  UNL1       -0.4563
      6 C         -11.2185  -18.8268   22.6395 C.ar    1  UNL1       -0.0162
      7 C         -12.3906  -18.2461   23.3736 C.ar    1  UNL1        0.0165
      8 C         -12.9344  -16.9055   22.9774 C.ar    1  UNL1        0.0986
      9 N         -12.3061  -16.1456   21.8470 N.ar    1  UNL1       -0.2422
     10 C         -11.1340  -16.7263   21.1129 C.ar    1  UNL1        0.1016
     11 C         -10.5902  -18.0669   21.5092 C.ar    1  UNL1        0.0497
     12 C          -9.7656  -20.2869   24.2229 C.3     1  UNL1        0.0050
     13 C         -10.6747  -20.1674   23.0358 C.3     1  UNL1        0.0266
     14 C          -5.6509  -19.3215   20.1269 C.3     1  UNL1        0.1307
     15 N          -4.8409  -18.3201   19.3581 N.3     1  UNL1       -0.3148
     16 H          -5.0273  -18.4256   18.3609 H       1  UNL1        0.1192
     17 H          -3.8488  -18.4761   19.5369 H       1  UNL1        0.1192
@<TRIPOS>BOND
     1    12    13    1
     2    13     6    1
     3     6     7   ar
     4     7     8   ar
     5     8     9   ar
     6     9    10   ar
     7    10    11   ar
     8    11     1    1
     9     1     2   ar
    10     2     3   ar
    11     3     4   ar
    12     4    14    1
    13    14    15    1
    14     4     5   ar
    15    11     6   ar
    16     5     1   ar
    17    15    16    1
    18    15    17    1
@<TRIPOS>MOLECULE
*****
 17 18 0 0 0
SMALL
GASTEIGER

@<TRIPOS>ATOM
      1 C          -8.3746  -18.5659   21.4155 C.ar    1  UNL1        0.1461
      2 C          -7.9765  -19.6808   22.3367 C.ar    1  UNL1        0.0403
      3 C          -6.5681  -20.0760   22.0045 C.ar    1  UNL1        0.0375
      4 C          -6.0957  -19.2052   20.8781 C.ar    1  UNL1        0.1385
      5 O          -7.2122  -18.2720   20.5141 O.2     1  UNL1       -0.4563
      6 C          -9.9967  -16.7926   22.4026 C.ar    1  UNL1       -0.0162
      7 C         -11.3240  -16.0943   22.3858 C.ar    1  UNL1        0.0165
      8 C         -12.3567  -16.4707   21.3651 C.ar    1  UNL1        0.0986
      9 N         -12.0620  -17.5455   20.3612 N.ar    1  UNL1       -0.2422
     10 C         -10.7347  -18.2439   20.3780 C.ar    1  UNL1        0.1016
     11 C          -9.7020  -17.8675   21.3987 C.ar    1  UNL1        0.0497
     12 C          -9.0872  -16.9128   24.8333 C.3     1  UNL1        0.0050
     13 C          -8.9640  -16.4162   23.4233 C.3     1  UNL1        0.0266
     14 C          -4.7442  -19.2585   20.2296 C.3     1  UNL1        0.1307
     15 N          -4.3299  -18.1826   19.2700 N.3     1  UNL1       -0.3148
     16 H          -4.9198  -18.2228   18.4388 H       1  UNL1        0.1192
     17 H          -3.3556  -18.3223   19.0025 H       1  UNL1        0.1192
@<TRIPOS>BOND
     1    12    13    1
     2    13     6    1
     3     6     7   ar
     4     7     8   ar
     5     8     9   ar
     6     9    10   ar
     7    10    11   ar
     8    11     1    1
     9     1     2   ar
    10     2     3   ar
    11     3     4   ar
    12     4    14    1
    13    14    15    1
    14     4     5   ar
    15    11     6   ar
    16     5     1   ar
    17    15    16    1
    18    15    17    1
@<TRIPOS>MOLECULE
*****
 17 18 0 0 0
SMALL
GASTEIGER

@<TRIPOS>ATOM
      1 C          -8.2102  -18.6035   21.5803 C.ar    1  UNL1        0.1461
      2 C          -7.7658  -19.7553   22.4323 C.ar    1  UNL1        0.0403
      3 C          -6.3718  -20.1257   22.0205 C.ar    1  UNL1        0.0375
      4 C          -5.9547  -19.2029   20.9139 C.ar    1  UNL1        0.1385
      5 O          -7.0909  -18.2622   20.6419 O.2     1  UNL1       -0.4563
      6 C         -10.7344  -18.5134   20.9715 C.ar    1  UNL1       -0.0162
      7 C         -12.0645  -17.8240   21.0450 C.ar    1  UNL1        0.0165
      8 C         -12.2008  -16.5354   21.8007 C.ar    1  UNL1        0.0986
      9 N         -11.0068  -15.9363   22.4829 N.ar    1  UNL1       -0.2422
     10 C          -9.6767  -16.6256   22.4095 C.ar    1  UNL1        0.1016
     11 C          -9.5405  -17.9142   21.6537 C.ar    1  UNL1        0.0497
     12 C          -9.7927  -19.8482   18.9513 C.3     1  UNL1        0.0050
     13 C         -10.5982  -19.8019   20.2158 C.3     1  UNL1        0.0266
     14 C          -4.6334  -19.2182   20.2040 C.3     1  UNL1        0.1307
     15 N          -4.3130  -18.1576   19.1928 N.3     1  UNL1       -0.3148
     16 H          -4.9381  -18.2513   18.3922 H       1  UNL1        0.1192
     17 H          -3.3467  -18.2632   18.8839 H       1  UNL1        0.1192
@<TRIPOS>BOND
     1    12    13    1
     2    13     6    1
     3     6     7   ar
     4     7     8   ar
     5     8     9   ar
     6     9    10   ar
     7    10    11   ar
     8    11     1    1
     9     1     2   ar
    10     2     3   ar
    11     3     4   ar
    12     4    14    1
    13    14    15    1
    14     4     5   ar
    15    11     6   ar
    16     5     1   ar
    17    15    16    1
    18    15    17    1
@<TRIPOS>MOLECULE
*****
 17 18 0 0 0
SMALL
GASTEIGER

@<TRIPOS>ATOM
      1 C          -9.4211  -17.5265   24.1751 C.ar    1  UNL1        0.1461
      2 C          -9.7939  -18.7504   24.9579 C.ar    1  UNL1        0.0403
      3 C         -11.2557  -19.0099   24.7443 C.ar    1  UNL1        0.0375
      4 C         -11.7865  -17.9463   23.8293 C.ar    1  UNL1        0.1385
      5 O         -10.6526  -17.0295   23.4776 O.2     1  UNL1       -0.4563
      6 C          -7.6345  -15.8993   25.1293 C.ar    1  UNL1       -0.0162
      7 C          -6.2699  -15.2809   25.0566 C.ar    1  UNL1        0.0165
      8 C          -5.3272  -15.6712   23.9571 C.ar    1  UNL1        0.0986
      9 N          -5.7491  -16.6798   22.9302 N.ar    1  UNL1       -0.2422
     10 C          -7.1137  -17.2983   23.0029 C.ar    1  UNL1        0.1016
     11 C          -8.0564  -16.9080   24.1024 C.ar    1  UNL1        0.0497
     12 C          -8.3780  -16.0484   27.6142 C.3     1  UNL1        0.0050
     13 C          -8.5772  -15.5090   26.2288 C.3     1  UNL1        0.0266
     14 C         -13.2024  -17.8215   23.3503 C.3     1  UNL1        0.1307
     15 N         -14.3390  -18.0506   24.3019 N.3     1  UNL1       -0.3148
     16 H         -14.3440  -19.0271   24.5967 H       1  UNL1        0.1192
     17 H         -15.2205  -17.8310   23.8379 H       1  UNL1        0.1192
@<TRIPOS>BOND
     1    12    13    1
     2    13     6    1
     3     6     7   ar
     4     7     8   ar
     5     8     9   ar
     6     9    10   ar
     7    10    11   ar
     8    11     1    1
     9     1     2   ar
    10     2     3   ar
    11     3     4   ar
    12     4    14    1
    13    14    15    1
    14     4     5   ar
    15    11     6   ar
    16     5     1   ar
    17    15    16    1
    18    15    17    1
@<TRIPOS>MOLECULE
*****
 17 18 0 0 0
SMALL
GASTEIGER

@<TRIPOS>ATOM
      1 C          -9.6325  -18.7518   21.0636 C.ar    1  UNL1        0.1461
      2 C          -9.7143  -19.4096   19.7180 C.ar    1  UNL1        0.0403
      3 C          -8.3175  -19.7209   19.2686 C.ar    1  UNL1        0.0375
      4 C          -7.3724  -19.2556   20.3366 C.ar    1  UNL1        0.1385
      5 O          -8.1852  -18.6567   21.4459 O.2     1  UNL1       -0.4563
      6 C         -11.4130  -16.9369   21.5984 C.ar    1  UNL1       -0.0162
      7 C         -12.5746  -16.4583   22.4179 C.ar    1  UNL1        0.0165
      8 C         -13.1174  -17.3162   23.5222 C.ar    1  UNL1        0.0986
      9 N         -12.4986  -18.6526   23.8069 N.ar    1  UNL1       -0.2422
     10 C         -11.3370  -19.1311   22.9874 C.ar    1  UNL1        0.1016
     11 C         -10.7942  -18.2732   21.8832 C.ar    1  UNL1        0.0497
     12 C         -11.7219  -15.7662   19.2997 C.3     1  UNL1        0.0050
     13 C         -10.8702  -16.0790   20.4941 C.3     1  UNL1        0.0266
     14 C          -5.8771  -19.3692   20.3013 C.3     1  UNL1        0.1307
     15 N          -5.0745  -18.4406   19.4390 N.3     1  UNL1       -0.3148
     16 H          -5.2828  -18.6230   18.4573 H       1  UNL1        0.1192
     17 H          -4.0804  -18.5923   19.6095 H       1  UNL1        0.1192
@<TRIPOS>BOND
     1    12    13    1
     2    13     6    1
     3     6     7   ar
     4     7     8   ar
     5     8     9   ar
     6     9    10   ar
     7    10    11   ar
     8    11     1    1
     9     1     2   ar
    10     2     3   ar
    11     3     4   ar
    12     4    14    1
    13    14    15    1
    14     4     5   ar
    15    11     6   ar
    16     5     1   ar
    17    15    16    1
    18    15    17    1
@<TRIPOS>MOLECULE
*****
 17 18 0 0 0
SMALL
GASTEIGER

@<TRIPOS>ATOM
      1 C          -6.4906  -19.6290   20.6846 C.ar    1  UNL1        0.1461
      2 C          -5.8374  -20.9493   20.4015 C.ar    1  UNL1        0.0403
      3 C          -4.4027  -20.6903   20.0483 C.ar    1  UNL1        0.0375
      4 C          -4.1693  -19.2099   20.1131 C.ar    1  UNL1        0.1385
      5 O          -5.4597  -18.5541   20.5063 O.2     1  UNL1       -0.4563
      6 C          -9.0019  -19.4763   20.0361 C.ar    1  UNL1       -0.0162
      7 C         -10.4345  -19.2676   20.4286 C.ar    1  UNL1        0.0165
      8 C         -10.7885  -19.0029   21.8620 C.ar    1  UNL1        0.0986
      9 N          -9.7100  -18.9469   22.9029 N.ar    1  UNL1       -0.2422
     10 C          -8.2774  -19.1556   22.5104 C.ar    1  UNL1        0.1016
     11 C          -7.9233  -19.4203   21.0770 C.ar    1  UNL1        0.0497
     12 C          -8.9427  -21.0790   17.9921 C.3     1  UNL1        0.0050
     13 C          -8.6478  -19.7410   18.6027 C.3     1  UNL1        0.0266
     14 C          -2.8731  -18.5087   19.8337 C.3     1  UNL1        0.1307
     15 N          -1.5995  -19.0164   20.4420 N.3     1  UNL1       -0.3148
     16 H          -1.6387  -18.9053   21.4552 H       1  UNL1        0.1192
     17 H          -0.8109  -18.4857   20.0721 H       1  UNL1        0.1192
@<TRIPOS>BOND
     1    12    13    1
     2    13     6    1
     3     6     7   ar
     4     7     8   ar
     5     8     9   ar
     6     9    10   ar
     7    10    11   ar
     8    11     1    1
     9     1     2   ar
    10     2     3   ar
    11     3     4   ar
    12     4    14    1
    13    14    15    1
    14     4     5   ar
    15    11     6   ar
    16     5     1   ar
    17    15    16    1
    18    15    17    1
@<TRIPOS>MOLECULE
*****
 17 18 0 0 0
SMALL
GASTEIGER

@<TRIPOS>ATOM
      1 C         -10.6988  -17.5843   22.5995 C.ar    1  UNL1        0.1461
      2 C         -11.4420  -16.3759   22.1125 C.ar    1  UNL1        0.0403
      3 C         -12.8360  -16.4360   22.6631 C.ar    1  UNL1        0.0375
      4 C         -12.9543  -17.6816   23.4904 C.ar    1  UNL1        0.1385
      5 O         -11.6334  -18.3913   23.4511 O.2     1  UNL1       -0.4563
      6 C          -8.9558  -18.9322   21.2228 C.ar    1  UNL1       -0.0162
      7 C          -7.5285  -19.2737   20.9127 C.ar    1  UNL1        0.0165
      8 C          -6.4169  -18.6089   21.6692 C.ar    1  UNL1        0.0986
      9 N          -6.7325  -17.6026   22.7358 N.ar    1  UNL1       -0.2422
     10 C          -8.1598  -17.2611   23.0459 C.ar    1  UNL1        0.1016
     11 C          -9.2714  -17.9259   22.2894 C.ar    1  UNL1        0.0497
     12 C          -9.8695  -19.9875   19.0316 C.3     1  UNL1        0.0050
     13 C         -10.0674  -19.5970   20.4662 C.3     1  UNL1        0.0266
     14 C         -14.1786  -18.1375   24.2276 C.3     1  UNL1        0.1307
     15 N         -14.0706  -18.5882   25.6542 N.3     1  UNL1       -0.3148
     16 H         -13.5158  -19.4429   25.6997 H       1  UNL1        0.1192
     17 H         -15.0034  -18.7682   26.0254 H       1  UNL1        0.1192
@<TRIPOS>BOND
     1    12    13    1
     2    13     6    1
     3     6     7   ar
     4     7     8   ar
     5     8     9   ar
     6     9    10   ar
     7    10    11   ar
     8    11     1    1
     9     1     2   ar
    10     2     3   ar
    11     3     4   ar
    12     4    14    1
    13    14    15    1
    14     4     5   ar
    15    11     6   ar
    16     5     1   ar
    17    15    16    1
    18    15    17    1
@<TRIPOS>MOLECULE
*****
 17 18 0 0 0
SMALL
GASTEIGER

@<TRIPOS>ATOM
      1 C          -8.9230  -16.4743   23.1821 C.ar    1  UNL1        0.1461
      2 C          -7.7244  -15.5912   22.9990 C.ar    1  UNL1        0.0403
      3 C          -7.2870  -15.1167   24.3531 C.ar    1  UNL1        0.0375
      4 C          -8.2153  -15.7066   25.3731 C.ar    1  UNL1        0.1385
      5 O          -9.2264  -16.5457   24.6494 O.2     1  UNL1       -0.4563
      6 C          -9.5652  -18.6499   21.9155 C.ar    1  UNL1       -0.0162
      7 C         -10.3267  -19.3405   20.8231 C.ar    1  UNL1        0.0165
      8 C         -11.2076  -18.5460   19.9051 C.ar    1  UNL1        0.0986
      9 N         -11.3270  -17.0609   20.0794 N.ar    1  UNL1       -0.2422
     10 C         -10.5654  -16.3704   21.1717 C.ar    1  UNL1        0.1016
     11 C          -9.6845  -17.1649   22.0898 C.ar    1  UNL1        0.0497
     12 C          -9.2933  -20.3994   23.8169 C.3     1  UNL1        0.0050
     13 C          -8.6842  -19.4444   22.8335 C.3     1  UNL1        0.0266
     14 C          -8.1448  -15.4947   26.8564 C.3     1  UNL1        0.1307
     15 N          -6.9769  -14.7689   27.4556 N.3     1  UNL1       -0.3148
     16 H          -6.1290  -15.3199   27.3215 H       1  UNL1        0.1192
     17 H          -7.1381  -14.6305   28.4533 H       1  UNL1        0.1192
@<TRIPOS>BOND
     1    12    13    1
     2    13     6    1
     3     6     7   ar
     4     7     8   ar
     5     8     9   ar
     6     9    10   ar
     7    10    11   ar
     8    11     1    1
     9     1     2   ar
    10     2     3   ar
    11     3     4   ar
    12     4    14    1
    13    14    15    1
    14     4     5   ar
    15    11     6   ar
    16     5     1   ar
    17    15    16    1
    18    15    17    1
