@<TRIPOS>MOLECULE
*****
 34 38 0 0 0
SMALL
GASTEIGER

@<TRIPOS>ATOM
      1 C           6.4864   -2.7923   32.0076 C.ar    1  UNL1        0.0291
      2 C           5.1361   -2.8729   32.6557 C.ar    1  UNL1        0.0036
      3 C           4.7786   -1.9278   33.7643 C.ar    1  UNL1        0.0152
      4 C           5.7714   -0.9019   34.2247 C.ar    1  UNL1        0.0593
      5 C           7.1218   -0.8213   33.5765 C.ar    1  UNL1        0.0446
      6 C           7.4792   -1.7664   32.4680 C.ar    1  UNL1        0.1414
      7 F           8.8296   -1.6858   31.8198 F       1  UNL1       -0.2041
      8 C           7.5590   -5.6276   28.6819 C.ar    1  UNL1        0.1178
      9 C           7.3018   -4.1809   28.3803 C.ar    1  UNL1        0.0221
     10 C           6.9442   -3.2359   29.4889 C.ar    1  UNL1        0.0033
     11 C           6.8440   -3.7374   30.8990 C.ar    1  UNL1        0.0213
     12 C           7.1012   -5.1841   31.2005 C.ar    1  UNL1        0.0990
     13 N           7.4587   -6.1292   30.0920 N.ar    1  UNL1       -0.2409
     14 C           7.9165   -6.5728   27.5733 C.2     1  UNL1        0.2133
     15 O           9.1494   -7.4206   27.6790 O.2     1  UNL1       -0.2877
     16 C           7.0412   -6.6701   26.3591 C.3     1  UNL1        0.1781
     17 C           6.6569   -4.0981   24.3877 C.3     1  UNL1        0.0719
     18 C           7.4591   -5.3288   24.0850 C.ar    1  UNL1        0.1212
     19 N           8.2256   -5.5934   22.8230 N.ar    1  UNL1       -0.2293
     20 C           8.8760   -6.9392   22.9492 C.ar    1  UNL1        0.1188
     21 C           8.5115   -7.5063   24.2893 C.ar    1  UNL1        0.0981
     22 N           7.6358   -6.5110   24.9911 N.ar    1  UNL1       -0.3062
     23 N           5.4139    0.0432   35.3332 N.am    1  UNL1       -0.2212
     24 C           4.2477    0.9865   35.3459 C.3     1  UNL1        0.1471
     25 C           4.2729    1.7373   36.6442 C.3     1  UNL1        0.2149
     26 O           5.4547    1.2580   37.4340 O.3     1  UNL1       -0.4342
     27 C           6.1598    0.2110   36.6237 C.2     1  UNL1        0.4088
     28 O           7.3942   -0.5369   37.0322 O.2     1  UNL1       -0.2258
     29 C           3.2891    2.7837   37.0769 C.3     1  UNL1        0.1745
     30 N           2.1373    2.4099   37.9621 N.ar    1  UNL1       -0.2264
     31 C           2.0608    1.2003   38.8458 C.ar    1  UNL1        0.1193
     32 C           0.7360    1.2229   39.5489 C.ar    1  UNL1        0.1441
     33 N          -0.0063    2.4465   39.0997 N.ar    1  UNL1       -0.1271
     34 N           0.8597    3.1802   38.1190 N.ar    1  UNL1       -0.0636
@<TRIPOS>BOND
     1    17    18    1
     2    18    19   ar
     3    19    20   ar
     4    20    21   ar
     5    21    22   ar
     6    22    16    1
     7    16    14    1
     8    14    15    2
     9    14     8    1
    10     8     9   ar
    11     9    10   ar
    12    10    11   ar
    13    11     1    1
    14     1     2   ar
    15     2     3   ar
    16     3     4   ar
    17     4    23    1
    18    23    24    1
    19    24    25    1
    20    25    29    1
    21    29    30    1
    22    30    31   ar
    23    31    32   ar
    24    32    33   ar
    25    33    34   ar
    26    25    26    1
    27    26    27    1
    28    27    28    2
    29     4     5   ar
    30     5     6   ar
    31     6     7    1
    32    11    12   ar
    33    12    13   ar
    34    22    18   ar
    35    13     8   ar
    36     6     1   ar
    37    27    23   am
    38    34    30   ar
@<TRIPOS>MOLECULE
*****
 34 38 0 0 0
SMALL
GASTEIGER

@<TRIPOS>ATOM
      1 C           6.2842   -3.3660   24.2601 C.ar    1  UNL1        0.0291
      2 C           5.8205   -2.3822   25.2931 C.ar    1  UNL1        0.0036
      3 C           5.9762   -2.6968   26.7515 C.ar    1  UNL1        0.0152
      4 C           6.5956   -3.9950   27.1768 C.ar    1  UNL1        0.0593
      5 C           7.0593   -4.9788   26.1436 C.ar    1  UNL1        0.0446
      6 C           6.9036   -4.6642   24.6853 C.ar    1  UNL1        0.1414
      7 F           7.3672   -5.6480   23.6522 F       1  UNL1       -0.2041
      8 C           5.8170   -2.4225   19.8850 C.ar    1  UNL1        0.1178
      9 C           4.8776   -3.3850   20.5491 C.ar    1  UNL1        0.0221
     10 C           5.0333   -3.6994   22.0074 C.ar    1  UNL1        0.0033
     11 C           6.1285   -3.0514   22.8016 C.ar    1  UNL1        0.0213
     12 C           7.0679   -2.0890   22.1375 C.ar    1  UNL1        0.0990
     13 N           6.9121   -1.7745   20.6792 N.ar    1  UNL1       -0.2409
     14 C           5.6613   -2.1080   18.4265 C.2     1  UNL1        0.2133
     15 O           6.8014   -2.3477   17.4817 O.2     1  UNL1       -0.2877
     16 C           4.3655   -1.5537   17.9130 C.3     1  UNL1        0.1781
     17 C           2.0133   -1.0812   20.1251 C.3     1  UNL1        0.0719
     18 C           2.7897   -0.0083   19.4208 C.ar    1  UNL1        0.1212
     19 N           2.6211    1.4702   19.6097 N.ar    1  UNL1       -0.2293
     20 C           3.5982    2.1669   18.7096 C.ar    1  UNL1        0.1188
     21 C           4.3706    1.1188   17.9644 C.ar    1  UNL1        0.0981
     22 N           3.8708   -0.2254   18.4040 N.ar    1  UNL1       -0.3062
     23 N           6.7513   -4.3096   28.6351 N.am    1  UNL1       -0.2212
     24 C           6.4279   -3.3897   29.7750 C.3     1  UNL1        0.1471
     25 C           6.7345   -4.1108   31.0540 C.3     1  UNL1        0.2149
     26 O           7.2474   -5.4764   30.7046 O.3     1  UNL1       -0.4342
     27 C           7.2578   -5.5992   29.2097 C.2     1  UNL1        0.4088
     28 O           7.6975   -6.8008   28.4268 O.2     1  UNL1       -0.2258
     29 C           6.5590   -3.5626   32.4391 C.3     1  UNL1        0.1745
     30 N           5.6467   -2.3952   32.6738 N.ar    1  UNL1       -0.2264
     31 C           6.0584   -0.9546   32.7432 C.ar    1  UNL1        0.1193
     32 C           4.8287   -0.1326   32.9925 C.ar    1  UNL1        0.1441
     33 N           3.6570   -1.0652   33.0771 N.ar    1  UNL1       -0.1271
     34 N           4.1625   -2.4637   32.8801 N.ar    1  UNL1       -0.0636
@<TRIPOS>BOND
     1    17    18    1
     2    18    19   ar
     3    19    20   ar
     4    20    21   ar
     5    21    22   ar
     6    22    16    1
     7    16    14    1
     8    14    15    2
     9    14     8    1
    10     8     9   ar
    11     9    10   ar
    12    10    11   ar
    13    11     1    1
    14     1     2   ar
    15     2     3   ar
    16     3     4   ar
    17     4    23    1
    18    23    24    1
    19    24    25    1
    20    25    29    1
    21    29    30    1
    22    30    31   ar
    23    31    32   ar
    24    32    33   ar
    25    33    34   ar
    26    25    26    1
    27    26    27    1
    28    27    28    2
    29     4     5   ar
    30     5     6   ar
    31     6     7    1
    32    11    12   ar
    33    12    13   ar
    34    22    18   ar
    35    13     8   ar
    36     6     1   ar
    37    27    23   am
    38    34    30   ar
@<TRIPOS>MOLECULE
*****
 34 38 0 0 0
SMALL
GASTEIGER

@<TRIPOS>ATOM
      1 C           2.9867    0.0558   24.0605 C.ar    1  UNL1        0.0291
      2 C           3.6502   -0.7641   25.1270 C.ar    1  UNL1        0.0036
      3 C           3.2889   -0.5546   26.5677 C.ar    1  UNL1        0.0152
      4 C           2.2642    0.4749   26.9419 C.ar    1  UNL1        0.0593
      5 C           1.6006    1.2948   25.8753 C.ar    1  UNL1        0.0446
      6 C           1.9619    1.0852   24.4347 C.ar    1  UNL1        0.1414
      7 F           1.2984    1.9052   23.3681 F       1  UNL1       -0.2041
      8 C           4.0703   -0.5729   19.7384 C.ar    1  UNL1        0.1178
      9 C           2.7977   -1.1497   20.2841 C.ar    1  UNL1        0.0221
     10 C           2.4365   -0.9401   21.7247 C.ar    1  UNL1        0.0033
     11 C           3.3479   -0.1538   22.6197 C.ar    1  UNL1        0.0213
     12 C           4.6205    0.4230   22.0741 C.ar    1  UNL1        0.0990
     13 N           4.9817    0.2134   20.6334 N.ar    1  UNL1       -0.2409
     14 C           4.4315   -0.7824   18.2976 C.2     1  UNL1        0.2133
     15 O           3.9374    0.1747   17.2537 O.2     1  UNL1       -0.2877
     16 C           5.2868   -1.9490   17.9009 C.3     1  UNL1        0.1781
     17 C           4.0163   -4.6845   19.1468 C.3     1  UNL1        0.0719
     18 C           5.3302   -4.0694   19.5280 C.ar    1  UNL1        0.1212
     19 N           6.2907   -4.6036   20.5488 N.ar    1  UNL1       -0.2293
     20 C           7.4685   -3.6764   20.6070 C.ar    1  UNL1        0.1188
     21 C           7.2357   -2.5691   19.6221 C.ar    1  UNL1        0.0981
     22 N           5.9142   -2.8120   18.9553 N.ar    1  UNL1       -0.3062
     23 N           1.9029    0.6844   28.3825 N.am    1  UNL1       -0.2212
     24 C           2.8682    0.8288   29.5216 C.3     1  UNL1        0.1471
     25 C           2.0748    1.0200   30.7802 C.3     1  UNL1        0.2149
     26 O           0.6192    0.9939   30.4189 O.3     1  UNL1       -0.4342
     27 C           0.5130    0.7865   28.9371 C.2     1  UNL1        0.4088
     28 O          -0.7598    0.6969   28.1484 O.2     1  UNL1       -0.2258
     29 C           2.6381    1.2049   32.1580 C.3     1  UNL1        0.1745
     30 N           3.3543    0.0732   32.8336 N.ar    1  UNL1       -0.2264
     31 C           4.1216    0.1579   34.1196 C.ar    1  UNL1        0.1193
     32 C           4.6704   -1.2049   34.4225 C.ar    1  UNL1        0.1441
     33 N           4.2421   -2.1318   33.3237 N.ar    1  UNL1       -0.1271
     34 N           3.4287   -1.3420   32.3417 N.ar    1  UNL1       -0.0636
@<TRIPOS>BOND
     1    17    18    1
     2    18    19   ar
     3    19    20   ar
     4    20    21   ar
     5    21    22   ar
     6    22    16    1
     7    16    14    1
     8    14    15    2
     9    14     8    1
    10     8     9   ar
    11     9    10   ar
    12    10    11   ar
    13    11     1    1
    14     1     2   ar
    15     2     3   ar
    16     3     4   ar
    17     4    23    1
    18    23    24    1
    19    24    25    1
    20    25    29    1
    21    29    30    1
    22    30    31   ar
    23    31    32   ar
    24    32    33   ar
    25    33    34   ar
    26    25    26    1
    27    26    27    1
    28    27    28    2
    29     4     5   ar
    30     5     6   ar
    31     6     7    1
    32    11    12   ar
    33    12    13   ar
    34    22    18   ar
    35    13     8   ar
    36     6     1   ar
    37    27    23   am
    38    34    30   ar
@<TRIPOS>MOLECULE
*****
 34 38 0 0 0
SMALL
GASTEIGER

@<TRIPOS>ATOM
      1 C           1.2250    1.7583   19.3511 C.ar    1  UNL1        0.0291
      2 C           0.8080    2.7761   18.3313 C.ar    1  UNL1        0.0036
      3 C          -0.4332    3.5901   18.5481 C.ar    1  UNL1        0.0152
      4 C          -1.2573    3.3863   19.7847 C.ar    1  UNL1        0.0593
      5 C          -0.8403    2.3684   20.8045 C.ar    1  UNL1        0.0446
      6 C           0.4009    1.5544   20.5878 C.ar    1  UNL1        0.1414
      7 F           0.8179    0.5365   21.6076 F       1  UNL1       -0.2041
      8 C           4.9484   -0.6837   18.7008 C.ar    1  UNL1        0.1178
      9 C           3.7908   -0.8151   17.7560 C.ar    1  UNL1        0.0221
     10 C           2.5497   -0.0011   17.9728 C.ar    1  UNL1        0.0033
     11 C           2.4662    0.9443   19.1344 C.ar    1  UNL1        0.0213
     12 C           3.6238    1.0756   20.0792 C.ar    1  UNL1        0.0990
     13 N           4.8648    0.2616   19.8624 N.ar    1  UNL1       -0.2409
     14 C           6.1896   -1.4978   18.4840 C.2     1  UNL1        0.2133
     15 O           6.8656   -1.4924   17.1450 O.2     1  UNL1       -0.2877
     16 C           6.7546   -2.3171   19.6062 C.3     1  UNL1        0.1781
     17 C           4.6301   -4.6925   18.9042 C.3     1  UNL1        0.0719
     18 C           4.8575   -4.0844   20.2564 C.ar    1  UNL1        0.1212
     19 N           4.1485   -4.4615   21.5233 N.ar    1  UNL1       -0.2293
     20 C           4.6868   -3.6026   22.6291 C.ar    1  UNL1        0.1188
     21 C           5.7286   -2.6947   22.0455 C.ar    1  UNL1        0.0981
     22 N           5.8341   -2.9926   20.5791 N.ar    1  UNL1       -0.3062
     23 N          -2.4984    4.2002   20.0015 N.am    1  UNL1       -0.2212
     24 C          -3.9083    3.6920   19.9387 C.3     1  UNL1        0.1471
     25 C          -4.8289    4.8430   20.2175 C.3     1  UNL1        0.2149
     26 O          -3.9878    6.0626   20.4526 O.3     1  UNL1       -0.4342
     27 C          -2.5476    5.6654   20.3191 C.2     1  UNL1        0.4088
     28 O          -1.3643    6.5738   20.4757 O.2     1  UNL1       -0.2258
     29 C          -6.3272    4.7846   20.2547 C.3     1  UNL1        0.1745
     30 N          -7.0536    4.9849   21.5518 N.ar    1  UNL1       -0.2264
     31 C          -6.9357    4.1195   22.7712 C.ar    1  UNL1        0.1193
     32 C          -7.8347    4.6856   23.8301 C.ar    1  UNL1        0.1441
     33 N          -8.5083    5.9009   23.2651 N.ar    1  UNL1       -0.1271
     34 N          -8.0256    6.0860   21.8570 N.ar    1  UNL1       -0.0636
@<TRIPOS>BOND
     1    17    18    1
     2    18    19   ar
     3    19    20   ar
     4    20    21   ar
     5    21    22   ar
     6    22    16    1
     7    16    14    1
     8    14    15    2
     9    14     8    1
    10     8     9   ar
    11     9    10   ar
    12    10    11   ar
    13    11     1    1
    14     1     2   ar
    15     2     3   ar
    16     3     4   ar
    17     4    23    1
    18    23    24    1
    19    24    25    1
    20    25    29    1
    21    29    30    1
    22    30    31   ar
    23    31    32   ar
    24    32    33   ar
    25    33    34   ar
    26    25    26    1
    27    26    27    1
    28    27    28    2
    29     4     5   ar
    30     5     6   ar
    31     6     7    1
    32    11    12   ar
    33    12    13   ar
    34    22    18   ar
    35    13     8   ar
    36     6     1   ar
    37    27    23   am
    38    34    30   ar
@<TRIPOS>MOLECULE
*****
 34 38 0 0 0
SMALL
GASTEIGER

@<TRIPOS>ATOM
      1 C           6.0354   -3.4078   22.4607 C.ar    1  UNL1        0.0291
      2 C           5.5115   -3.1218   23.8368 C.ar    1  UNL1        0.0036
      3 C           6.1097   -3.8136   25.0258 C.ar    1  UNL1        0.0152
      4 C           7.2318   -4.7913   24.8387 C.ar    1  UNL1        0.0593
      5 C           7.7556   -5.0773   23.4624 C.ar    1  UNL1        0.0446
      6 C           7.1574   -4.3855   22.2735 C.ar    1  UNL1        0.1414
      7 F           7.6813   -4.6715   20.8973 F       1  UNL1       -0.2041
      8 C           4.2408   -1.3327   18.8938 C.ar    1  UNL1        0.1178
      9 C           3.6012   -2.5751   19.4389 C.ar    1  UNL1        0.0221
     10 C           4.1994   -3.2668   20.6279 C.ar    1  UNL1        0.0033
     11 C           5.4372   -2.7160   21.2717 C.ar    1  UNL1        0.0213
     12 C           6.0768   -1.4736   20.7265 C.ar    1  UNL1        0.0990
     13 N           5.4786   -0.7819   19.5376 N.ar    1  UNL1       -0.2409
     14 C           3.6426   -0.6409   17.7047 C.2     1  UNL1        0.2133
     15 O           4.0713   -1.0249   16.3195 O.2     1  UNL1       -0.2877
     16 C           2.6158    0.4348   17.9010 C.3     1  UNL1        0.1781
     17 C           0.6342   -0.2445   20.4032 C.3     1  UNL1        0.0719
     18 C           1.6388    0.8681   20.3511 C.ar    1  UNL1        0.1212
     19 N           1.9090    1.8638   21.4399 N.ar    1  UNL1       -0.2293
     20 C           2.9868    2.7915   20.9627 C.ar    1  UNL1        0.1188
     21 C           3.3828    2.3691   19.5788 C.ar    1  UNL1        0.0981
     22 N           2.5497    1.1804   19.2009 N.ar    1  UNL1       -0.3062
     23 N           7.8300   -5.4831   26.0276 N.am    1  UNL1       -0.2212
     24 C           8.2565   -4.8268   27.3072 C.3     1  UNL1        0.1471
     25 C           8.7968   -5.8907   28.2161 C.3     1  UNL1        0.2149
     26 O           8.7042   -7.2045   27.4982 O.3     1  UNL1       -0.4342
     27 C           8.1067   -6.9526   26.1457 C.2     1  UNL1        0.4088
     28 O           7.8338   -7.9883   25.0956 O.2     1  UNL1       -0.2258
     29 C           9.3352   -5.6781   29.6000 C.3     1  UNL1        0.1745
     30 N           8.5499   -4.8764   30.5953 N.ar    1  UNL1       -0.2264
     31 C           7.1463   -5.1578   31.0433 C.ar    1  UNL1        0.1193
     32 C           6.7594   -4.1078   32.0422 C.ar    1  UNL1        0.1441
     33 N           7.9239   -3.1775   32.2115 N.ar    1  UNL1       -0.1271
     34 N           9.0305   -3.6525   31.3173 N.ar    1  UNL1       -0.0636
@<TRIPOS>BOND
     1    17    18    1
     2    18    19   ar
     3    19    20   ar
     4    20    21   ar
     5    21    22   ar
     6    22    16    1
     7    16    14    1
     8    14    15    2
     9    14     8    1
    10     8     9   ar
    11     9    10   ar
    12    10    11   ar
    13    11     1    1
    14     1     2   ar
    15     2     3   ar
    16     3     4   ar
    17     4    23    1
    18    23    24    1
    19    24    25    1
    20    25    29    1
    21    29    30    1
    22    30    31   ar
    23    31    32   ar
    24    32    33   ar
    25    33    34   ar
    26    25    26    1
    27    26    27    1
    28    27    28    2
    29     4     5   ar
    30     5     6   ar
    31     6     7    1
    32    11    12   ar
    33    12    13   ar
    34    22    18   ar
    35    13     8   ar
    36     6     1   ar
    37    27    23   am
    38    34    30   ar
@<TRIPOS>MOLECULE
*****
 34 38 0 0 0
SMALL
GASTEIGER

@<TRIPOS>ATOM
      1 C          -0.2143    2.2435   20.9206 C.ar    1  UNL1        0.0291
      2 C          -1.3346    2.8154   20.1034 C.ar    1  UNL1        0.0036
      3 C          -2.4112    3.6220   20.7670 C.ar    1  UNL1        0.0152
      4 C          -2.3674    3.8568   22.2479 C.ar    1  UNL1        0.0593
      5 C          -1.2471    3.2849   23.0651 C.ar    1  UNL1        0.0446
      6 C          -0.1706    2.4783   22.4015 C.ar    1  UNL1        0.1414
      7 F           0.9498    1.9064   23.2188 F       1  UNL1       -0.2041
      8 C           3.0153   -0.1764   18.9299 C.ar    1  UNL1        0.1178
      9 C           1.9809   -0.8581   19.7756 C.ar    1  UNL1        0.0221
     10 C           0.9044   -0.0514   20.4392 C.ar    1  UNL1        0.0033
     11 C           0.8623    1.4369   20.2570 C.ar    1  UNL1        0.0213
     12 C           1.8967    2.1185   19.4112 C.ar    1  UNL1        0.0990
     13 N           2.9732    1.3119   18.7477 N.ar    1  UNL1       -0.2409
     14 C           4.0919   -0.9831   18.2663 C.2     1  UNL1        0.2133
     15 O           4.0249   -1.2549   16.7926 O.2     1  UNL1       -0.2877
     16 C           5.2355   -1.5179   19.0763 C.3     1  UNL1        0.1781
     17 C           4.4664   -4.6724   18.7488 C.3     1  UNL1        0.0719
     18 C           4.6221   -3.9328   20.0444 C.ar    1  UNL1        0.1212
     19 N           4.4516   -4.5133   21.4170 N.ar    1  UNL1       -0.2293
     20 C           4.6997   -3.4221   22.4159 C.ar    1  UNL1        0.1188
     21 C           5.0236   -2.1671   21.6606 C.ar    1  UNL1        0.0981
     22 N           4.9756   -2.4829   20.1950 N.ar    1  UNL1       -0.3062
     23 N          -3.4439    4.6634   22.9115 N.am    1  UNL1       -0.2212
     24 C          -4.7347    4.1301   23.4588 C.3     1  UNL1        0.1471
     25 C          -5.5072    5.2820   24.0299 C.3     1  UNL1        0.2149
     26 O          -4.6939    6.5273   23.8356 O.3     1  UNL1       -0.4342
     27 C          -3.4187    6.1450   23.1444 C.2     1  UNL1        0.4088
     28 O          -2.3126    7.0801   22.7546 O.2     1  UNL1       -0.2258
     29 C          -6.8562    5.2026   24.6810 C.3     1  UNL1        0.1745
     30 N          -7.0984    5.8918   25.9912 N.ar    1  UNL1       -0.2264
     31 C          -6.1055    6.0414   27.1055 C.ar    1  UNL1        0.1193
     32 C          -6.7695    6.7944   28.2200 C.ar    1  UNL1        0.1441
     33 N          -8.1728    7.1102   27.7944 N.ar    1  UNL1       -0.1271
     34 N          -8.3761    6.5524   26.4170 N.ar    1  UNL1       -0.0636
@<TRIPOS>BOND
     1    17    18    1
     2    18    19   ar
     3    19    20   ar
     4    20    21   ar
     5    21    22   ar
     6    22    16    1
     7    16    14    1
     8    14    15    2
     9    14     8    1
    10     8     9   ar
    11     9    10   ar
    12    10    11   ar
    13    11     1    1
    14     1     2   ar
    15     2     3   ar
    16     3     4   ar
    17     4    23    1
    18    23    24    1
    19    24    25    1
    20    25    29    1
    21    29    30    1
    22    30    31   ar
    23    31    32   ar
    24    32    33   ar
    25    33    34   ar
    26    25    26    1
    27    26    27    1
    28    27    28    2
    29     4     5   ar
    30     5     6   ar
    31     6     7    1
    32    11    12   ar
    33    12    13   ar
    34    22    18   ar
    35    13     8   ar
    36     6     1   ar
    37    27    23   am
    38    34    30   ar
@<TRIPOS>MOLECULE
*****
 34 38 0 0 0
SMALL
GASTEIGER

@<TRIPOS>ATOM
      1 C           2.9991    0.2298   27.6236 C.ar    1  UNL1        0.0291
      2 C           1.9734   -0.4265   28.4994 C.ar    1  UNL1        0.0036
      3 C           1.8275   -0.0024   29.9309 C.ar    1  UNL1        0.0152
      4 C           2.7075    1.0778   30.4865 C.ar    1  UNL1        0.0593
      5 C           3.7334    1.7340   29.6106 C.ar    1  UNL1        0.0446
      6 C           3.8792    1.3100   28.1792 C.ar    1  UNL1        0.1414
      7 F           4.9050    1.9662   27.3033 F       1  UNL1       -0.2041
      8 C           3.4365   -1.0422   23.3294 C.ar    1  UNL1        0.1178
      9 C           2.4921    0.0656   23.6909 C.ar    1  UNL1        0.0221
     10 C           2.3463    0.4896   25.1223 C.ar    1  UNL1        0.0033
     11 C           3.1450   -0.1943   26.1922 C.ar    1  UNL1        0.0213
     12 C           4.0894   -1.3020   25.8306 C.ar    1  UNL1        0.0990
     13 N           4.2352   -1.7260   24.3992 N.ar    1  UNL1       -0.2409
     14 C           3.5824   -1.4662   21.8979 C.2     1  UNL1        0.2133
     15 O           2.5856   -1.0081   20.8748 O.2     1  UNL1       -0.2877
     16 C           4.7249   -2.3482   21.4896 C.3     1  UNL1        0.1781
     17 C           4.1594   -4.4757   19.0806 C.3     1  UNL1        0.0719
     18 C           5.0134   -3.2460   18.9884 C.ar    1  UNL1        0.1212
     19 N           5.7573   -2.7783   17.7728 N.ar    1  UNL1       -0.2293
     20 C           6.4770   -1.5113   18.1288 C.ar    1  UNL1        0.1188
     21 C           6.1779   -1.1959   19.5645 C.ar    1  UNL1        0.0981
     22 N           5.2733   -2.2681   20.0957 N.ar    1  UNL1       -0.3062
     23 N           2.5618    1.5018   31.9179 N.am    1  UNL1       -0.2212
     24 C           3.5436    1.2365   33.0204 C.3     1  UNL1        0.1471
     25 C           2.9972    1.8363   34.2820 C.3     1  UNL1        0.2149
     26 O           1.6776    2.4724   33.9591 O.3     1  UNL1       -0.4342
     27 C           1.4085    2.2656   32.4980 C.2     1  UNL1        0.4088
     28 O           0.1986    2.7396   31.7487 O.2     1  UNL1       -0.2258
     29 C           3.6549    1.8055   35.6298 C.3     1  UNL1        0.1745
     30 N           2.8214    1.9004   36.8733 N.ar    1  UNL1       -0.2264
     31 C           2.8649    0.9563   38.0381 C.ar    1  UNL1        0.1193
     32 C           1.8685    1.4286   39.0550 C.ar    1  UNL1        0.1441
     33 N           1.2093    2.6646   38.5188 N.ar    1  UNL1       -0.1271
     34 N           1.7982    2.9563   37.1704 N.ar    1  UNL1       -0.0636
@<TRIPOS>BOND
     1    17    18    1
     2    18    19   ar
     3    19    20   ar
     4    20    21   ar
     5    21    22   ar
     6    22    16    1
     7    16    14    1
     8    14    15    2
     9    14     8    1
    10     8     9   ar
    11     9    10   ar
    12    10    11   ar
    13    11     1    1
    14     1     2   ar
    15     2     3   ar
    16     3     4   ar
    17     4    23    1
    18    23    24    1
    19    24    25    1
    20    25    29    1
    21    29    30    1
    22    30    31   ar
    23    31    32   ar
    24    32    33   ar
    25    33    34   ar
    26    25    26    1
    27    26    27    1
    28    27    28    2
    29     4     5   ar
    30     5     6   ar
    31     6     7    1
    32    11    12   ar
    33    12    13   ar
    34    22    18   ar
    35    13     8   ar
    36     6     1   ar
    37    27    23   am
    38    34    30   ar
@<TRIPOS>MOLECULE
*****
 34 38 0 0 0
SMALL
GASTEIGER

@<TRIPOS>ATOM
      1 C           2.8032    0.1354   24.1085 C.ar    1  UNL1        0.0291
      2 C           3.5880   -0.4873   25.2248 C.ar    1  UNL1        0.0036
      3 C           3.1719   -0.2656   26.6488 C.ar    1  UNL1        0.0152
      4 C           1.9710    0.5789   26.9565 C.ar    1  UNL1        0.0593
      5 C           1.1861    1.2016   25.8401 C.ar    1  UNL1        0.0446
      6 C           1.6022    0.9799   24.4161 C.ar    1  UNL1        0.1414
      7 F           0.8174    1.6026   23.2997 F       1  UNL1       -0.2041
      8 C           4.0513   -0.5298   19.8365 C.ar    1  UNL1        0.1178
      9 C           2.7984   -1.1673   20.3597 C.ar    1  UNL1        0.0221
     10 C           2.3824   -0.9456   21.7837 C.ar    1  UNL1        0.0033
     11 C           3.2192   -0.0863   22.6844 C.ar    1  UNL1        0.0213
     12 C           4.4721    0.5512   22.1612 C.ar    1  UNL1        0.0990
     13 N           4.8881    0.3294   20.7373 N.ar    1  UNL1       -0.2409
     14 C           4.4673   -0.7515   18.4125 C.2     1  UNL1        0.2133
     15 O           3.7645   -0.0253   17.3041 O.2     1  UNL1       -0.2877
     16 C           5.5862   -1.6994   18.0969 C.3     1  UNL1        0.1781
     17 C           4.1241   -4.4709   19.0083 C.3     1  UNL1        0.0719
     18 C           5.4070   -3.9271   19.5634 C.ar    1  UNL1        0.1212
     19 N           6.2432   -4.5617   20.6349 N.ar    1  UNL1       -0.2293
     20 C           7.4321   -3.6800   20.8783 C.ar    1  UNL1        0.1188
     21 C           7.3306   -2.5004   19.9571 C.ar    1  UNL1        0.0981
     22 N           6.0791   -2.6532   19.1446 N.ar    1  UNL1       -0.3062
     23 N           1.5549    0.8006   28.3804 N.am    1  UNL1       -0.2212
     24 C           2.3924    1.4256   29.4566 C.3     1  UNL1        0.1471
     25 C           1.5833    1.4475   30.7195 C.3     1  UNL1        0.2149
     26 O           0.2459    0.8361   30.4238 O.3     1  UNL1       -0.4342
     27 C           0.2283    0.4363   28.9782 C.2     1  UNL1        0.4088
     28 O          -0.9151   -0.2137   28.2571 O.2     1  UNL1       -0.2258
     29 C           2.0328    1.9863   32.0453 C.3     1  UNL1        0.1745
     30 N           1.3252    3.1588   32.6573 N.ar    1  UNL1       -0.2264
     31 C           1.7129    3.8584   33.9262 C.ar    1  UNL1        0.1193
     32 C           0.7330    4.9695   34.1609 C.ar    1  UNL1        0.1441
     33 N          -0.2604    4.9566   33.0370 N.ar    1  UNL1       -0.1271
     34 N           0.1056    3.8375   32.1077 N.ar    1  UNL1       -0.0636
@<TRIPOS>BOND
     1    17    18    1
     2    18    19   ar
     3    19    20   ar
     4    20    21   ar
     5    21    22   ar
     6    22    16    1
     7    16    14    1
     8    14    15    2
     9    14     8    1
    10     8     9   ar
    11     9    10   ar
    12    10    11   ar
    13    11     1    1
    14     1     2   ar
    15     2     3   ar
    16     3     4   ar
    17     4    23    1
    18    23    24    1
    19    24    25    1
    20    25    29    1
    21    29    30    1
    22    30    31   ar
    23    31    32   ar
    24    32    33   ar
    25    33    34   ar
    26    25    26    1
    27    26    27    1
    28    27    28    2
    29     4     5   ar
    30     5     6   ar
    31     6     7    1
    32    11    12   ar
    33    12    13   ar
    34    22    18   ar
    35    13     8   ar
    36     6     1   ar
    37    27    23   am
    38    34    30   ar
@<TRIPOS>MOLECULE
*****
 34 38 0 0 0
SMALL
GASTEIGER

@<TRIPOS>ATOM
      1 C           1.2707    1.6422   20.4519 C.ar    1  UNL1        0.0291
      2 C           1.0607    1.7380   21.9340 C.ar    1  UNL1        0.0036
      3 C          -0.1440    2.4485   22.4764 C.ar    1  UNL1        0.0152
      4 C          -1.1385    3.0632   21.5367 C.ar    1  UNL1        0.0593
      5 C          -0.9284    2.9674   20.0545 C.ar    1  UNL1        0.0446
      6 C           0.2762    2.2569   19.5122 C.ar    1  UNL1        0.1414
      7 F           0.4863    2.1611   18.0300 F       1  UNL1       -0.2041
      8 C           4.8845   -0.4891   18.8247 C.ar    1  UNL1        0.1178
      9 C           5.0235    0.8871   19.4049 C.ar    1  UNL1        0.0221
     10 C           3.8190    1.5976   19.9473 C.ar    1  UNL1        0.0033
     11 C           2.4753    0.9317   19.9095 C.ar    1  UNL1        0.0213
     12 C           2.3363   -0.4445   19.3293 C.ar    1  UNL1        0.0990
     13 N           3.5409   -1.1549   18.7870 N.ar    1  UNL1       -0.2409
     14 C           6.0892   -1.1996   18.2823 C.2     1  UNL1        0.2133
     15 O           6.7084   -0.7486   16.9927 O.2     1  UNL1       -0.2877
     16 C           6.6745   -2.3611   19.0295 C.3     1  UNL1        0.1781
     17 C           4.5871   -4.8569   18.7782 C.3     1  UNL1        0.0719
     18 C           4.9513   -4.1360   20.0422 C.ar    1  UNL1        0.1212
     19 N           4.4200   -4.4357   21.4125 N.ar    1  UNL1       -0.2293
     20 C           5.0511   -3.4737   22.3750 C.ar    1  UNL1        0.1188
     21 C           5.9725   -2.5794   21.5994 C.ar    1  UNL1        0.0981
     22 N           5.9108   -2.9888   20.1577 N.ar    1  UNL1       -0.3062
     23 N          -2.3431    3.7737   22.0790 N.am    1  UNL1       -0.2212
     24 C          -3.7741    3.4329   21.7856 C.3     1  UNL1        0.1471
     25 C          -4.6436    4.3983   22.5352 C.3     1  UNL1        0.2149
     26 O          -3.7499    5.3357   23.2920 O.3     1  UNL1       -0.4342
     27 C          -2.3281    4.9497   23.0100 C.2     1  UNL1        0.4088
     28 O          -1.1060    5.6217   23.5621 O.2     1  UNL1       -0.2258
     29 C          -6.1434    4.4221   22.5292 C.3     1  UNL1        0.1745
     30 N          -6.8801    4.9695   21.3428 N.ar    1  UNL1       -0.2264
     31 C          -6.7522    4.4898   19.9273 C.ar    1  UNL1        0.1193
     32 C          -7.6671    5.3167   19.0733 C.ar    1  UNL1        0.1441
     33 N          -8.3603    6.3074   19.9609 N.ar    1  UNL1       -0.1271
     34 N          -7.8740    6.0929   21.3636 N.ar    1  UNL1       -0.0636
@<TRIPOS>BOND
     1    17    18    1
     2    18    19   ar
     3    19    20   ar
     4    20    21   ar
     5    21    22   ar
     6    22    16    1
     7    16    14    1
     8    14    15    2
     9    14     8    1
    10     8     9   ar
    11     9    10   ar
    12    10    11   ar
    13    11     1    1
    14     1     2   ar
    15     2     3   ar
    16     3     4   ar
    17     4    23    1
    18    23    24    1
    19    24    25    1
    20    25    29    1
    21    29    30    1
    22    30    31   ar
    23    31    32   ar
    24    32    33   ar
    25    33    34   ar
    26    25    26    1
    27    26    27    1
    28    27    28    2
    29     4     5   ar
    30     5     6   ar
    31     6     7    1
    32    11    12   ar
    33    12    13   ar
    34    22    18   ar
    35    13     8   ar
    36     6     1   ar
    37    27    23   am
    38    34    30   ar
