@<TRIPOS>MOLECULE
*****
 33 37 0 0 0
SMALL
GASTEIGER

@<TRIPOS>ATOM
      1 C         -16.0447   -4.1617   19.2794 C.ar    1  UNL1        0.2400
      2 N         -14.5548   -4.0790   19.1260 N.ar    1  UNL1       -0.1929
      3 C         -13.7693   -5.3036   18.7613 C.ar    1  UNL1        0.1705
      4 C         -14.4735   -6.6110   18.5500 C.ar    1  UNL1        0.1851
      5 C         -15.9634   -6.6938   18.7034 C.ar    1  UNL1        0.1183
      6 N         -16.7490   -5.4691   19.0680 N.ar    1  UNL1       -0.2106
      7 O         -13.6879   -7.8357   18.1853 O.3     1  UNL1       -0.4695
      8 C         -12.1981   -7.7530   18.0320 C.3     1  UNL1        0.2277
      9 C         -11.4938   -6.4456   18.2433 C.3     1  UNL1        0.1477
     10 C         -10.0040   -6.3628   18.0900 C.3     1  UNL1        0.1657
     11 O          -9.2997   -5.0554   18.3013 O.3     1  UNL1       -0.3501
     12 C         -10.0853   -3.8307   18.6660 C.3     1  UNL1        0.1636
     13 C         -11.5751   -3.9135   18.8193 C.3     1  UNL1        0.1244
     14 N         -12.2794   -5.2209   18.6080 N.pl3   1  UNL1       -0.2839
     15 C         -18.2332   -2.9149   20.1742 C.ar    1  UNL1        0.2041
     16 N         -18.6209   -1.4836   20.4004 N.ar    1  UNL1       -0.2134
     17 C         -17.4574   -0.6211   20.0100 C.ar    1  UNL1        0.1003
     18 C         -17.2628    0.8662   20.0198 C.ar    1  UNL1        0.0207
     19 C         -15.9614    1.4552   19.5620 C.ar    1  UNL1        0.0016
     20 C         -14.8547    0.5571   19.0945 C.ar    1  UNL1        0.0016
     21 C         -15.0494   -0.9302   19.0848 C.ar    1  UNL1        0.0192
     22 C         -16.3508   -1.5193   19.5425 C.ar    1  UNL1        0.0869
     23 N         -16.8302   -2.9370   19.6440 N.ar    1  UNL1       -0.2480
     24 C         -20.2048   -4.4590   19.4825 C.3     1  UNL1        0.1108
     25 N         -19.0970   -4.1137   20.4329 N.pl3   1  UNL1       -0.3023
     26 H         -18.9367   -4.6739   21.2265 H       1  UNL1        0.1497
     27 C         -16.6676   -8.0012   18.4920 C.3     1  UNL1        0.1486
     28 C         -16.5330   -8.3100   19.9537 C.3     1  UNL1        0.0298
     29 C         -16.8022   -7.6925   17.0304 C.3     1  UNL1        0.0298
     30 S         -17.3718   -9.3086   18.2807 S.O2    1  UNL1       -0.0064
     31 C         -18.0761  -10.6161   18.0694 C.3     1  UNL1        0.1764
     32 O         -18.5991   -8.5744   17.8284 O.2     1  UNL1       -0.1727
     33 O         -16.1445  -10.0428   18.7330 O.2     1  UNL1       -0.1727
@<TRIPOS>BOND
     1    24    25    1
     2    25    15    1
     3    15    16   ar
     4    16    17   ar
     5    17    18   ar
     6    18    19   ar
     7    19    20   ar
     8    20    21   ar
     9    21    22   ar
    10    22    23   ar
    11    23     1    1
    12     1     2   ar
    13     2     3   ar
    14     3     4   ar
    15     4     5   ar
    16     5    27    1
    17    27    28    1
    18    27    29    1
    19    27    30    1
    20    30    31    1
    21    30    32    2
    22    30    33    2
    23     5     6   ar
    24     4     7    1
    25     7     8    1
    26     9     8    1
    27     9    10    1
    28    10    11    1
    29    11    12    1
    30    12    13    1
    31    13    14    1
    32    23    15   ar
    33     6     1   ar
    34    14     9    1
    35    22    17   ar
    36    14     3    1
    37    25    26    1
@<TRIPOS>MOLECULE
*****
 33 37 0 0 0
SMALL
GASTEIGER

@<TRIPOS>ATOM
      1 C         -14.5014   -4.8246   19.0465 C.ar    1  UNL1        0.2400
      2 N         -15.5188   -3.7627   19.3419 N.ar    1  UNL1       -0.1929
      3 C         -16.9735   -4.1196   19.4225 C.ar    1  UNL1        0.1705
      4 C         -17.4108   -5.5382   19.2077 C.ar    1  UNL1        0.1851
      5 C         -16.3933   -6.6001   18.9124 C.ar    1  UNL1        0.1183
      6 N         -14.9386   -6.2433   18.8318 N.ar    1  UNL1       -0.2106
      7 O         -18.8655   -5.8950   19.2883 O.3     1  UNL1       -0.4695
      8 C         -19.8830   -4.8332   19.5837 C.3     1  UNL1        0.2277
      9 C         -19.4457   -3.4145   19.7984 C.3     1  UNL1        0.1477
     10 C         -20.4632   -2.3526   20.0937 C.3     1  UNL1        0.1657
     11 O         -20.0259   -0.9340   20.3085 O.3     1  UNL1       -0.3501
     12 C         -18.5712   -0.5771   20.2279 C.3     1  UNL1        0.1636
     13 C         -17.5537   -1.6390   19.9325 C.3     1  UNL1        0.1244
     14 N         -17.9910   -3.0576   19.7178 N.pl3   1  UNL1       -0.2839
     15 C         -12.4778   -3.0798   18.9684 C.ar    1  UNL1        0.2041
     16 N         -10.9850   -3.1904   18.8727 N.ar    1  UNL1       -0.2134
     17 C         -10.6312   -4.6468   18.8111 C.ar    1  UNL1        0.1003
     18 C          -9.3134   -5.3561   18.7100 C.ar    1  UNL1        0.0207
     19 C          -9.2698   -6.8549   18.6665 C.ar    1  UNL1        0.0016
     20 C         -10.5439   -7.6444   18.7241 C.ar    1  UNL1        0.0016
     21 C         -11.8617   -6.9350   18.8252 C.ar    1  UNL1        0.0192
     22 C         -11.9054   -5.4362   18.8687 C.ar    1  UNL1        0.0869
     23 N         -13.0467   -4.4677   18.9659 N.ar    1  UNL1       -0.2480
     24 C         -13.7113   -1.1162   17.7968 C.3     1  UNL1        0.1108
     25 N         -13.2639   -1.8049   19.0519 N.pl3   1  UNL1       -0.3023
     26 H         -13.4860   -1.4203   19.9304 H       1  UNL1        0.1497
     27 C         -16.8306   -8.0188   18.6977 C.3     1  UNL1        0.1486
     28 C         -16.9497   -7.7592   17.2251 C.3     1  UNL1        0.0298
     29 C         -16.7115   -8.2784   20.1702 C.3     1  UNL1        0.0298
     30 S         -17.2679   -9.4375   18.4829 S.O2    1  UNL1       -0.0064
     31 C         -17.7051  -10.8562   18.2682 C.3     1  UNL1        0.1764
     32 O         -16.3990   -9.8779   19.6235 O.2     1  UNL1       -0.1727
     33 O         -18.1367   -8.9970   17.3423 O.2     1  UNL1       -0.1727
@<TRIPOS>BOND
     1    24    25    1
     2    25    15    1
     3    15    16   ar
     4    16    17   ar
     5    17    18   ar
     6    18    19   ar
     7    19    20   ar
     8    20    21   ar
     9    21    22   ar
    10    22    23   ar
    11    23     1    1
    12     1     2   ar
    13     2     3   ar
    14     3     4   ar
    15     4     5   ar
    16     5    27    1
    17    27    28    1
    18    27    29    1
    19    27    30    1
    20    30    31    1
    21    30    32    2
    22    30    33    2
    23     5     6   ar
    24     4     7    1
    25     7     8    1
    26     9     8    1
    27     9    10    1
    28    10    11    1
    29    11    12    1
    30    12    13    1
    31    13    14    1
    32    23    15   ar
    33     6     1   ar
    34    14     9    1
    35    22    17   ar
    36    14     3    1
    37    25    26    1
@<TRIPOS>MOLECULE
*****
 33 37 0 0 0
SMALL
GASTEIGER

@<TRIPOS>ATOM
      1 C         -13.7770   -5.1467   18.2402 C.ar    1  UNL1        0.2400
      2 N         -14.6602   -4.0311   18.7149 N.ar    1  UNL1       -0.1929
      3 C         -16.0788   -4.3145   19.1115 C.ar    1  UNL1        0.1705
      4 C         -16.6142   -5.7135   19.0333 C.ar    1  UNL1        0.1851
      5 C         -15.7310   -6.8292   18.5585 C.ar    1  UNL1        0.1183
      6 N         -14.3124   -6.5458   18.1620 N.ar    1  UNL1       -0.2106
      7 O         -18.0328   -5.9969   19.4298 O.3     1  UNL1       -0.4695
      8 C         -18.9160   -4.8813   19.9045 C.3     1  UNL1        0.2277
      9 C         -18.3806   -3.4822   19.9827 C.3     1  UNL1        0.1477
     10 C         -19.2638   -2.3667   20.4574 C.3     1  UNL1        0.1657
     11 O         -18.7284   -0.9677   20.5356 O.3     1  UNL1       -0.3501
     12 C         -17.3098   -0.6843   20.1391 C.3     1  UNL1        0.1636
     13 C         -16.4266   -1.7999   19.6644 C.3     1  UNL1        0.1244
     14 N         -16.9620   -3.1989   19.5862 N.pl3   1  UNL1       -0.2839
     15 C         -11.1954   -5.7976   18.0011 C.ar    1  UNL1        0.2041
     16 N          -9.9719   -5.1076   17.4748 N.ar    1  UNL1       -0.2134
     17 C         -10.3787   -3.7468   16.9922 C.ar    1  UNL1        0.1003
     18 C          -9.5966   -2.6257   16.3747 C.ar    1  UNL1        0.0207
     19 C         -10.2894   -1.3536   15.9851 C.ar    1  UNL1        0.0016
     20 C         -11.7643   -1.2026   16.2130 C.ar    1  UNL1        0.0016
     21 C         -12.5464   -2.3237   16.8306 C.ar    1  UNL1        0.0192
     22 C         -11.8535   -3.5959   17.2202 C.ar    1  UNL1        0.0869
     23 N         -12.3584   -4.8633   17.8437 N.ar    1  UNL1       -0.2480
     24 C         -10.0362   -8.0629   18.5252 C.3     1  UNL1        0.1108
     25 N         -11.2470   -7.1793   18.5825 N.pl3   1  UNL1       -0.3023
     26 H         -12.0755   -7.5063   19.0018 H       1  UNL1        0.1497
     27 C         -16.2664   -8.2281   18.4804 C.3     1  UNL1        0.1486
     28 C         -15.9823   -8.4185   19.9408 C.3     1  UNL1        0.0298
     29 C         -16.5504   -8.0378   17.0199 C.3     1  UNL1        0.0298
     30 S         -16.8018   -9.6271   18.4022 S.O2    1  UNL1       -0.0064
     31 C         -17.3373  -11.0262   18.3240 C.3     1  UNL1        0.1764
     32 O         -18.2028   -9.0936   18.4497 O.2     1  UNL1       -0.1727
     33 O         -15.4007  -10.1607   18.3547 O.2     1  UNL1       -0.1727
@<TRIPOS>BOND
     1    24    25    1
     2    25    15    1
     3    15    16   ar
     4    16    17   ar
     5    17    18   ar
     6    18    19   ar
     7    19    20   ar
     8    20    21   ar
     9    21    22   ar
    10    22    23   ar
    11    23     1    1
    12     1     2   ar
    13     2     3   ar
    14     3     4   ar
    15     4     5   ar
    16     5    27    1
    17    27    28    1
    18    27    29    1
    19    27    30    1
    20    30    31    1
    21    30    32    2
    22    30    33    2
    23     5     6   ar
    24     4     7    1
    25     7     8    1
    26     9     8    1
    27     9    10    1
    28    10    11    1
    29    11    12    1
    30    12    13    1
    31    13    14    1
    32    23    15   ar
    33     6     1   ar
    34    14     9    1
    35    22    17   ar
    36    14     3    1
    37    25    26    1
@<TRIPOS>MOLECULE
*****
 33 37 0 0 0
SMALL
GASTEIGER

@<TRIPOS>ATOM
      1 C          -1.1978    2.9621   21.7383 C.ar    1  UNL1        0.2400
      2 N          -2.6518    3.3296   21.7101 N.ar    1  UNL1       -0.1929
      3 C          -3.3625    3.6768   22.9846 C.ar    1  UNL1        0.1705
      4 C          -2.6192    3.6566   24.2873 C.ar    1  UNL1        0.1851
      5 C          -1.1652    3.2891   24.3155 C.ar    1  UNL1        0.1183
      6 N          -0.4545    2.9418   23.0410 N.ar    1  UNL1       -0.2106
      7 O          -3.3299    4.0039   25.5618 O.3     1  UNL1       -0.4695
      8 C          -4.7839    4.3714   25.5336 C.3     1  UNL1        0.2277
      9 C          -5.5273    4.3916   24.2308 C.3     1  UNL1        0.1477
     10 C          -6.9812    4.7591   24.2026 C.3     1  UNL1        0.1657
     11 O          -7.7245    4.7793   22.8999 O.3     1  UNL1       -0.3501
     12 C          -7.0138    4.4321   21.6254 C.3     1  UNL1        0.1636
     13 C          -5.5599    4.0646   21.6536 C.3     1  UNL1        0.1244
     14 N          -4.8166    4.0443   22.9563 N.pl3   1  UNL1       -0.2839
     15 C          -0.6049    3.3481   19.1606 C.ar    1  UNL1        0.2041
     16 N           0.2755    2.6598   18.1601 N.ar    1  UNL1       -0.2134
     17 C           0.9375    1.5010   18.8450 C.ar    1  UNL1        0.1003
     18 C           1.9086    0.4676   18.3561 C.ar    1  UNL1        0.0207
     19 C           2.4083   -0.5937   19.2910 C.ar    1  UNL1        0.0016
     20 C           1.9370   -0.6215   20.7148 C.ar    1  UNL1        0.0016
     21 C           0.9659    0.4119   21.2037 C.ar    1  UNL1        0.0192
     22 C           0.4661    1.4732   20.2687 C.ar    1  UNL1        0.0869
     23 N          -0.4871    2.6148   20.4638 N.ar    1  UNL1       -0.2480
     24 C          -2.7829    4.4100   18.2231 C.3     1  UNL1        0.1108
     25 N          -1.4541    4.5575   18.9031 N.pl3   1  UNL1       -0.3023
     26 H          -1.1393    5.4481   19.1804 H       1  UNL1        0.1497
     27 C          -0.4219    3.2689   25.6182 C.3     1  UNL1        0.1486
     28 C          -0.1690    4.7424   25.4969 C.3     1  UNL1        0.0298
     29 C          -0.6747    1.7953   25.7396 C.3     1  UNL1        0.0298
     30 S           0.3214    3.2486   26.9209 S.O2    1  UNL1       -0.0064
     31 C           1.0647    3.2284   28.2237 C.3     1  UNL1        0.1764
     32 O          -0.8098    2.4945   27.5546 O.2     1  UNL1       -0.1727
     33 O           1.4526    4.0028   26.2872 O.2     1  UNL1       -0.1727
@<TRIPOS>BOND
     1    24    25    1
     2    25    15    1
     3    15    16   ar
     4    16    17   ar
     5    17    18   ar
     6    18    19   ar
     7    19    20   ar
     8    20    21   ar
     9    21    22   ar
    10    22    23   ar
    11    23     1    1
    12     1     2   ar
    13     2     3   ar
    14     3     4   ar
    15     4     5   ar
    16     5    27    1
    17    27    28    1
    18    27    29    1
    19    27    30    1
    20    30    31    1
    21    30    32    2
    22    30    33    2
    23     5     6   ar
    24     4     7    1
    25     7     8    1
    26     9     8    1
    27     9    10    1
    28    10    11    1
    29    11    12    1
    30    12    13    1
    31    13    14    1
    32    23    15   ar
    33     6     1   ar
    34    14     9    1
    35    22    17   ar
    36    14     3    1
    37    25    26    1
@<TRIPOS>MOLECULE
*****
 33 37 0 0 0
SMALL
GASTEIGER

@<TRIPOS>ATOM
      1 C          -5.7485  -18.0857   21.9858 C.ar    1  UNL1        0.2400
      2 N          -7.1013  -18.2160   21.3512 N.ar    1  UNL1       -0.1929
      3 C          -8.2910  -17.5516   21.9782 C.ar    1  UNL1        0.1705
      4 C          -8.1279  -16.7569   23.2398 C.ar    1  UNL1        0.1851
      5 C          -6.7750  -16.6265   23.8745 C.ar    1  UNL1        0.1183
      6 N          -5.5853  -17.2909   23.2475 N.ar    1  UNL1       -0.2106
      7 O          -9.3176  -16.0925   23.8669 O.3     1  UNL1       -0.4695
      8 C         -10.6705  -16.2228   23.2322 C.3     1  UNL1        0.2277
      9 C         -10.8336  -17.0176   21.9705 C.3     1  UNL1        0.1477
     10 C         -12.1865  -17.1479   21.3359 C.3     1  UNL1        0.1657
     11 O         -12.3496  -17.9426   20.0743 O.3     1  UNL1       -0.3501
     12 C         -11.1599  -18.6070   19.4473 C.3     1  UNL1        0.1636
     13 C          -9.8070  -18.4767   20.0819 C.3     1  UNL1        0.1244
     14 N          -9.6439  -17.6820   21.3435 N.pl3   1  UNL1       -0.2839
     15 C          -4.4987  -20.1640   20.8617 C.ar    1  UNL1        0.2041
     16 N          -3.1230  -20.4050   20.3145 N.ar    1  UNL1       -0.2134
     17 C          -2.3328  -19.1400   20.4733 C.ar    1  UNL1        0.1003
     18 C          -0.9200  -18.7872   20.1137 C.ar    1  UNL1        0.0207
     19 C          -0.3944  -17.4117   20.3994 C.ar    1  UNL1        0.0016
     20 C          -1.2817  -16.3888   21.0449 C.ar    1  UNL1        0.0016
     21 C          -2.6946  -16.7415   21.4045 C.ar    1  UNL1        0.0192
     22 C          -3.2202  -18.1172   21.1188 C.ar    1  UNL1        0.0869
     23 N          -4.5587  -18.7501   21.3588 N.ar    1  UNL1       -0.2480
     24 C          -6.5851  -21.2534   19.7617 C.3     1  UNL1        0.1108
     25 N          -5.6178  -21.1619   20.9044 N.pl3   1  UNL1       -0.3023
     26 H          -5.7175  -21.7568   21.6825 H       1  UNL1        0.1497
     27 C          -6.6119  -15.8318   25.1362 C.3     1  UNL1        0.1486
     28 C          -7.8480  -16.4695   25.6977 C.3     1  UNL1        0.0298
     29 C          -5.3758  -15.1942   24.5747 C.3     1  UNL1        0.0298
     30 S          -6.4488  -15.0371   26.3978 S.O2    1  UNL1       -0.0064
     31 C          -6.2857  -14.2424   27.6595 C.3     1  UNL1        0.1764
     32 O          -7.7743  -15.5410   26.8866 O.2     1  UNL1       -0.1727
     33 O          -5.1232  -14.5332   25.9090 O.2     1  UNL1       -0.1727
@<TRIPOS>BOND
     1    24    25    1
     2    25    15    1
     3    15    16   ar
     4    16    17   ar
     5    17    18   ar
     6    18    19   ar
     7    19    20   ar
     8    20    21   ar
     9    21    22   ar
    10    22    23   ar
    11    23     1    1
    12     1     2   ar
    13     2     3   ar
    14     3     4   ar
    15     4     5   ar
    16     5    27    1
    17    27    28    1
    18    27    29    1
    19    27    30    1
    20    30    31    1
    21    30    32    2
    22    30    33    2
    23     5     6   ar
    24     4     7    1
    25     7     8    1
    26     9     8    1
    27     9    10    1
    28    10    11    1
    29    11    12    1
    30    12    13    1
    31    13    14    1
    32    23    15   ar
    33     6     1   ar
    34    14     9    1
    35    22    17   ar
    36    14     3    1
    37    25    26    1
@<TRIPOS>MOLECULE
*****
 33 37 0 0 0
SMALL
GASTEIGER

@<TRIPOS>ATOM
      1 C           2.5621    0.2119   23.8915 C.ar    1  UNL1        0.2400
      2 N           3.5438   -0.8852   23.6044 N.ar    1  UNL1       -0.1929
      3 C           3.8438   -1.2711   22.1863 C.ar    1  UNL1        0.1705
      4 C           3.1622   -0.5598   21.0552 C.ar    1  UNL1        0.1851
      5 C           2.1804    0.5374   21.3423 C.ar    1  UNL1        0.1183
      6 N           1.8803    0.9233   22.7604 N.ar    1  UNL1       -0.2106
      7 O           3.4622   -0.9456   19.6371 O.3     1  UNL1       -0.4695
      8 C           4.4440   -2.0428   19.3501 C.3     1  UNL1        0.2277
      9 C           5.1257   -2.7541   20.4811 C.3     1  UNL1        0.1477
     10 C           6.1074   -3.8513   20.1941 C.3     1  UNL1        0.1657
     11 O           6.7891   -4.5625   21.3251 O.3     1  UNL1       -0.3501
     12 C           6.4891   -4.1767   22.7433 C.3     1  UNL1        0.1636
     13 C           5.5073   -3.0796   23.0303 C.3     1  UNL1        0.1244
     14 N           4.8256   -2.3683   21.8993 N.pl3   1  UNL1       -0.2839
     15 C           3.1479    0.3555   26.4956 C.ar    1  UNL1        0.2041
     16 N           2.4568    0.9016   27.7097 N.ar    1  UNL1       -0.2134
     17 C           1.1438    1.4814   27.2742 C.ar    1  UNL1        0.1003
     18 C           0.0422    2.1561   28.0366 C.ar    1  UNL1        0.0207
     19 C          -1.1798    2.6430   27.3156 C.ar    1  UNL1        0.0016
     20 C          -1.3002    2.4553   25.8323 C.ar    1  UNL1        0.0016
     21 C          -0.1986    1.7806   25.0699 C.ar    1  UNL1        0.0192
     22 C           1.0234    1.2936   25.7908 C.ar    1  UNL1        0.0869
     23 N           2.2620    0.5978   25.3096 N.ar    1  UNL1       -0.2480
     24 C           4.6498   -1.6924   27.0438 C.3     1  UNL1        0.1108
     25 N           4.4894   -0.3152   26.4716 N.pl3   1  UNL1       -0.3023
     26 H           5.2647    0.1486   26.0804 H       1  UNL1        0.1497
     27 C           1.4987    1.2487   20.2112 C.3     1  UNL1        0.1486
     28 C           2.6116    2.2535   20.1724 C.3     1  UNL1        0.0298
     29 C           0.3857    0.2438   20.2501 C.3     1  UNL1        0.0298
     30 S           0.8170    1.9600   19.0802 S.O2    1  UNL1       -0.0064
     31 C           0.1353    2.6712   17.9490 C.3     1  UNL1        0.1764
     32 O           0.8242    0.6922   18.2786 O.2     1  UNL1       -0.1727
     33 O           0.8098    3.2278   19.8818 O.2     1  UNL1       -0.1727
@<TRIPOS>BOND
     1    24    25    1
     2    25    15    1
     3    15    16   ar
     4    16    17   ar
     5    17    18   ar
     6    18    19   ar
     7    19    20   ar
     8    20    21   ar
     9    21    22   ar
    10    22    23   ar
    11    23     1    1
    12     1     2   ar
    13     2     3   ar
    14     3     4   ar
    15     4     5   ar
    16     5    27    1
    17    27    28    1
    18    27    29    1
    19    27    30    1
    20    30    31    1
    21    30    32    2
    22    30    33    2
    23     5     6   ar
    24     4     7    1
    25     7     8    1
    26     9     8    1
    27     9    10    1
    28    10    11    1
    29    11    12    1
    30    12    13    1
    31    13    14    1
    32    23    15   ar
    33     6     1   ar
    34    14     9    1
    35    22    17   ar
    36    14     3    1
    37    25    26    1
@<TRIPOS>MOLECULE
*****
 33 37 0 0 0
SMALL
GASTEIGER

@<TRIPOS>ATOM
      1 C           2.8479    0.9643   31.8475 C.ar    1  UNL1        0.2400
      2 N           3.9032    0.0231   31.3472 N.ar    1  UNL1       -0.1929
      3 C           3.8916   -0.4241   29.9155 C.ar    1  UNL1        0.1705
      4 C           2.8246    0.0698   28.9841 C.ar    1  UNL1        0.1851
      5 C           1.7692    1.0110   29.4844 C.ar    1  UNL1        0.1183
      6 N           1.7808    1.4583   30.9161 N.ar    1  UNL1       -0.2106
      7 O           2.8129   -0.3775   27.5524 O.3     1  UNL1       -0.4695
      8 C           3.8683   -1.3187   27.0521 C.3     1  UNL1        0.2277
      9 C           4.9353   -1.8127   27.9835 C.3     1  UNL1        0.1477
     10 C           5.9907   -2.7539   27.4832 C.3     1  UNL1        0.1657
     11 O           7.0577   -3.2478   28.4146 O.3     1  UNL1       -0.3501
     12 C           7.0693   -2.8005   29.8463 C.3     1  UNL1        0.1636
     13 C           6.0140   -1.8593   30.3466 C.3     1  UNL1        0.1244
     14 N           4.9470   -1.3654   29.4152 N.pl3   1  UNL1       -0.2839
     15 C           1.9760    2.4636   33.8815 C.ar    1  UNL1        0.2041
     16 N           2.3272    2.5876   35.3346 N.ar    1  UNL1       -0.2134
     17 C           3.4277    1.6123   35.6304 C.ar    1  UNL1        0.1003
     18 C           4.1728    1.2920   36.8922 C.ar    1  UNL1        0.0207
     19 C           5.2469    0.2450   36.8838 C.ar    1  UNL1        0.0016
     20 C           5.5759   -0.4819   35.6136 C.ar    1  UNL1        0.0016
     21 C           4.8309   -0.1616   34.3517 C.ar    1  UNL1        0.0192
     22 C           3.7567    0.8855   34.3601 C.ar    1  UNL1        0.0869
     23 N           2.8595    1.4116   33.2793 N.ar    1  UNL1       -0.2480
     24 C           1.1683    4.6951   32.8243 C.3     1  UNL1        0.1108
     25 N           0.9258    3.2530   33.1579 N.pl3   1  UNL1       -0.3023
     26 H           0.0772    2.8246   32.9018 H       1  UNL1        0.1497
     27 C           0.7022    1.5049   28.5530 C.3     1  UNL1        0.1486
     28 C           1.5542    2.6893   28.2050 C.3     1  UNL1        0.0298
     29 C          -0.1499    0.3205   28.9011 C.3     1  UNL1        0.0298
     30 S          -0.3648    1.9988   27.6216 S.O2    1  UNL1       -0.0064
     31 C          -1.4319    2.4927   26.6902 C.3     1  UNL1        0.1764
     32 O          -1.2996    0.9430   28.1327 O.2     1  UNL1       -0.1727
     33 O           0.5700    3.0547   27.1106 O.2     1  UNL1       -0.1727
@<TRIPOS>BOND
     1    24    25    1
     2    25    15    1
     3    15    16   ar
     4    16    17   ar
     5    17    18   ar
     6    18    19   ar
     7    19    20   ar
     8    20    21   ar
     9    21    22   ar
    10    22    23   ar
    11    23     1    1
    12     1     2   ar
    13     2     3   ar
    14     3     4   ar
    15     4     5   ar
    16     5    27    1
    17    27    28    1
    18    27    29    1
    19    27    30    1
    20    30    31    1
    21    30    32    2
    22    30    33    2
    23     5     6   ar
    24     4     7    1
    25     7     8    1
    26     9     8    1
    27     9    10    1
    28    10    11    1
    29    11    12    1
    30    12    13    1
    31    13    14    1
    32    23    15   ar
    33     6     1   ar
    34    14     9    1
    35    22    17   ar
    36    14     3    1
    37    25    26    1
@<TRIPOS>MOLECULE
*****
 33 37 0 0 0
SMALL
GASTEIGER

@<TRIPOS>ATOM
      1 C          -1.1243    2.5883   20.5997 C.ar    1  UNL1        0.2400
      2 N          -1.1136    2.6708   22.0974 N.ar    1  UNL1       -0.1929
      3 C          -0.0346    1.9814   22.8788 C.ar    1  UNL1        0.1705
      4 C           1.0335    1.2094   22.1626 C.ar    1  UNL1        0.1851
      5 C           1.0228    1.1268   20.6649 C.ar    1  UNL1        0.1183
      6 N          -0.0561    1.8163   19.8834 N.ar    1  UNL1       -0.2106
      7 O           2.1125    0.5200   22.9440 O.3     1  UNL1       -0.4695
      8 C           2.1232    0.6026   24.4417 C.3     1  UNL1        0.2277
      9 C           1.0550    1.3746   25.1580 C.3     1  UNL1        0.1477
     10 C           1.0658    1.4572   26.6556 C.3     1  UNL1        0.1657
     11 O          -0.0024    2.2292   27.3719 O.3     1  UNL1       -0.3501
     12 C          -1.0813    2.9186   26.5904 C.3     1  UNL1        0.1636
     13 C          -1.0921    2.8360   25.0928 C.3     1  UNL1        0.1244
     14 N          -0.0239    2.0640   24.3766 N.pl3   1  UNL1       -0.2839
     15 C          -3.6738    3.2243   20.1091 C.ar    1  UNL1        0.2041
     16 N          -4.3805    4.0551   19.0794 N.ar    1  UNL1       -0.2134
     17 C          -3.3467    4.6221   18.1522 C.ar    1  UNL1        0.1003
     18 C          -3.4567    5.5137   16.9510 C.ar    1  UNL1        0.0207
     19 C          -2.2211    5.9249   16.2065 C.ar    1  UNL1        0.0016
     20 C          -0.8755    5.4444   16.6631 C.ar    1  UNL1        0.0016
     21 C          -0.7654    4.5527   17.8643 C.ar    1  UNL1        0.0192
     22 C          -2.0011    4.1415   18.6088 C.ar    1  UNL1        0.0869
     23 N          -2.2032    3.2777   19.8183 N.ar    1  UNL1       -0.2480
     24 C          -4.8304    3.2108   22.4355 C.3     1  UNL1        0.1108
     25 N          -4.3237    2.4721   21.2325 N.pl3   1  UNL1       -0.3023
     26 H          -4.4176    1.4935   21.1802 H       1  UNL1        0.1497
     27 C           2.0910    0.3549   19.9486 C.3     1  UNL1        0.1486
     28 C           2.8933    1.6122   19.7901 C.3     1  UNL1        0.0298
     29 C           1.2886   -0.9025   20.1072 C.3     1  UNL1        0.0298
     30 S           3.1591   -0.4171   19.2324 S.O2    1  UNL1       -0.0064
     31 C           4.2274   -1.1892   18.5162 C.3     1  UNL1        0.1764
     32 O           3.5632   -1.0587   20.5266 O.2     1  UNL1       -0.1727
     33 O           2.7550    0.2245   17.9382 O.2     1  UNL1       -0.1727
@<TRIPOS>BOND
     1    24    25    1
     2    25    15    1
     3    15    16   ar
     4    16    17   ar
     5    17    18   ar
     6    18    19   ar
     7    19    20   ar
     8    20    21   ar
     9    21    22   ar
    10    22    23   ar
    11    23     1    1
    12     1     2   ar
    13     2     3   ar
    14     3     4   ar
    15     4     5   ar
    16     5    27    1
    17    27    28    1
    18    27    29    1
    19    27    30    1
    20    30    31    1
    21    30    32    2
    22    30    33    2
    23     5     6   ar
    24     4     7    1
    25     7     8    1
    26     9     8    1
    27     9    10    1
    28    10    11    1
    29    11    12    1
    30    12    13    1
    31    13    14    1
    32    23    15   ar
    33     6     1   ar
    34    14     9    1
    35    22    17   ar
    36    14     3    1
    37    25    26    1
@<TRIPOS>MOLECULE
*****
 33 37 0 0 0
SMALL
GASTEIGER

@<TRIPOS>ATOM
      1 C           5.6268   -2.8293   27.1654 C.ar    1  UNL1        0.2400
      2 N           4.5674   -1.7833   27.3486 N.ar    1  UNL1       -0.1929
      3 C           4.0540   -1.0202   26.1636 C.ar    1  UNL1        0.1705
      4 C           4.6000   -1.3031   24.7955 C.ar    1  UNL1        0.1851
      5 C           5.6594   -2.3491   24.6123 C.ar    1  UNL1        0.1183
      6 N           6.1728   -3.1122   25.7972 N.ar    1  UNL1       -0.2106
      7 O           4.0866   -0.5400   23.6106 O.3     1  UNL1       -0.4695
      8 C           3.0272    0.5060   23.7937 C.3     1  UNL1        0.2277
      9 C           2.4811    0.7889   25.1619 C.3     1  UNL1        0.1477
     10 C           1.4218    1.8349   25.3451 C.3     1  UNL1        0.1657
     11 O           0.8758    2.1177   26.7132 O.3     1  UNL1       -0.3501
     12 C           1.3892    1.3547   27.8982 C.3     1  UNL1        0.1636
     13 C           2.4485    0.3087   27.7150 C.3     1  UNL1        0.1244
     14 N           2.9945    0.0258   26.3469 N.pl3   1  UNL1       -0.2839
     15 C           6.2925   -5.0818   28.4413 C.ar    1  UNL1        0.2041
     16 N           6.8379   -5.4100   29.7996 N.ar    1  UNL1       -0.2134
     17 C           7.0225   -4.1233   30.5481 C.ar    1  UNL1        0.1003
     18 C           7.5276   -3.8295   31.9296 C.ar    1  UNL1        0.0207
     19 C           7.6015   -2.4123   32.4154 C.ar    1  UNL1        0.0016
     20 C           7.1703   -1.2888   31.5198 C.ar    1  UNL1        0.0016
     21 C           6.6652   -1.5827   30.1384 C.ar    1  UNL1        0.0192
     22 C           6.5913   -3.0000   29.6525 C.ar    1  UNL1        0.0869
     23 N           6.1402   -3.5924   28.3504 N.ar    1  UNL1       -0.2480
     24 C           7.0555   -6.7072   26.5635 C.3     1  UNL1        0.1108
     25 N           5.9582   -6.0698   27.3632 N.pl3   1  UNL1       -0.3023
     26 H           5.0186   -6.2998   27.1805 H       1  UNL1        0.1497
     27 C           6.2054   -2.6320   23.2441 C.3     1  UNL1        0.1486
     28 C           7.3293   -1.6705   23.4939 C.3     1  UNL1        0.0298
     29 C           5.0815   -3.5934   22.9944 C.3     1  UNL1        0.0298
     30 S           6.7514   -2.9149   21.8760 S.O2    1  UNL1       -0.0064
     31 C           7.2974   -3.1977   20.5078 C.3     1  UNL1        0.1764
     32 O           7.1142   -1.4677   21.7216 O.2     1  UNL1       -0.1727
     33 O           6.3886   -4.3621   22.0305 O.2     1  UNL1       -0.1727
@<TRIPOS>BOND
     1    24    25    1
     2    25    15    1
     3    15    16   ar
     4    16    17   ar
     5    17    18   ar
     6    18    19   ar
     7    19    20   ar
     8    20    21   ar
     9    21    22   ar
    10    22    23   ar
    11    23     1    1
    12     1     2   ar
    13     2     3   ar
    14     3     4   ar
    15     4     5   ar
    16     5    27    1
    17    27    28    1
    18    27    29    1
    19    27    30    1
    20    30    31    1
    21    30    32    2
    22    30    33    2
    23     5     6   ar
    24     4     7    1
    25     7     8    1
    26     9     8    1
    27     9    10    1
    28    10    11    1
    29    11    12    1
    30    12    13    1
    31    13    14    1
    32    23    15   ar
    33     6     1   ar
    34    14     9    1
    35    22    17   ar
    36    14     3    1
    37    25    26    1
