@<TRIPOS>MOLECULE
*****
 33 38 0 0 0
SMALL
GASTEIGER

@<TRIPOS>ATOM
      1 N          -6.2127  -18.9682   22.1481 N.ar    1  UNL1       -0.2937
      2 C          -6.9302  -20.2846   22.1002 C.ar    1  UNL1        0.1798
      3 N          -8.2483  -20.1196   22.7969 N.ar    1  UNL1       -0.2195
      4 C          -8.3454  -18.7013   23.2754 C.ar    1  UNL1        0.1483
      5 C          -9.4168  -17.9658   24.0245 C.ar    1  UNL1        0.1518
      6 N          -9.2302  -16.5187   24.3725 N.ar    1  UNL1       -0.2003
      7 C          -7.9721  -15.8071   23.9716 C.ar    1  UNL1        0.2264
      8 CL         -7.7855  -14.3601   24.3196 Cl      1  UNL1       -0.0409
      9 N          -6.9006  -16.5426   23.2225 N.ar    1  UNL1       -0.1976
     10 C          -7.0873  -17.9897   22.8744 C.ar    1  UNL1        0.1680
     11 C          -2.8897  -18.7570   20.1534 C.3     1  UNL1        0.1184
     12 C          -3.3975  -19.8309   19.2376 C.3     1  UNL1        0.0157
     13 C          -4.2493  -19.3507   20.3751 C.3     1  UNL1        0.0364
     14 C          -4.8583  -18.6808   21.5710 C.3     1  UNL1        0.1181
     15 C          -3.8752  -17.6730   22.0885 C.3     1  UNL1        0.1583
     16 O          -4.0738  -16.7756   23.2740 O.3     1  UNL1       -0.3800
     17 C          -2.6585  -17.7200   21.2124 C.3     1  UNL1        0.1490
     18 O          -1.4269  -16.8781   21.3679 O.3     1  UNL1       -0.3814
     19 H          -3.2878  -16.2202   23.3944 H       1  UNL1        0.2105
     20 H          -1.5328  -16.2881   22.1306 H       1  UNL1        0.2105
     21 C          -1.5669  -18.5795   19.4688 C.2     1  UNL1        0.3185
     22 O          -0.3171  -19.1160   20.1013 O.2     1  UNL1       -0.2500
     23 C          -2.6047  -16.9479   17.7336 C.3     1  UNL1        0.2556
     24 O          -1.4940  -17.8654   18.1516 O.3     1  UNL1       -0.4443
     25 N         -10.6749  -18.6775   24.4254 N.pl3   1  UNL1       -0.3184
     26 H         -10.6691  -19.2921   25.1945 H       1  UNL1        0.1482
     27 C         -11.9420  -18.4526   23.6546 C.3     1  UNL1        0.0703
     28 C         -13.2598  -18.4213   24.3705 C.3     1  UNL1        0.0179
     29 C         -14.7542  -18.2975   24.3359 C.3     1  UNL1        0.0017
     30 C         -14.0478  -18.4909   25.6449 C.3     1  UNL1        0.0017
     31 C         -11.8912  -18.2591   22.1681 C.3     1  UNL1        0.0179
     32 C         -11.3985  -18.6892   20.8182 C.3     1  UNL1        0.0017
     33 C         -12.2959  -17.4939   20.9431 C.3     1  UNL1        0.0017
@<TRIPOS>BOND
     1    23    24    1
     2    24    21    1
     3    21    22    2
     4    11    21    1
     5    11    12    1
     6    13    12    1
     7    13    14    1
     8    14     1    1
     9     1     2   ar
    10     2     3   ar
    11     3     4   ar
    12     4     5   ar
    13     5    25    1
    14    25    27    1
    15    27    28    1
    16    28    29    1
    17    29    30    1
    18    27    31    1
    19    31    32    1
    20    32    33    1
    21     5     6   ar
    22     6     7   ar
    23     7     8    1
    24     7     9   ar
    25     9    10   ar
    26    14    15    1
    27    15    16    1
    28    15    17    1
    29    17    18    1
    30    13    11    1
    31    10     1   ar
    32    17    11    1
    33    10     4   ar
    34    30    28    1
    35    33    31    1
    36    25    26    1
    37    16    19    1
    38    18    20    1
@<TRIPOS>MOLECULE
*****
 33 38 0 0 0
SMALL
GASTEIGER

@<TRIPOS>ATOM
      1 N          -7.0587  -18.8223   21.7808 N.ar    1  UNL1       -0.2937
      2 C          -7.8425  -18.3003   22.9484 C.ar    1  UNL1        0.1798
      3 N          -9.2994  -18.5096   22.6594 N.ar    1  UNL1       -0.2195
      4 C          -9.4161  -19.1610   21.3132 C.ar    1  UNL1        0.1483
      5 C         -10.6044  -19.6031   20.5117 C.ar    1  UNL1        0.1518
      6 N         -10.4079  -20.2385   19.1672 N.ar    1  UNL1       -0.2003
      7 C          -9.0230  -20.4317   18.6242 C.ar    1  UNL1        0.2264
      8 CL         -8.8264  -21.0670   17.2797 Cl      1  UNL1       -0.0409
      9 N          -7.8347  -19.9895   19.4258 N.ar    1  UNL1       -0.1976
     10 C          -8.0312  -19.3542   20.7702 C.ar    1  UNL1        0.1680
     11 C          -3.3157  -19.2628   20.8530 C.3     1  UNL1        0.1184
     12 C          -3.7242  -20.1682   19.7290 C.3     1  UNL1        0.0157
     13 C          -4.7675  -19.5563   20.6161 C.3     1  UNL1        0.0364
     14 C          -5.5647  -18.8138   21.6473 C.3     1  UNL1        0.1181
     15 C          -4.6056  -18.0614   22.5214 C.3     1  UNL1        0.1583
     16 O          -4.9721  -17.1854   23.6826 O.3     1  UNL1       -0.3800
     17 C          -3.2156  -18.3389   22.0305 C.3     1  UNL1        0.1490
     18 O          -1.9482  -17.7891   22.6145 O.3     1  UNL1       -0.3814
     19 H          -4.1660  -16.8176   24.0772 H       1  UNL1        0.2105
     20 H          -2.1610  -17.2179   23.3691 H       1  UNL1        0.2105
     21 C          -1.8403  -19.3509   20.5971 C.2     1  UNL1        0.3185
     22 O          -0.9960  -20.2995   21.3954 O.2     1  UNL1       -0.2500
     23 C           0.0864  -17.7888   19.8240 C.3     1  UNL1        0.2556
     24 O          -1.2093  -18.4904   19.5428 O.3     1  UNL1       -0.4443
     25 N         -11.9893  -19.4098   21.0547 N.pl3   1  UNL1       -0.3184
     26 H         -12.6563  -20.1289   20.9692 H       1  UNL1        0.1482
     27 C         -12.3578  -18.1210   21.7280 C.3     1  UNL1        0.0703
     28 C         -12.9492  -18.1374   23.1064 C.3     1  UNL1        0.0179
     29 C         -14.1048  -17.8796   24.0273 C.3     1  UNL1        0.0017
     30 C         -12.8178  -18.4234   24.5730 C.3     1  UNL1        0.0017
     31 C         -12.1350  -16.8160   21.0229 C.3     1  UNL1        0.0179
     32 C         -12.5954  -15.7682   20.0534 C.3     1  UNL1        0.0017
     33 C         -11.2886  -15.6035   20.7712 C.3     1  UNL1        0.0017
@<TRIPOS>BOND
     1    23    24    1
     2    24    21    1
     3    21    22    2
     4    11    21    1
     5    11    12    1
     6    13    12    1
     7    13    14    1
     8    14     1    1
     9     1     2   ar
    10     2     3   ar
    11     3     4   ar
    12     4     5   ar
    13     5    25    1
    14    25    27    1
    15    27    28    1
    16    28    29    1
    17    29    30    1
    18    27    31    1
    19    31    32    1
    20    32    33    1
    21     5     6   ar
    22     6     7   ar
    23     7     8    1
    24     7     9   ar
    25     9    10   ar
    26    14    15    1
    27    15    16    1
    28    15    17    1
    29    17    18    1
    30    13    11    1
    31    10     1   ar
    32    17    11    1
    33    10     4   ar
    34    30    28    1
    35    33    31    1
    36    25    26    1
    37    16    19    1
    38    18    20    1
@<TRIPOS>MOLECULE
*****
 33 38 0 0 0
SMALL
GASTEIGER

@<TRIPOS>ATOM
      1 N           6.2938   -3.0528   26.3410 N.ar    1  UNL1       -0.2937
      2 C           5.5753   -1.8179   25.8842 C.ar    1  UNL1        0.1798
      3 N           5.5713   -1.8122   24.3842 N.ar    1  UNL1       -0.2195
      4 C           6.2873   -3.0436   23.9140 C.ar    1  UNL1        0.1483
      5 C           6.5904   -3.5657   22.5409 C.ar    1  UNL1        0.1518
      6 N           7.3401   -4.8546   22.3772 N.ar    1  UNL1       -0.2003
      7 C           7.7867   -5.6214   23.5866 C.ar    1  UNL1        0.2264
      8 CL          8.5363   -6.9102   23.4229 Cl      1  UNL1       -0.0409
      9 N           7.4835   -5.0992   24.9598 N.ar    1  UNL1       -0.1976
     10 C           6.7339   -3.8103   25.1234 C.ar    1  UNL1        0.1680
     11 C           7.1136   -3.3851   30.1203 C.3     1  UNL1        0.1184
     12 C           7.4915   -1.9337   30.1428 C.3     1  UNL1        0.0157
     13 C           7.0232   -2.5670   28.8663 C.3     1  UNL1        0.0364
     14 C           6.5307   -3.4590   27.7655 C.3     1  UNL1        0.1181
     15 C           6.3167   -4.8283   28.3391 C.3     1  UNL1        0.1583
     16 O           5.8282   -6.0320   27.5890 O.3     1  UNL1       -0.3800
     17 C           6.6770   -4.7827   29.7945 C.3     1  UNL1        0.1490
     18 O           6.6120   -5.9326   30.7553 O.3     1  UNL1       -0.3814
     19 H           5.7780   -6.7902   28.1919 H       1  UNL1        0.2105
     20 H           6.2977   -6.7243   30.2913 H       1  UNL1        0.2105
     21 C           7.3949   -3.6429   31.5710 C.2     1  UNL1        0.3185
     22 O           8.8115   -3.7256   32.0572 O.2     1  UNL1       -0.2500
     23 C           5.3126   -2.6835   32.7932 C.3     1  UNL1        0.2556
     24 O           6.2594   -3.8181   32.5354 O.3     1  UNL1       -0.4443
     25 N           6.1439   -2.7990   21.3315 N.pl3   1  UNL1       -0.3184
     26 H           6.7759   -2.2073   20.8627 H       1  UNL1        0.1482
     27 C           4.7343   -2.9337   20.8364 C.3     1  UNL1        0.0703
     28 C           4.3473   -4.1066   19.9852 C.3     1  UNL1        0.0179
     29 C           3.4049   -5.2315   19.6746 C.3     1  UNL1        0.0017
     30 C           4.6193   -5.0132   18.8216 C.3     1  UNL1        0.0017
     31 C           3.7119   -1.8955   21.1924 C.3     1  UNL1        0.0179
     32 C           2.5648   -1.0131   20.7980 C.3     1  UNL1        0.0017
     33 C           3.0881   -0.9796   22.2033 C.3     1  UNL1        0.0017
@<TRIPOS>BOND
     1    23    24    1
     2    24    21    1
     3    21    22    2
     4    11    21    1
     5    11    12    1
     6    13    12    1
     7    13    14    1
     8    14     1    1
     9     1     2   ar
    10     2     3   ar
    11     3     4   ar
    12     4     5   ar
    13     5    25    1
    14    25    27    1
    15    27    28    1
    16    28    29    1
    17    29    30    1
    18    27    31    1
    19    31    32    1
    20    32    33    1
    21     5     6   ar
    22     6     7   ar
    23     7     8    1
    24     7     9   ar
    25     9    10   ar
    26    14    15    1
    27    15    16    1
    28    15    17    1
    29    17    18    1
    30    13    11    1
    31    10     1   ar
    32    17    11    1
    33    10     4   ar
    34    30    28    1
    35    33    31    1
    36    25    26    1
    37    16    19    1
    38    18    20    1
@<TRIPOS>MOLECULE
*****
 33 38 0 0 0
SMALL
GASTEIGER

@<TRIPOS>ATOM
      1 N           6.2876   -3.0726   26.3268 N.ar    1  UNL1       -0.2937
      2 C           5.5831   -1.8316   25.8647 C.ar    1  UNL1        0.1798
      3 N           5.5829   -1.8301   24.3647 N.ar    1  UNL1       -0.2195
      4 C           6.2873   -3.0700   23.8998 C.ar    1  UNL1        0.1483
      5 C           6.5884   -3.5991   22.5289 C.ar    1  UNL1        0.1518
      6 N           7.3251   -4.8961   22.3705 N.ar    1  UNL1       -0.2003
      7 C           7.7607   -5.6641   23.5832 C.ar    1  UNL1        0.2264
      8 CL          8.4974   -6.9611   23.4249 Cl      1  UNL1       -0.0409
      9 N           7.4596   -5.1350   24.9541 N.ar    1  UNL1       -0.1976
     10 C           6.7229   -3.8380   25.1124 C.ar    1  UNL1        0.1680
     11 C           7.0767   -3.3984   30.1132 C.3     1  UNL1        0.1184
     12 C           7.4347   -1.9420   30.1408 C.3     1  UNL1        0.0157
     13 C           6.9870   -2.5801   28.8592 C.3     1  UNL1        0.0364
     14 C           6.5167   -3.4773   27.7529 C.3     1  UNL1        0.1181
     15 C           6.3158   -4.8501   28.3230 C.3     1  UNL1        0.1583
     16 O           5.8506   -6.0593   27.5672 O.3     1  UNL1       -0.3800
     17 C           6.6619   -4.8014   29.7818 C.3     1  UNL1        0.1490
     18 O           6.6035   -5.9532   30.7408 O.3     1  UNL1       -0.3814
     19 H           5.8050   -6.8189   28.1688 H       1  UNL1        0.2105
     20 H           6.3042   -6.7485   30.2729 H       1  UNL1        0.2105
     21 C           7.3479   -3.6542   31.5662 C.2     1  UNL1        0.3185
     22 O           8.7610   -3.7580   32.0584 O.2     1  UNL1       -0.2500
     23 C           5.3677   -2.6161   32.8896 C.3     1  UNL1        0.2556
     24 O           6.2059   -3.8061   32.5268 O.3     1  UNL1       -0.4443
     25 N           6.1529   -2.8311   21.3162 N.pl3   1  UNL1       -0.3184
     26 H           6.7879   -2.2358   20.8562 H       1  UNL1        0.1482
     27 C           4.7497   -2.9701   20.8044 C.3     1  UNL1        0.0703
     28 C           3.7267   -1.9214   21.1262 C.3     1  UNL1        0.0179
     29 C           3.0909   -0.9859   22.1113 C.3     1  UNL1        0.0017
     30 C           2.5905   -1.0405   20.6983 C.3     1  UNL1        0.0017
     31 C           4.3696   -4.1579   19.9710 C.3     1  UNL1        0.0179
     32 C           4.6186   -5.0502   18.7912 C.3     1  UNL1        0.0017
     33 C           3.4624   -5.3229   19.7070 C.3     1  UNL1        0.0017
@<TRIPOS>BOND
     1    23    24    1
     2    24    21    1
     3    21    22    2
     4    11    21    1
     5    11    12    1
     6    13    12    1
     7    13    14    1
     8    14     1    1
     9     1     2   ar
    10     2     3   ar
    11     3     4   ar
    12     4     5   ar
    13     5    25    1
    14    25    27    1
    15    27    28    1
    16    28    29    1
    17    29    30    1
    18    27    31    1
    19    31    32    1
    20    32    33    1
    21     5     6   ar
    22     6     7   ar
    23     7     8    1
    24     7     9   ar
    25     9    10   ar
    26    14    15    1
    27    15    16    1
    28    15    17    1
    29    17    18    1
    30    13    11    1
    31    10     1   ar
    32    17    11    1
    33    10     4   ar
    34    30    28    1
    35    33    31    1
    36    25    26    1
    37    16    19    1
    38    18    20    1
@<TRIPOS>MOLECULE
*****
 33 38 0 0 0
SMALL
GASTEIGER

@<TRIPOS>ATOM
      1 N           6.4759   -3.6037   25.6957 N.ar    1  UNL1       -0.2937
      2 C           7.2350   -4.3123   24.6133 C.ar    1  UNL1        0.1798
      3 N           6.7910   -3.7537   23.2939 N.ar    1  UNL1       -0.2195
      4 C           5.7575   -2.6999   23.5608 C.ar    1  UNL1        0.1483
      5 C           4.9686   -1.8128   22.6440 C.ar    1  UNL1        0.1518
      6 N           3.9849   -0.8328   23.2115 N.ar    1  UNL1       -0.2003
      7 C           3.7901   -0.7401   24.6959 C.ar    1  UNL1        0.2264
      8 CL          2.8064    0.2398   25.2635 Cl      1  UNL1       -0.0409
      9 N           4.5791   -1.6273   25.6128 N.ar    1  UNL1       -0.1976
     10 C           5.5627   -2.6071   25.0452 C.ar    1  UNL1        0.1680
     11 C           7.0105   -3.5100   29.5389 C.3     1  UNL1        0.1184
     12 C           7.3784   -2.0600   29.4297 C.3     1  UNL1        0.0157
     13 C           7.0107   -2.8352   28.1993 C.3     1  UNL1        0.0364
     14 C           6.6069   -3.8485   27.1697 C.3     1  UNL1        0.1181
     15 C           6.3570   -5.1497   27.8730 C.3     1  UNL1        0.1583
     16 O           5.9323   -6.4344   27.2257 O.3     1  UNL1       -0.3800
     17 C           6.6064   -4.9405   29.3373 C.3     1  UNL1        0.1490
     18 O           6.4749   -5.9793   30.4113 O.3     1  UNL1       -0.3814
     19 H           5.8405   -7.1228   27.9029 H       1  UNL1        0.2105
     20 H           6.2004   -6.8210   30.0150 H       1  UNL1        0.2105
     21 C           7.1830   -3.6041   31.0261 C.2     1  UNL1        0.3185
     22 O           8.5185   -3.9666   31.6048 O.2     1  UNL1       -0.2500
     23 C           6.0348   -2.1382   32.8380 C.3     1  UNL1        0.2556
     24 O           6.0198   -3.3355   31.9344 O.3     1  UNL1       -0.4443
     25 N           5.1634   -1.9055   21.1596 N.pl3   1  UNL1       -0.3184
     26 H           6.0347   -1.6772   20.7622 H       1  UNL1        0.1482
     27 C           4.0306   -2.3462   20.2806 C.3     1  UNL1        0.0703
     28 C           2.9044   -1.4024   19.9790 C.3     1  UNL1        0.0179
     29 C           1.5201   -0.8991   20.2625 C.3     1  UNL1        0.0017
     30 C           2.3381   -0.2711   19.1732 C.3     1  UNL1        0.0017
     31 C           4.0240   -3.7306   19.7032 C.3     1  UNL1        0.0179
     32 C           4.5174   -4.7161   18.6857 C.3     1  UNL1        0.0017
     33 C           3.5191   -5.1429   19.7206 C.3     1  UNL1        0.0017
@<TRIPOS>BOND
     1    23    24    1
     2    24    21    1
     3    21    22    2
     4    11    21    1
     5    11    12    1
     6    13    12    1
     7    13    14    1
     8    14     1    1
     9     1     2   ar
    10     2     3   ar
    11     3     4   ar
    12     4     5   ar
    13     5    25    1
    14    25    27    1
    15    27    28    1
    16    28    29    1
    17    29    30    1
    18    27    31    1
    19    31    32    1
    20    32    33    1
    21     5     6   ar
    22     6     7   ar
    23     7     8    1
    24     7     9   ar
    25     9    10   ar
    26    14    15    1
    27    15    16    1
    28    15    17    1
    29    17    18    1
    30    13    11    1
    31    10     1   ar
    32    17    11    1
    33    10     4   ar
    34    30    28    1
    35    33    31    1
    36    25    26    1
    37    16    19    1
    38    18    20    1
@<TRIPOS>MOLECULE
*****
 33 38 0 0 0
SMALL
GASTEIGER

@<TRIPOS>ATOM
      1 N           6.4649   -3.6042   25.6930 N.ar    1  UNL1       -0.2937
      2 C           7.2214   -4.3178   24.6121 C.ar    1  UNL1        0.1798
      3 N           6.7774   -3.7624   23.2914 N.ar    1  UNL1       -0.2195
      4 C           5.7464   -2.7054   23.5560 C.ar    1  UNL1        0.1483
      5 C           4.9586   -1.8194   22.6372 C.ar    1  UNL1        0.1518
      6 N           3.9775   -0.8356   23.2027 N.ar    1  UNL1       -0.2003
      7 C           3.7844   -0.7378   24.6870 C.ar    1  UNL1        0.2264
      8 CL          2.8034    0.2459   25.2525 Cl      1  UNL1       -0.0409
      9 N           4.5723   -1.6239   25.6058 N.ar    1  UNL1       -0.1976
     10 C           5.5533   -2.6077   25.0403 C.ar    1  UNL1        0.1680
     11 C           6.9868   -3.4957   29.5376 C.3     1  UNL1        0.1184
     12 C           7.3254   -2.0386   29.4278 C.3     1  UNL1        0.0157
     13 C           6.9770   -2.8223   28.1973 C.3     1  UNL1        0.0364
     14 C           6.5968   -3.8448   27.1677 C.3     1  UNL1        0.1181
     15 C           6.3716   -5.1500   27.8717 C.3     1  UNL1        0.1583
     16 O           5.9749   -6.4439   27.2246 O.3     1  UNL1       -0.3800
     17 C           6.6126   -4.9343   29.3365 C.3     1  UNL1        0.1490
     18 O           6.4994   -5.9745   30.4112 O.3     1  UNL1       -0.3814
     19 H           5.8954   -7.1333   27.9023 H       1  UNL1        0.2105
     20 H           6.2432   -6.8220   30.0151 H       1  UNL1        0.2105
     21 C           7.1571   -3.5846   31.0253 C.2     1  UNL1        0.3185
     22 O           6.0025   -3.2769   31.9321 O.2     1  UNL1       -0.2500
     23 C           9.2645   -3.0003   32.4281 C.3     1  UNL1        0.2556
     24 O           8.4820   -3.9813   31.6061 O.3     1  UNL1       -0.4443
     25 N           5.1517   -1.9172   21.1529 N.pl3   1  UNL1       -0.3184
     26 H           6.0273   -1.7058   20.7555 H       1  UNL1        0.1482
     27 C           4.0108   -2.3370   20.2742 C.3     1  UNL1        0.0703
     28 C           3.9871   -3.7156   19.6834 C.3     1  UNL1        0.0179
     29 C           4.6201   -4.7740   18.8296 C.3     1  UNL1        0.0017
     30 C           3.3131   -5.0448   19.5139 C.3     1  UNL1        0.0017
     31 C           2.8937   -1.3784   19.9863 C.3     1  UNL1        0.0179
     32 C           1.4914   -0.9061   20.2324 C.3     1  UNL1        0.0017
     33 C           2.3609   -0.1902   19.2418 C.3     1  UNL1        0.0017
@<TRIPOS>BOND
     1    23    24    1
     2    24    21    1
     3    21    22    2
     4    11    21    1
     5    11    12    1
     6    13    12    1
     7    13    14    1
     8    14     1    1
     9     1     2   ar
    10     2     3   ar
    11     3     4   ar
    12     4     5   ar
    13     5    25    1
    14    25    27    1
    15    27    28    1
    16    28    29    1
    17    29    30    1
    18    27    31    1
    19    31    32    1
    20    32    33    1
    21     5     6   ar
    22     6     7   ar
    23     7     8    1
    24     7     9   ar
    25     9    10   ar
    26    14    15    1
    27    15    16    1
    28    15    17    1
    29    17    18    1
    30    13    11    1
    31    10     1   ar
    32    17    11    1
    33    10     4   ar
    34    30    28    1
    35    33    31    1
    36    25    26    1
    37    16    19    1
    38    18    20    1
@<TRIPOS>MOLECULE
*****
 33 38 0 0 0
SMALL
GASTEIGER

@<TRIPOS>ATOM
      1 N          -6.4241  -18.4743   21.9110 N.ar    1  UNL1       -0.2937
      2 C          -6.9557  -18.1511   23.2759 C.ar    1  UNL1        0.1798
      3 N          -8.4088  -18.5221   23.3072 N.ar    1  UNL1       -0.2195
      4 C          -8.7752  -19.0746   21.9616 C.ar    1  UNL1        0.1483
      5 C         -10.0673  -19.6007   21.4107 C.ar    1  UNL1        0.1518
      6 N         -10.1328  -20.0974   19.9967 N.ar    1  UNL1       -0.2003
      7 C          -8.9062  -20.0679   19.1339 C.ar    1  UNL1        0.2264
      8 CL         -8.9717  -20.5645   17.7200 Cl      1  UNL1       -0.0409
      9 N          -7.6141  -19.5417   19.6849 N.ar    1  UNL1       -0.1976
     10 C          -7.5486  -19.0451   21.0988 C.ar    1  UNL1        0.1680
     11 C          -2.9444  -18.4656   20.1915 C.3     1  UNL1        0.1184
     12 C          -3.4270  -19.5379   19.2602 C.3     1  UNL1        0.0157
     13 C          -4.3442  -18.9908   20.3135 C.3     1  UNL1        0.0364
     14 C          -5.0153  -18.2638   21.4409 C.3     1  UNL1        0.1181
     15 C          -4.0304  -17.2894   22.0157 C.3     1  UNL1        0.1583
     16 O          -4.2813  -16.3544   23.1615 O.3     1  UNL1       -0.3800
     17 C          -2.7504  -17.4141   21.2435 C.3     1  UNL1        0.1490
     18 O          -1.4968  -16.6258   21.4815 O.3     1  UNL1       -0.3814
     19 H          -3.4819  -15.8326   23.3341 H       1  UNL1        0.2105
     20 H          -1.6357  -16.0126   22.2201 H       1  UNL1        0.2105
     21 C          -1.5636  -18.3662   19.6139 C.2     1  UNL1        0.3185
     22 O          -1.3748  -17.9219   18.1937 O.2     1  UNL1       -0.2500
     23 C           0.9520  -18.0589   20.1864 C.3     1  UNL1        0.2556
     24 O          -0.3716  -18.7110   20.4568 O.3     1  UNL1       -0.4443
     25 N         -11.2939  -19.6302   22.2735 N.pl3   1  UNL1       -0.3184
     26 H         -11.6040  -20.4812   22.6593 H       1  UNL1        0.1482
     27 C         -12.0480  -18.3630   22.5486 C.3     1  UNL1        0.0703
     28 C         -11.8178  -17.1525   21.6933 C.3     1  UNL1        0.0179
     29 C         -10.9087  -16.0695   21.1927 C.3     1  UNL1        0.0017
     30 C         -12.3280  -16.1389   20.7124 C.3     1  UNL1        0.0017
     31 C         -13.0323  -18.3064   23.6790 C.3     1  UNL1        0.0179
     32 C         -14.3795  -17.9149   24.2101 C.3     1  UNL1        0.0017
     33 C         -13.3902  -18.5997   25.1059 C.3     1  UNL1        0.0017
@<TRIPOS>BOND
     1    23    24    1
     2    24    21    1
     3    21    22    2
     4    11    21    1
     5    11    12    1
     6    13    12    1
     7    13    14    1
     8    14     1    1
     9     1     2   ar
    10     2     3   ar
    11     3     4   ar
    12     4     5   ar
    13     5    25    1
    14    25    27    1
    15    27    28    1
    16    28    29    1
    17    29    30    1
    18    27    31    1
    19    31    32    1
    20    32    33    1
    21     5     6   ar
    22     6     7   ar
    23     7     8    1
    24     7     9   ar
    25     9    10   ar
    26    14    15    1
    27    15    16    1
    28    15    17    1
    29    17    18    1
    30    13    11    1
    31    10     1   ar
    32    17    11    1
    33    10     4   ar
    34    30    28    1
    35    33    31    1
    36    25    26    1
    37    16    19    1
    38    18    20    1
@<TRIPOS>MOLECULE
*****
 33 38 0 0 0
SMALL
GASTEIGER

@<TRIPOS>ATOM
      1 N          -7.0863  -18.1626   22.0441 N.ar    1  UNL1       -0.2937
      2 C          -7.4526  -17.4291   23.3002 C.ar    1  UNL1        0.1798
      3 N          -8.9491  -17.3681   23.3816 N.ar    1  UNL1       -0.2195
      4 C          -9.5078  -18.0640   22.1759 C.ar    1  UNL1        0.1483
      5 C         -10.9160  -18.3139   21.7239 C.ar    1  UNL1        0.1518
      6 N         -11.1730  -19.0549   20.4452 N.ar    1  UNL1       -0.2003
      7 C         -10.0217  -19.5459   19.6186 C.ar    1  UNL1        0.2264
      8 CL        -10.2786  -20.2868   18.3399 Cl      1  UNL1       -0.0409
      9 N          -8.6134  -19.2959   20.0706 N.ar    1  UNL1       -0.1976
     10 C          -8.3564  -18.5550   21.3492 C.ar    1  UNL1        0.1680
     11 C          -3.2933  -18.8058   21.5296 C.3     1  UNL1        0.1184
     12 C          -3.0765  -18.5625   22.9938 C.3     1  UNL1        0.0157
     13 C          -4.4573  -18.4720   22.4149 C.3     1  UNL1        0.0364
     14 C          -5.6942  -18.4528   21.5666 C.3     1  UNL1        0.1181
     15 C          -5.2948  -18.7747   20.1571 C.3     1  UNL1        0.1583
     16 O          -6.2172  -18.8630   18.9775 O.3     1  UNL1       -0.3800
     17 C          -3.8108  -18.9929   20.1342 C.3     1  UNL1        0.1490
     18 O          -2.9889  -19.3377   18.9278 O.3     1  UNL1       -0.3814
     19 H          -5.7064  -19.0856   18.1836 H       1  UNL1        0.2105
     20 H          -3.5659  -19.4003   18.1506 H       1  UNL1        0.2105
     21 C          -1.8547  -19.0749   21.2006 C.2     1  UNL1        0.3185
     22 O          -1.3135  -20.4710   21.2893 O.2     1  UNL1       -0.2500
     23 C          -1.4422  -16.5309   20.8721 C.3     1  UNL1        0.2556
     24 O          -0.9575  -17.9477   20.7830 O.3     1  UNL1       -0.4443
     25 N         -12.0673  -17.8229   22.5506 N.pl3   1  UNL1       -0.3184
     26 H         -12.6488  -17.1060   22.2082 H       1  UNL1        0.1482
     27 C         -12.3328  -18.4242   23.8990 C.3     1  UNL1        0.0703
     28 C         -11.2150  -19.0639   24.6680 C.3     1  UNL1        0.0179
     29 C         -10.1361  -18.9763   25.7064 C.3     1  UNL1        0.0017
     30 C         -10.3581  -20.2594   24.9618 C.3     1  UNL1        0.0017
     31 C         -13.7158  -18.3858   24.4782 C.3     1  UNL1        0.0179
     32 C         -15.2038  -18.3748   24.2885 C.3     1  UNL1        0.0017
     33 C         -14.6236  -18.3302   25.6710 C.3     1  UNL1        0.0017
@<TRIPOS>BOND
     1    23    24    1
     2    24    21    1
     3    21    22    2
     4    11    21    1
     5    11    12    1
     6    13    12    1
     7    13    14    1
     8    14     1    1
     9     1     2   ar
    10     2     3   ar
    11     3     4   ar
    12     4     5   ar
    13     5    25    1
    14    25    27    1
    15    27    28    1
    16    28    29    1
    17    29    30    1
    18    27    31    1
    19    31    32    1
    20    32    33    1
    21     5     6   ar
    22     6     7   ar
    23     7     8    1
    24     7     9   ar
    25     9    10   ar
    26    14    15    1
    27    15    16    1
    28    15    17    1
    29    17    18    1
    30    13    11    1
    31    10     1   ar
    32    17    11    1
    33    10     4   ar
    34    30    28    1
    35    33    31    1
    36    25    26    1
    37    16    19    1
    38    18    20    1
@<TRIPOS>MOLECULE
*****
 33 38 0 0 0
SMALL
GASTEIGER

@<TRIPOS>ATOM
      1 N           7.5584   -3.7868   22.1288 N.ar    1  UNL1       -0.2937
      2 C           8.6683   -2.8403   21.7793 C.ar    1  UNL1        0.1798
      3 N           8.3540   -2.2297   20.4457 N.ar    1  UNL1       -0.2195
      4 C           7.0498   -2.7988   19.9711 C.ar    1  UNL1        0.1483
      5 C           6.2465   -2.5651   18.7261 C.ar    1  UNL1        0.1518
      6 N           4.9514   -3.2937   18.5213 N.ar    1  UNL1       -0.2003
      7 C           4.4597   -4.2561   19.5616 C.ar    1  UNL1        0.2264
      8 CL          3.1647   -4.9847   19.3568 Cl      1  UNL1       -0.0409
      9 N           5.2631   -4.4898   20.8066 N.ar    1  UNL1       -0.1976
     10 C           6.5581   -3.7612   21.0113 C.ar    1  UNL1        0.1680
     11 C           7.8089   -6.3777   25.0079 C.3     1  UNL1        0.1184
     12 C           8.7815   -7.1670   24.1827 C.3     1  UNL1        0.0157
     13 C           8.1988   -5.8949   23.6423 C.3     1  UNL1        0.0364
     14 C           7.4651   -4.6138   23.3768 C.3     1  UNL1        0.1181
     15 C           6.6218   -4.3048   24.5782 C.3     1  UNL1        0.1583
     16 O           5.7238   -3.1147   24.7426 O.3     1  UNL1       -0.3800
     17 C           6.8343   -5.3951   25.5864 C.3     1  UNL1        0.1490
     18 O           6.1860   -5.4865   26.9359 O.3     1  UNL1       -0.3814
     19 H           5.2925   -3.1525   25.6107 H       1  UNL1        0.2105
     20 H           5.5990   -4.7252   27.0649 H       1  UNL1        0.2105
     21 C           7.8180   -7.3030   26.1887 C.2     1  UNL1        0.3185
     22 O           6.8784   -8.4713   26.2332 O.2     1  UNL1       -0.2500
     23 C           8.9695   -8.1147   28.3716 C.3     1  UNL1        0.2556
     24 O           8.7668   -7.0596   27.3247 O.3     1  UNL1       -0.4443
     25 N           6.7382   -1.6027   17.6859 N.pl3   1  UNL1       -0.3184
     26 H           7.4176   -1.8882   17.0331 H       1  UNL1        0.1482
     27 C           6.1946   -0.2053   17.6402 C.3     1  UNL1        0.0703
     28 C           4.7368    0.0410   17.8935 C.3     1  UNL1        0.0179
     29 C           3.6510    0.7608   18.6369 C.3     1  UNL1        0.0017
     30 C           3.2977   -0.2523   17.5886 C.3     1  UNL1        0.0017
     31 C           7.1089    0.9456   17.3414 C.3     1  UNL1        0.0179
     32 C           7.8822    2.1446   17.8046 C.3     1  UNL1        0.0017
     33 C           7.9191    1.7403   16.3606 C.3     1  UNL1        0.0017
@<TRIPOS>BOND
     1    23    24    1
     2    24    21    1
     3    21    22    2
     4    11    21    1
     5    11    12    1
     6    13    12    1
     7    13    14    1
     8    14     1    1
     9     1     2   ar
    10     2     3   ar
    11     3     4   ar
    12     4     5   ar
    13     5    25    1
    14    25    27    1
    15    27    28    1
    16    28    29    1
    17    29    30    1
    18    27    31    1
    19    31    32    1
    20    32    33    1
    21     5     6   ar
    22     6     7   ar
    23     7     8    1
    24     7     9   ar
    25     9    10   ar
    26    14    15    1
    27    15    16    1
    28    15    17    1
    29    17    18    1
    30    13    11    1
    31    10     1   ar
    32    17    11    1
    33    10     4   ar
    34    30    28    1
    35    33    31    1
    36    25    26    1
    37    16    19    1
    38    18    20    1
