@<TRIPOS>MOLECULE
*****
 32 36 0 0 0
SMALL
GASTEIGER

@<TRIPOS>ATOM
      1 N          -7.8150  -19.6457   21.4915 N.3     1  UNL1       -0.2679
      2 C          -8.5306  -19.2426   22.7466 C.3     1  UNL1        0.0978
      3 C          -9.3929  -20.2342   23.4698 C.3     1  UNL1        0.0224
      4 C         -10.1084  -19.8310   24.7250 C.3     1  UNL1        0.0065
      5 C          -9.9617  -18.4362   25.2569 C.3     1  UNL1        0.0277
      6 C          -9.0995  -17.4445   24.5336 C.ar    1  UNL1       -0.0073
      7 C          -8.9528  -16.0497   25.0655 C.ar    1  UNL1       -0.0015
      8 C          -8.0905  -15.0581   24.3422 C.ar    1  UNL1        0.0203
      9 C          -7.3749  -15.4612   23.0871 C.ar    1  UNL1        0.0985
     10 N          -7.5216  -16.8560   22.5553 N.ar    1  UNL1       -0.2471
     11 C          -8.3839  -17.8477   23.2785 C.ar    1  UNL1        0.0695
     12 C          -6.4668  -20.2983   21.5733 C.3     1  UNL1        0.0886
     13 C          -0.6297  -16.9252   20.2317 C.ar    1  UNL1       -0.0003
     14 C          -1.0058  -17.7502   19.0369 C.ar    1  UNL1       -0.0003
     15 C          -2.2484  -18.5899   19.0662 C.ar    1  UNL1       -0.0045
     16 C          -3.1150  -18.6044   20.2904 C.ar    1  UNL1       -0.0234
     17 C          -2.7389  -17.7794   21.4853 C.ar    1  UNL1       -0.0103
     18 C          -1.4963  -16.9397   21.4560 C.ar    1  UNL1       -0.0032
     19 C          -3.6055  -17.7939   22.7096 C.3     1  UNL1        0.0953
     20 N          -4.8482  -18.6335   22.7390 N.3     1  UNL1       -0.2934
     21 C          -5.2242  -19.4586   21.5440 C.3     1  UNL1        0.0748
     22 C          -4.3576  -19.4441   20.3198 C.3     1  UNL1        0.0432
     23 H          -5.6275  -17.9999   22.9164 H       1  UNL1        0.1236
     24 C          -8.4476  -19.3964   20.1544 C.3     1  UNL1        0.0724
     25 C          -9.9200  -19.6144   19.9689 C.3     1  UNL1        0.0174
     26 C         -10.8885  -18.5192   20.3044 C.3     1  UNL1        0.0041
     27 C         -10.8398  -17.2199   19.5563 C.3     1  UNL1        0.0172
     28 C         -11.8083  -16.1246   19.8918 C.3     1  UNL1        0.0686
     29 N         -12.8255  -16.3288   20.9753 N.3     1  UNL1       -0.2975
     30 C         -12.8741  -17.6280   21.7232 C.3     1  UNL1        0.0686
     31 C         -11.9056  -18.7232   21.3878 C.3     1  UNL1        0.0172
     32 H         -13.7421  -16.2014   20.5464 H       1  UNL1        0.1232
@<TRIPOS>BOND
     1    13    14   ar
     2    14    15   ar
     3    15    16   ar
     4    16    17   ar
     5    17    18   ar
     6    17    19    1
     7    19    20    1
     8    20    21    1
     9    21    12    1
    10    12     1    1
    11     1    24    1
    12    24    25    1
    13    25    26    1
    14    26    27    1
    15    27    28    1
    16    28    29    1
    17    29    30    1
    18    30    31    1
    19     2     1    1
    20     2     3    1
    21     3     4    1
    22     4     5    1
    23     5     6    1
    24     6     7   ar
    25     7     8   ar
    26     8     9   ar
    27     9    10   ar
    28    10    11   ar
    29    21    22    1
    30    18    13   ar
    31    31    26    1
    32    11     2    1
    33    22    16    1
    34    11     6   ar
    35    20    23    1
    36    29    32    1
@<TRIPOS>MOLECULE
*****
 32 36 0 0 0
SMALL
GASTEIGER

@<TRIPOS>ATOM
      1 N          -7.8172  -18.2384   22.4151 N.3     1  UNL1       -0.2679
      2 C          -9.2137  -18.4649   22.9137 C.3     1  UNL1        0.0978
      3 C          -9.4434  -19.2559   24.1673 C.3     1  UNL1        0.0224
      4 C         -10.8399  -19.4823   24.6659 C.3     1  UNL1        0.0065
      5 C         -12.0066  -18.9178   23.9109 C.3     1  UNL1        0.0277
      6 C         -11.7769  -18.1268   22.6573 C.ar    1  UNL1       -0.0073
      7 C         -12.9436  -17.5623   21.9023 C.ar    1  UNL1       -0.0015
      8 C         -12.7138  -16.7713   20.6486 C.ar    1  UNL1        0.0203
      9 C         -11.3174  -16.5449   20.1500 C.ar    1  UNL1        0.0985
     10 N         -10.1507  -17.1094   20.9051 N.ar    1  UNL1       -0.2471
     11 C         -10.3804  -17.9004   22.1587 C.ar    1  UNL1        0.0695
     12 C          -6.9959  -19.3973   21.9327 C.3     1  UNL1        0.0886
     13 C          -0.6681  -18.1951   19.5320 C.ar    1  UNL1       -0.0003
     14 C          -1.6679  -17.8847   18.4578 C.ar    1  UNL1       -0.0003
     15 C          -3.1335  -18.0630   18.7231 C.ar    1  UNL1       -0.0045
     16 C          -3.5992  -18.5518   20.0626 C.ar    1  UNL1       -0.0234
     17 C          -2.5993  -18.8622   21.1367 C.ar    1  UNL1       -0.0103
     18 C          -1.1338  -18.6839   20.8714 C.ar    1  UNL1       -0.0032
     19 C          -3.0649  -19.3510   22.4763 C.3     1  UNL1        0.0953
     20 N          -4.5305  -19.5294   22.7416 N.3     1  UNL1       -0.2934
     21 C          -5.5304  -19.2189   21.6674 C.3     1  UNL1        0.0748
     22 C          -5.0647  -18.7301   20.3279 C.3     1  UNL1        0.0432
     23 H          -4.7600  -18.9351   23.5382 H       1  UNL1        0.1236
     24 C          -7.2420  -16.8532   22.3989 C.3     1  UNL1        0.0724
     25 C          -7.8958  -15.7603   23.1914 C.3     1  UNL1        0.0174
     26 C          -7.5076  -15.5368   24.6230 C.3     1  UNL1        0.0041
     27 C          -6.0724  -15.2875   24.9807 C.3     1  UNL1        0.0172
     28 C          -5.6842  -15.0640   26.4123 C.3     1  UNL1        0.0686
     29 N          -6.7313  -15.0898   27.4861 N.3     1  UNL1       -0.2975
     30 C          -8.1665  -15.3390   27.1283 C.3     1  UNL1        0.0686
     31 C          -8.5546  -15.5626   25.6967 C.3     1  UNL1        0.0172
     32 H          -6.6972  -14.1832   27.9523 H       1  UNL1        0.1232
@<TRIPOS>BOND
     1    13    14   ar
     2    14    15   ar
     3    15    16   ar
     4    16    17   ar
     5    17    18   ar
     6    17    19    1
     7    19    20    1
     8    20    21    1
     9    21    12    1
    10    12     1    1
    11     1    24    1
    12    24    25    1
    13    25    26    1
    14    26    27    1
    15    27    28    1
    16    28    29    1
    17    29    30    1
    18    30    31    1
    19     2     1    1
    20     2     3    1
    21     3     4    1
    22     4     5    1
    23     5     6    1
    24     6     7   ar
    25     7     8   ar
    26     8     9   ar
    27     9    10   ar
    28    10    11   ar
    29    21    22    1
    30    18    13   ar
    31    31    26    1
    32    11     2    1
    33    22    16    1
    34    11     6   ar
    35    20    23    1
    36    29    32    1
@<TRIPOS>MOLECULE
*****
 32 36 0 0 0
SMALL
GASTEIGER

@<TRIPOS>ATOM
      1 N          -7.8150  -19.3347   20.6781 N.3     1  UNL1       -0.2679
      2 C          -8.1721  -18.3325   21.7354 C.3     1  UNL1        0.0978
      3 C          -7.8395  -16.8832   21.5381 C.3     1  UNL1        0.0224
      4 C          -8.1967  -15.8810   22.5955 C.3     1  UNL1        0.0065
      5 C          -8.8864  -16.3281   23.8502 C.3     1  UNL1        0.0277
      6 C          -9.2190  -17.7774   24.0476 C.ar    1  UNL1       -0.0073
      7 C          -9.9087  -18.2245   25.3023 C.ar    1  UNL1       -0.0015
      8 C         -10.2413  -19.6738   25.4996 C.ar    1  UNL1        0.0203
      9 C          -9.8841  -20.6760   24.4423 C.ar    1  UNL1        0.0985
     10 N          -9.1944  -20.2289   23.1876 N.ar    1  UNL1       -0.2471
     11 C          -8.8619  -18.7796   22.9902 C.ar    1  UNL1        0.0695
     12 C          -6.5969  -20.1949   20.8408 C.3     1  UNL1        0.0886
     13 C          -0.3660  -17.3554   20.2382 C.ar    1  UNL1       -0.0003
     14 C          -0.8895  -17.6853   18.8718 C.ar    1  UNL1       -0.0003
     15 C          -2.2403  -18.3192   18.7190 C.ar    1  UNL1       -0.0045
     16 C          -3.0678  -18.6232   19.9327 C.ar    1  UNL1       -0.0234
     17 C          -2.5443  -18.2932   21.2991 C.ar    1  UNL1       -0.0103
     18 C          -1.1934  -17.6593   21.4518 C.ar    1  UNL1       -0.0032
     19 C          -3.3717  -18.5971   22.5128 C.3     1  UNL1        0.0953
     20 N          -4.7226  -19.2310   22.3601 N.3     1  UNL1       -0.2934
     21 C          -5.2460  -19.5610   20.9936 C.3     1  UNL1        0.0748
     22 C          -4.4186  -19.2571   19.7799 C.3     1  UNL1        0.0432
     23 H          -5.3961  -18.5956   22.7878 H       1  UNL1        0.1236
     24 C          -8.6758  -19.4767   19.4579 C.3     1  UNL1        0.0724
     25 C         -10.1575  -19.6597   19.6026 C.3     1  UNL1        0.0174
     26 C         -10.9966  -18.5579   20.1787 C.3     1  UNL1        0.0041
     27 C         -10.9670  -17.1913   19.5610 C.3     1  UNL1        0.0172
     28 C         -11.8061  -16.0894   20.1370 C.3     1  UNL1        0.0686
     29 N         -12.6749  -16.3542   21.3309 N.3     1  UNL1       -0.2975
     30 C         -12.7045  -17.7208   21.9486 C.3     1  UNL1        0.0686
     31 C         -11.8654  -18.8226   21.3725 C.3     1  UNL1        0.0172
     32 H         -13.6317  -16.1359   21.0530 H       1  UNL1        0.1232
@<TRIPOS>BOND
     1    13    14   ar
     2    14    15   ar
     3    15    16   ar
     4    16    17   ar
     5    17    18   ar
     6    17    19    1
     7    19    20    1
     8    20    21    1
     9    21    12    1
    10    12     1    1
    11     1    24    1
    12    24    25    1
    13    25    26    1
    14    26    27    1
    15    27    28    1
    16    28    29    1
    17    29    30    1
    18    30    31    1
    19     2     1    1
    20     2     3    1
    21     3     4    1
    22     4     5    1
    23     5     6    1
    24     6     7   ar
    25     7     8   ar
    26     8     9   ar
    27     9    10   ar
    28    10    11   ar
    29    21    22    1
    30    18    13   ar
    31    31    26    1
    32    11     2    1
    33    22    16    1
    34    11     6   ar
    35    20    23    1
    36    29    32    1
@<TRIPOS>MOLECULE
*****
 32 36 0 0 0
SMALL
GASTEIGER

@<TRIPOS>ATOM
      1 N          -8.3844  -17.5844   21.6154 N.3     1  UNL1       -0.2679
      2 C          -9.8710  -17.4320   21.4858 C.3     1  UNL1        0.0978
      3 C         -10.4581  -16.8366   20.2405 C.3     1  UNL1        0.0224
      4 C         -11.9448  -16.6842   20.1109 C.3     1  UNL1        0.0065
      5 C         -12.8442  -17.1271   21.2266 C.3     1  UNL1        0.0277
      6 C         -12.2570  -17.7225   22.4719 C.ar    1  UNL1       -0.0073
      7 C         -13.1564  -18.1654   23.5876 C.ar    1  UNL1       -0.0015
      8 C         -12.5693  -18.7607   24.8329 C.ar    1  UNL1        0.0203
      9 C         -11.0827  -18.9131   24.9625 C.ar    1  UNL1        0.0985
     10 N         -10.1833  -18.4702   23.8469 N.ar    1  UNL1       -0.2471
     11 C         -10.7705  -17.8749   22.6015 C.ar    1  UNL1        0.0695
     12 C          -7.7176  -18.8487   21.1604 C.3     1  UNL1        0.0886
     13 C          -0.9344  -18.7708   20.0501 C.ar    1  UNL1       -0.0003
     14 C          -1.6322  -18.1641   18.8691 C.ar    1  UNL1       -0.0003
     15 C          -3.1284  -18.0584   18.8549 C.ar    1  UNL1       -0.0045
     16 C          -3.9268  -18.5593   20.0218 C.ar    1  UNL1       -0.0234
     17 C          -3.2290  -19.1659   21.2029 C.ar    1  UNL1       -0.0103
     18 C          -1.7328  -19.2717   21.2170 C.ar    1  UNL1       -0.0032
     19 C          -4.0273  -19.6669   22.3698 C.3     1  UNL1        0.0953
     20 N          -5.5235  -19.5611   22.3557 N.3     1  UNL1       -0.2934
     21 C          -6.2214  -18.9544   21.1745 C.3     1  UNL1        0.0748
     22 C          -5.4230  -18.4535   20.0076 C.3     1  UNL1        0.0432
     23 H          -5.7872  -19.0067   23.1702 H       1  UNL1        0.1236
     24 C          -7.5646  -16.4726   22.2001 C.3     1  UNL1        0.0724
     25 C          -8.1798  -15.5270   23.1887 C.3     1  UNL1        0.0174
     26 C          -7.6500  -15.4580   24.5903 C.3     1  UNL1        0.0041
     27 C          -8.5937  -15.5368   25.7536 C.3     1  UNL1        0.0172
     28 C          -8.0639  -15.4678   27.1552 C.3     1  UNL1        0.0686
     29 N          -6.5903  -15.3198   27.3935 N.3     1  UNL1       -0.2975
     30 C          -5.6466  -15.2410   26.2303 C.3     1  UNL1        0.0686
     31 C          -6.1765  -15.3100   24.8287 C.3     1  UNL1        0.0172
     32 H          -6.3007  -16.1215   27.9538 H       1  UNL1        0.1232
@<TRIPOS>BOND
     1    13    14   ar
     2    14    15   ar
     3    15    16   ar
     4    16    17   ar
     5    17    18   ar
     6    17    19    1
     7    19    20    1
     8    20    21    1
     9    21    12    1
    10    12     1    1
    11     1    24    1
    12    24    25    1
    13    25    26    1
    14    26    27    1
    15    27    28    1
    16    28    29    1
    17    29    30    1
    18    30    31    1
    19     2     1    1
    20     2     3    1
    21     3     4    1
    22     4     5    1
    23     5     6    1
    24     6     7   ar
    25     7     8   ar
    26     8     9   ar
    27     9    10   ar
    28    10    11   ar
    29    21    22    1
    30    18    13   ar
    31    31    26    1
    32    11     2    1
    33    22    16    1
    34    11     6   ar
    35    20    23    1
    36    29    32    1
@<TRIPOS>MOLECULE
*****
 32 36 0 0 0
SMALL
GASTEIGER

@<TRIPOS>ATOM
      1 N          -5.8953  -17.9149   22.1442 N.3     1  UNL1       -0.2679
      2 C          -5.0006  -18.8147   21.3443 C.3     1  UNL1        0.0978
      3 C          -5.5065  -20.1437   20.8670 C.3     1  UNL1        0.0224
      4 C          -4.6117  -21.0435   20.0671 C.3     1  UNL1        0.0065
      5 C          -3.2111  -20.6143   19.7445 C.3     1  UNL1        0.0277
      6 C          -2.7053  -19.2852   20.2218 C.ar    1  UNL1       -0.0073
      7 C          -1.3047  -18.8560   19.8992 C.ar    1  UNL1       -0.0015
      8 C          -0.7989  -17.5269   20.3764 C.ar    1  UNL1        0.0203
      9 C          -1.6936  -16.6272   21.1763 C.ar    1  UNL1        0.0985
     10 N          -3.0941  -17.0564   21.4989 N.ar    1  UNL1       -0.2471
     11 C          -3.6000  -18.3855   21.0216 C.ar    1  UNL1        0.0695
     12 C          -7.2491  -17.5417   21.6166 C.3     1  UNL1        0.0886
     13 C         -13.4735  -18.3488   24.4193 C.ar    1  UNL1       -0.0003
     14 C         -13.5291  -17.2397   23.4110 C.ar    1  UNL1       -0.0003
     15 C         -12.2953  -16.8565   22.6487 C.ar    1  UNL1       -0.0045
     16 C         -11.0060  -17.5823   22.8949 C.ar    1  UNL1       -0.0234
     17 C         -10.9503  -18.6914   23.9032 C.ar    1  UNL1       -0.0103
     18 C         -12.1841  -19.0746   24.6655 C.ar    1  UNL1       -0.0032
     19 C          -9.6609  -19.4173   24.1494 C.3     1  UNL1        0.0953
     20 N          -8.4272  -19.0341   23.3872 N.3     1  UNL1       -0.2934
     21 C          -8.4828  -17.9249   22.3788 C.3     1  UNL1        0.0748
     22 C          -9.7722  -17.1991   22.1327 C.3     1  UNL1        0.0432
     23 H          -8.1171  -19.8689   22.8899 H       1  UNL1        0.1236
     24 C          -5.4364  -17.3884   23.4716 C.3     1  UNL1        0.0724
     25 C          -5.6917  -15.9568   23.8395 C.3     1  UNL1        0.0174
     26 C          -6.5368  -15.6287   25.0346 C.3     1  UNL1        0.0041
     27 C          -5.8904  -15.3856   26.3662 C.3     1  UNL1        0.0172
     28 C          -6.7355  -15.0575   27.5613 C.3     1  UNL1        0.0686
     29 N          -8.2269  -14.9726   27.4247 N.3     1  UNL1       -0.2975
     30 C          -8.8732  -15.2157   26.0931 C.3     1  UNL1        0.0686
     31 C          -8.0281  -15.5438   24.8981 C.3     1  UNL1        0.0172
     32 H          -8.4962  -14.0327   27.7155 H       1  UNL1        0.1232
@<TRIPOS>BOND
     1    13    14   ar
     2    14    15   ar
     3    15    16   ar
     4    16    17   ar
     5    17    18   ar
     6    17    19    1
     7    19    20    1
     8    20    21    1
     9    21    12    1
    10    12     1    1
    11     1    24    1
    12    24    25    1
    13    25    26    1
    14    26    27    1
    15    27    28    1
    16    28    29    1
    17    29    30    1
    18    30    31    1
    19     2     1    1
    20     2     3    1
    21     3     4    1
    22     4     5    1
    23     5     6    1
    24     6     7   ar
    25     7     8   ar
    26     8     9   ar
    27     9    10   ar
    28    10    11   ar
    29    21    22    1
    30    18    13   ar
    31    31    26    1
    32    11     2    1
    33    22    16    1
    34    11     6   ar
    35    20    23    1
    36    29    32    1
@<TRIPOS>MOLECULE
*****
 32 36 0 0 0
SMALL
GASTEIGER

@<TRIPOS>ATOM
      1 N          -7.5361  -18.9732   22.0602 N.3     1  UNL1       -0.2679
      2 C          -6.4529  -19.6586   21.2811 C.3     1  UNL1        0.0978
      3 C          -6.8095  -20.6543   20.2174 C.3     1  UNL1        0.0224
      4 C          -5.7263  -21.3398   19.4384 C.3     1  UNL1        0.0065
      5 C          -4.2866  -21.0295   19.7230 C.3     1  UNL1        0.0277
      6 C          -3.9301  -20.0338   20.7867 C.ar    1  UNL1       -0.0073
      7 C          -2.4904  -19.7236   21.0713 C.ar    1  UNL1       -0.0015
      8 C          -2.1339  -18.7279   22.1350 C.ar    1  UNL1        0.0203
      9 C          -3.2170  -18.0424   22.9141 C.ar    1  UNL1        0.0985
     10 N          -4.6566  -18.3527   22.6294 N.ar    1  UNL1       -0.2471
     11 C          -5.0132  -19.3484   21.5657 C.ar    1  UNL1        0.0695
     12 C          -7.6287  -17.4760   22.0581 C.3     1  UNL1        0.0886
     13 C          -7.0678  -14.2589   28.1067 C.ar    1  UNL1       -0.0003
     14 C          -8.4093  -14.9252   28.0275 C.ar    1  UNL1       -0.0003
     15 C          -8.7898  -15.7018   26.8019 C.ar    1  UNL1       -0.0045
     16 C          -7.8288  -15.8122   25.6556 C.ar    1  UNL1       -0.0234
     17 C          -6.4872  -15.1460   25.7348 C.ar    1  UNL1       -0.0103
     18 C          -6.1067  -14.3693   26.9603 C.ar    1  UNL1       -0.0032
     19 C          -5.5261  -15.2564   24.5884 C.3     1  UNL1        0.0953
     20 N          -5.9066  -16.0331   23.3628 N.3     1  UNL1       -0.2934
     21 C          -7.2482  -16.6993   23.2837 C.3     1  UNL1        0.0748
     22 C          -8.2093  -16.5889   24.4300 C.3     1  UNL1        0.0432
     23 H          -5.2066  -16.7663   23.2498 H       1  UNL1        0.1236
     24 C          -8.5265  -19.7848   22.8413 C.3     1  UNL1        0.0724
     25 C          -9.8765  -20.0833   22.2597 C.3     1  UNL1        0.0174
     26 C         -10.7384  -18.9653   21.7524 C.3     1  UNL1        0.0041
     27 C         -10.6588  -18.5507   20.3130 C.3     1  UNL1        0.0172
     28 C         -11.5207  -17.4328   19.8057 C.3     1  UNL1        0.0686
     29 N         -12.4622  -16.7295   20.7379 N.3     1  UNL1       -0.2975
     30 C         -12.5419  -17.1440   22.1772 C.3     1  UNL1        0.0686
     31 C         -11.6800  -18.2620   22.6845 C.3     1  UNL1        0.0172
     32 H         -13.3985  -16.8381   20.3479 H       1  UNL1        0.1232
@<TRIPOS>BOND
     1    13    14   ar
     2    14    15   ar
     3    15    16   ar
     4    16    17   ar
     5    17    18   ar
     6    17    19    1
     7    19    20    1
     8    20    21    1
     9    21    12    1
    10    12     1    1
    11     1    24    1
    12    24    25    1
    13    25    26    1
    14    26    27    1
    15    27    28    1
    16    28    29    1
    17    29    30    1
    18    30    31    1
    19     2     1    1
    20     2     3    1
    21     3     4    1
    22     4     5    1
    23     5     6    1
    24     6     7   ar
    25     7     8   ar
    26     8     9   ar
    27     9    10   ar
    28    10    11   ar
    29    21    22    1
    30    18    13   ar
    31    31    26    1
    32    11     2    1
    33    22    16    1
    34    11     6   ar
    35    20    23    1
    36    29    32    1
