@<TRIPOS>MOLECULE
*****
 37 41 0 0 0
SMALL
GASTEIGER

@<TRIPOS>ATOM
      1 N          -9.1638  -18.1492   21.2138 N.3     1  UNL1       -0.2679
      2 C          -9.6905  -18.8633   22.4231 C.3     1  UNL1        0.0978
      3 C          -8.8721  -19.9380   23.0752 C.3     1  UNL1        0.0224
      4 C          -9.3988  -20.6521   24.2846 C.3     1  UNL1        0.0065
      5 C         -10.7439  -20.2916   24.8419 C.3     1  UNL1        0.0277
      6 C         -11.5624  -19.2170   24.1898 C.ar    1  UNL1       -0.0073
      7 C         -12.9076  -18.8564   24.7471 C.ar    1  UNL1       -0.0015
      8 C         -13.7260  -17.7818   24.0950 C.ar    1  UNL1        0.0203
      9 C         -13.1993  -17.0676   22.8856 C.ar    1  UNL1        0.0985
     10 N         -11.8541  -17.4281   22.3283 N.ar    1  UNL1       -0.2471
     11 C         -11.0356  -18.5028   22.9804 C.ar    1  UNL1        0.0695
     12 C          -9.2614  -18.7914   19.8618 C.3     1  UNL1        0.0725
     13 C          -8.1322  -19.6351   19.3489 C.3     1  UNL1        0.0188
     14 C          -6.7632  -19.4999   19.9470 C.3     1  UNL1        0.0185
     15 C          -5.9796  -20.7259   20.3114 C.3     1  UNL1        0.0686
     16 N          -4.4924  -20.7508   20.1167 N.3     1  UNL1       -0.2985
     17 H          -4.1341  -21.5194   20.6836 H       1  UNL1        0.1232
     18 F          -1.7602  -16.2068   22.2911 F       1  UNL1       -0.2043
     19 C          -2.0287  -17.1259   21.1365 C.3     1  UNL1        0.2640
     20 F          -1.0390  -16.1939   20.5028 F       1  UNL1       -0.2043
     21 C          -1.9535  -17.7213   19.7619 C.3     1  UNL1        0.0679
     22 C          -2.7747  -18.9297   19.4219 C.3     1  UNL1        0.0213
     23 C          -3.6712  -19.5425   20.4566 C.3     1  UNL1        0.0543
     24 C          -3.7464  -18.9471   21.8314 C.3     1  UNL1        0.0213
     25 C          -2.9252  -17.7388   22.1713 C.3     1  UNL1        0.0679
     26 C          -8.5395  -16.7928   21.3564 C.3     1  UNL1        0.0886
     27 C          -7.8651  -16.4088   22.6402 C.3     1  UNL1        0.0748
     28 C          -8.6873  -16.1013   23.8565 C.3     1  UNL1        0.0432
     29 C          -8.0129  -15.7173   25.1402 C.ar    1  UNL1       -0.0234
     30 C          -8.8351  -15.4098   26.3565 C.ar    1  UNL1       -0.0045
     31 C          -8.1607  -15.0258   27.6401 C.ar    1  UNL1       -0.0003
     32 C          -6.6641  -14.9493   27.7074 C.ar    1  UNL1       -0.0003
     33 C          -5.8420  -15.2568   26.4911 C.ar    1  UNL1       -0.0032
     34 C          -6.5164  -15.6408   25.2075 C.ar    1  UNL1       -0.0103
     35 C          -5.6942  -15.9483   23.9911 C.3     1  UNL1        0.0953
     36 N          -6.3686  -16.3323   22.7075 N.3     1  UNL1       -0.2934
     37 H          -6.0148  -17.2547   22.4535 H       1  UNL1        0.1236
@<TRIPOS>BOND
     1    18    19    1
     2    19    20    1
     3    19    21    1
     4    21    22    1
     5    22    23    1
     6    23    16    1
     7    16    15    1
     8    15    14    1
     9    14    13    1
    10    13    12    1
    11    12     1    1
    12     1    26    1
    13    27    26    1
    14    27    28    1
    15    28    29    1
    16    29    30   ar
    17    30    31   ar
    18    31    32   ar
    19    32    33   ar
    20    33    34   ar
    21    34    35    1
    22    35    36    1
    23     2     1    1
    24     2     3    1
    25     3     4    1
    26     4     5    1
    27     5     6    1
    28     6     7   ar
    29     7     8   ar
    30     8     9   ar
    31     9    10   ar
    32    10    11   ar
    33    23    24    1
    34    24    25    1
    35    25    19    1
    36    36    27    1
    37    11     2    1
    38    34    29   ar
    39    11     6   ar
    40    16    17    1
    41    36    37    1
@<TRIPOS>MOLECULE
*****
 37 41 0 0 0
SMALL
GASTEIGER

@<TRIPOS>ATOM
      1 N         -10.7044  -16.9498   21.0930 N.3     1  UNL1       -0.2679
      2 C         -11.3944  -17.5621   22.2758 C.3     1  UNL1        0.0978
      3 C         -12.7464  -17.0658   22.6951 C.3     1  UNL1        0.0224
      4 C         -13.4364  -17.6780   23.8779 C.3     1  UNL1        0.0065
      5 C         -12.7745  -18.7866   24.6414 C.3     1  UNL1        0.0277
      6 C         -11.4226  -19.2829   24.2221 C.ar    1  UNL1       -0.0073
      7 C         -10.7606  -20.3915   24.9855 C.ar    1  UNL1       -0.0015
      8 C          -9.4087  -20.8878   24.5662 C.ar    1  UNL1        0.0203
      9 C          -8.7186  -20.2756   23.3834 C.ar    1  UNL1        0.0985
     10 N          -9.3805  -19.1670   22.6199 N.ar    1  UNL1       -0.2471
     11 C         -10.7325  -18.6706   23.0393 C.ar    1  UNL1        0.0695
     12 C         -10.8375  -17.5796   19.7382 C.3     1  UNL1        0.0725
     13 C         -10.5853  -19.0482   19.5658 C.3     1  UNL1        0.0188
     14 C          -9.3834  -19.5181   18.8012 C.3     1  UNL1        0.0185
     15 C          -8.1059  -19.8234   19.5256 C.3     1  UNL1        0.0686
     16 N          -7.4653  -18.7778   20.3895 N.3     1  UNL1       -0.2985
     17 H          -7.5845  -17.8857   19.9095 H       1  UNL1        0.1232
     18 F          -1.7845  -19.4006   20.8160 F       1  UNL1       -0.2043
     19 C          -3.1066  -19.1048   21.4597 C.3     1  UNL1        0.2640
     20 F          -2.2029  -18.9759   22.6499 F       1  UNL1       -0.2043
     21 C          -4.1149  -18.7642   22.5167 C.3     1  UNL1        0.0679
     22 C          -5.5678  -18.6552   22.1600 C.3     1  UNL1        0.0213
     23 C          -6.0124  -18.8868   20.7463 C.3     1  UNL1        0.0543
     24 C          -5.0040  -19.2273   19.6892 C.3     1  UNL1        0.0213
     25 C          -3.5512  -19.3363   20.0459 C.3     1  UNL1        0.0679
     26 C          -9.8813  -15.7077   21.2650 C.3     1  UNL1        0.0886
     27 C          -8.8953  -15.6113   22.3914 C.3     1  UNL1        0.0748
     28 C          -9.3297  -15.9093   23.7959 C.3     1  UNL1        0.0432
     29 C          -8.3437  -15.8129   24.9223 C.ar    1  UNL1       -0.0234
     30 C          -8.7781  -16.1108   26.3267 C.ar    1  UNL1       -0.0045
     31 C          -7.7921  -16.0144   27.4531 C.ar    1  UNL1       -0.0003
     32 C          -6.3719  -15.6201   27.1749 C.ar    1  UNL1       -0.0003
     33 C          -5.9375  -15.3222   25.7704 C.ar    1  UNL1       -0.0032
     34 C          -6.9235  -15.4186   24.6441 C.ar    1  UNL1       -0.0103
     35 C          -6.4891  -15.1206   23.2396 C.3     1  UNL1        0.0953
     36 N          -7.4751  -15.2170   22.1133 N.3     1  UNL1       -0.2934
     37 H          -7.1033  -15.9010   21.4542 H       1  UNL1        0.1236
@<TRIPOS>BOND
     1    18    19    1
     2    19    20    1
     3    19    21    1
     4    21    22    1
     5    22    23    1
     6    23    16    1
     7    16    15    1
     8    15    14    1
     9    14    13    1
    10    13    12    1
    11    12     1    1
    12     1    26    1
    13    27    26    1
    14    27    28    1
    15    28    29    1
    16    29    30   ar
    17    30    31   ar
    18    31    32   ar
    19    32    33   ar
    20    33    34   ar
    21    34    35    1
    22    35    36    1
    23     2     1    1
    24     2     3    1
    25     3     4    1
    26     4     5    1
    27     5     6    1
    28     6     7   ar
    29     7     8   ar
    30     8     9   ar
    31     9    10   ar
    32    10    11   ar
    33    23    24    1
    34    24    25    1
    35    25    19    1
    36    36    27    1
    37    11     2    1
    38    34    29   ar
    39    11     6   ar
    40    16    17    1
    41    36    37    1
@<TRIPOS>MOLECULE
*****
 37 41 0 0 0
SMALL
GASTEIGER

@<TRIPOS>ATOM
      1 N          -8.7591  -18.0190   21.4170 N.3     1  UNL1       -0.2679
      2 C         -10.1894  -17.5723   21.3479 C.3     1  UNL1        0.0978
      3 C         -10.6736  -16.7871   20.1651 C.3     1  UNL1        0.0224
      4 C         -12.1039  -16.3404   20.0960 C.3     1  UNL1        0.0065
      5 C         -13.0500  -16.6791   21.2096 C.3     1  UNL1        0.0277
      6 C         -12.5658  -17.4644   22.3923 C.ar    1  UNL1       -0.0073
      7 C         -13.5120  -17.8030   23.5060 C.ar    1  UNL1       -0.0015
      8 C         -13.0278  -18.5883   24.6887 C.ar    1  UNL1        0.0203
      9 C         -11.5975  -19.0349   24.7578 C.ar    1  UNL1        0.0985
     10 N         -10.6514  -18.6963   23.6443 N.ar    1  UNL1       -0.2471
     11 C         -11.1355  -17.9110   22.4614 C.ar    1  UNL1        0.0695
     12 C          -8.4273  -19.4813   21.3789 C.3     1  UNL1        0.0725
     13 C          -7.2185  -19.9952   22.1033 C.3     1  UNL1        0.0188
     14 C          -6.2888  -20.9560   21.4232 C.3     1  UNL1        0.0185
     15 C          -5.5349  -20.5303   20.1983 C.3     1  UNL1        0.0686
     16 N          -4.0365  -20.5981   20.1784 N.3     1  UNL1       -0.2985
     17 H          -3.7626  -21.2684   20.8968 H       1  UNL1        0.1232
     18 F          -1.3960  -15.8214   21.9253 F       1  UNL1       -0.2043
     19 C          -1.6063  -16.8763   20.8799 C.3     1  UNL1        0.2640
     20 F          -0.5755  -16.0306   20.1928 F       1  UNL1       -0.2043
     21 C          -1.4586  -17.6375   19.5959 C.3     1  UNL1        0.0679
     22 C          -2.2687  -18.8782   19.3621 C.3     1  UNL1        0.0213
     23 C          -3.2264  -19.3575   20.4122 C.3     1  UNL1        0.0543
     24 C          -3.3741  -18.5962   21.6963 C.3     1  UNL1        0.0213
     25 C          -2.5641  -17.3557   21.9301 C.3     1  UNL1        0.0679
     26 C          -7.6606  -17.0033   21.5242 C.3     1  UNL1        0.0886
     27 C          -7.2197  -16.5148   22.8722 C.3     1  UNL1        0.0748
     28 C          -8.2347  -16.2629   23.9475 C.3     1  UNL1        0.0432
     29 C          -7.7938  -15.7744   25.2955 C.ar    1  UNL1       -0.0234
     30 C          -8.8088  -15.5226   26.3708 C.ar    1  UNL1       -0.0045
     31 C          -8.3678  -15.0341   27.7188 C.ar    1  UNL1       -0.0003
     32 C          -6.9119  -14.7975   27.9914 C.ar    1  UNL1       -0.0003
     33 C          -5.8969  -15.0494   26.9161 C.ar    1  UNL1       -0.0032
     34 C          -6.3378  -15.5378   25.5682 C.ar    1  UNL1       -0.0103
     35 C          -5.3228  -15.7898   24.4928 C.3     1  UNL1        0.0953
     36 N          -5.7638  -16.2782   23.1449 N.3     1  UNL1       -0.2934
     37 H          -5.2859  -17.1645   22.9821 H       1  UNL1        0.1236
@<TRIPOS>BOND
     1    18    19    1
     2    19    20    1
     3    19    21    1
     4    21    22    1
     5    22    23    1
     6    23    16    1
     7    16    15    1
     8    15    14    1
     9    14    13    1
    10    13    12    1
    11    12     1    1
    12     1    26    1
    13    27    26    1
    14    27    28    1
    15    28    29    1
    16    29    30   ar
    17    30    31   ar
    18    31    32   ar
    19    32    33   ar
    20    33    34   ar
    21    34    35    1
    22    35    36    1
    23     2     1    1
    24     2     3    1
    25     3     4    1
    26     4     5    1
    27     5     6    1
    28     6     7   ar
    29     7     8   ar
    30     8     9   ar
    31     9    10   ar
    32    10    11   ar
    33    23    24    1
    34    24    25    1
    35    25    19    1
    36    36    27    1
    37    11     2    1
    38    34    29   ar
    39    11     6   ar
    40    16    17    1
    41    36    37    1
@<TRIPOS>MOLECULE
*****
 37 41 0 0 0
SMALL
GASTEIGER

@<TRIPOS>ATOM
      1 N          -8.5020  -16.7777   23.6719 N.3     1  UNL1       -0.2679
      2 C          -9.9069  -17.2806   23.5192 C.3     1  UNL1        0.0978
      3 C         -10.4874  -18.2078   24.5455 C.3     1  UNL1        0.0224
      4 C         -11.8923  -18.7107   24.3928 C.3     1  UNL1        0.0065
      5 C         -12.7167  -18.2865   23.2137 C.3     1  UNL1        0.0277
      6 C         -12.1363  -17.3593   22.1874 C.ar    1  UNL1       -0.0073
      7 C         -12.9608  -16.9350   21.0083 C.ar    1  UNL1       -0.0015
      8 C         -12.3803  -16.0078   19.9819 C.ar    1  UNL1        0.0203
      9 C         -10.9754  -15.5049   20.1347 C.ar    1  UNL1        0.0985
     10 N         -10.1510  -15.9291   21.3137 N.ar    1  UNL1       -0.2471
     11 C         -10.7314  -16.8564   22.3401 C.ar    1  UNL1        0.0695
     12 C          -8.0365  -16.2426   24.9936 C.3     1  UNL1        0.0725
     13 C          -6.9646  -15.1944   25.0429 C.3     1  UNL1        0.0188
     14 C          -5.5229  -15.5995   25.1286 C.3     1  UNL1        0.0185
     15 C          -4.7617  -15.9315   23.8795 C.3     1  UNL1        0.0686
     16 N          -3.9968  -17.2186   23.7870 N.3     1  UNL1       -0.2985
     17 H          -3.4693  -17.3106   24.6551 H       1  UNL1        0.1232
     18 F          -0.5014  -18.9816   19.6019 F       1  UNL1       -0.2043
     19 C          -1.0819  -17.8668   20.4206 C.3     1  UNL1        0.2640
     20 F          -0.1738  -17.0830   19.5200 F       1  UNL1       -0.2043
     21 C          -1.3470  -16.4798   20.9264 C.3     1  UNL1        0.0679
     22 C          -2.3187  -16.2637   22.0486 C.3     1  UNL1        0.0213
     23 C          -3.0252  -17.4346   22.6649 C.3     1  UNL1        0.0543
     24 C          -2.7600  -18.8216   22.1590 C.3     1  UNL1        0.0213
     25 C          -1.7884  -19.0377   21.0368 C.3     1  UNL1        0.0679
     26 C          -7.5627  -16.8099   22.5030 C.3     1  UNL1        0.0886
     27 C          -7.3656  -18.0826   21.7340 C.3     1  UNL1        0.0748
     28 C          -8.3082  -18.4417   20.6238 C.3     1  UNL1        0.0432
     29 C          -8.1111  -19.7145   19.8548 C.ar    1  UNL1       -0.0234
     30 C          -9.0537  -20.0736   18.7446 C.ar    1  UNL1       -0.0045
     31 C          -8.8566  -21.3463   17.9756 C.ar    1  UNL1       -0.0003
     32 C          -7.7169  -22.2599   18.3168 C.ar    1  UNL1       -0.0003
     33 C          -6.7743  -21.9008   19.4270 C.ar    1  UNL1       -0.0032
     34 C          -6.9714  -20.6281   20.1960 C.ar    1  UNL1       -0.0103
     35 C          -6.0288  -20.2689   21.3062 C.3     1  UNL1        0.0953
     36 N          -6.2259  -18.9962   22.0752 N.3     1  UNL1       -0.2934
     37 H          -5.3700  -18.4519   21.9680 H       1  UNL1        0.1236
@<TRIPOS>BOND
     1    18    19    1
     2    19    20    1
     3    19    21    1
     4    21    22    1
     5    22    23    1
     6    23    16    1
     7    16    15    1
     8    15    14    1
     9    14    13    1
    10    13    12    1
    11    12     1    1
    12     1    26    1
    13    27    26    1
    14    27    28    1
    15    28    29    1
    16    29    30   ar
    17    30    31   ar
    18    31    32   ar
    19    32    33   ar
    20    33    34   ar
    21    34    35    1
    22    35    36    1
    23     2     1    1
    24     2     3    1
    25     3     4    1
    26     4     5    1
    27     5     6    1
    28     6     7   ar
    29     7     8   ar
    30     8     9   ar
    31     9    10   ar
    32    10    11   ar
    33    23    24    1
    34    24    25    1
    35    25    19    1
    36    36    27    1
    37    11     2    1
    38    34    29   ar
    39    11     6   ar
    40    16    17    1
    41    36    37    1
@<TRIPOS>MOLECULE
*****
 37 41 0 0 0
SMALL
GASTEIGER

@<TRIPOS>ATOM
      1 N          -5.8200  -18.8975   21.5936 N.3     1  UNL1       -0.2679
      2 C          -4.3920  -18.5424   21.8845 C.3     1  UNL1        0.0978
      3 C          -3.9081  -18.4820   23.3030 C.3     1  UNL1        0.0224
      4 C          -2.4801  -18.1269   23.5939 C.3     1  UNL1        0.0065
      5 C          -1.5359  -17.8322   22.4663 C.3     1  UNL1        0.0277
      6 C          -2.0197  -17.8927   21.0478 C.ar    1  UNL1       -0.0073
      7 C          -1.0755  -17.5980   19.9201 C.ar    1  UNL1       -0.0015
      8 C          -1.5593  -17.6584   18.5016 C.ar    1  UNL1        0.0203
      9 C          -2.9873  -18.0135   18.2107 C.ar    1  UNL1        0.0985
     10 N          -3.9316  -18.3081   19.3383 N.ar    1  UNL1       -0.2471
     11 C          -3.4477  -18.2477   20.7569 C.ar    1  UNL1        0.0695
     12 C          -6.1937  -20.3194   21.2964 C.3     1  UNL1        0.0725
     13 C          -6.3953  -20.7609   19.8770 C.3     1  UNL1        0.0188
     14 C          -7.7804  -20.8449   19.3073 C.3     1  UNL1        0.0185
     15 C          -8.6064  -19.6019   19.1576 C.3     1  UNL1        0.0686
     16 N         -10.1027  -19.6827   19.2277 N.3     1  UNL1       -0.2985
     17 H         -10.4602  -19.2802   18.3614 H       1  UNL1        0.1232
     18 F         -12.7294  -17.9423   24.0144 F       1  UNL1       -0.2043
     19 C         -12.3087  -17.6783   22.5990 C.3     1  UNL1        0.2640
     20 F         -13.0146  -16.3908   22.9053 F       1  UNL1       -0.2043
     21 C         -12.1332  -16.9672   21.2900 C.3     1  UNL1        0.0679
     22 C         -11.3978  -17.6354   20.1662 C.3     1  UNL1        0.0213
     23 C         -10.8380  -19.0146   20.3515 C.3     1  UNL1        0.0543
     24 C         -11.0136  -19.7257   21.6605 C.3     1  UNL1        0.0213
     25 C         -11.7489  -19.0575   22.7843 C.3     1  UNL1        0.0679
     26 C          -6.8744  -17.8306   21.6000 C.3     1  UNL1        0.0886
     27 C          -7.3556  -17.2595   22.9010 C.3     1  UNL1        0.0748
     28 C          -6.3987  -16.5381   23.8030 C.3     1  UNL1        0.0432
     29 C          -6.8799  -15.9669   25.1040 C.ar    1  UNL1       -0.0234
     30 C          -5.9230  -15.2455   26.0060 C.ar    1  UNL1       -0.0045
     31 C          -6.4043  -14.6744   27.3069 C.ar    1  UNL1       -0.0003
     32 C          -7.8425  -14.8248   27.7056 C.ar    1  UNL1       -0.0003
     33 C          -8.7994  -15.5463   26.8035 C.ar    1  UNL1       -0.0032
     34 C          -8.3181  -16.1173   25.5027 C.ar    1  UNL1       -0.0103
     35 C          -9.2751  -16.8388   24.6006 C.3     1  UNL1        0.0953
     36 N          -8.7938  -17.4099   23.2997 N.3     1  UNL1       -0.2934
     37 H          -9.3504  -16.9755   22.5636 H       1  UNL1        0.1236
@<TRIPOS>BOND
     1    18    19    1
     2    19    20    1
     3    19    21    1
     4    21    22    1
     5    22    23    1
     6    23    16    1
     7    16    15    1
     8    15    14    1
     9    14    13    1
    10    13    12    1
    11    12     1    1
    12     1    26    1
    13    27    26    1
    14    27    28    1
    15    28    29    1
    16    29    30   ar
    17    30    31   ar
    18    31    32   ar
    19    32    33   ar
    20    33    34   ar
    21    34    35    1
    22    35    36    1
    23     2     1    1
    24     2     3    1
    25     3     4    1
    26     4     5    1
    27     5     6    1
    28     6     7   ar
    29     7     8   ar
    30     8     9   ar
    31     9    10   ar
    32    10    11   ar
    33    23    24    1
    34    24    25    1
    35    25    19    1
    36    36    27    1
    37    11     2    1
    38    34    29   ar
    39    11     6   ar
    40    16    17    1
    41    36    37    1
@<TRIPOS>MOLECULE
*****
 37 41 0 0 0
SMALL
GASTEIGER

@<TRIPOS>ATOM
      1 N           7.1159   -4.0356   23.0113 N.3     1  UNL1       -0.2679
      2 C           7.7525   -5.2422   23.6349 C.3     1  UNL1        0.0978
      3 C           8.5431   -6.1951   22.7882 C.3     1  UNL1        0.0224
      4 C           9.1798   -7.4016   23.4118 C.3     1  UNL1        0.0065
      5 C           9.0259   -7.6553   24.8821 C.3     1  UNL1        0.0277
      6 C           8.2354   -6.7024   25.7289 C.ar    1  UNL1       -0.0073
      7 C           8.0814   -6.9560   27.1993 C.ar    1  UNL1       -0.0015
      8 C           7.2909   -6.0031   28.0460 C.ar    1  UNL1        0.0203
      9 C           6.6542   -4.7966   27.4224 C.ar    1  UNL1        0.0985
     10 N           6.8081   -4.5429   25.9521 N.ar    1  UNL1       -0.2471
     11 C           7.5987   -5.4958   25.1053 C.ar    1  UNL1        0.0695
     12 C           7.9460   -2.8254   22.7012 C.3     1  UNL1        0.0725
     13 C           8.4568   -2.6030   21.3085 C.3     1  UNL1        0.0188
     14 C           7.4916   -2.3746   20.1832 C.3     1  UNL1        0.0185
     15 C           7.9889   -2.3133   18.7694 C.3     1  UNL1        0.0686
     16 N           7.0214   -2.1034   17.6425 N.3     1  UNL1       -0.2985
     17 H           7.5663   -1.7811   16.8427 H       1  UNL1        0.1232
     18 F           2.1050    0.7684   18.2927 F       1  UNL1       -0.2043
     19 C           3.5955    0.7742   18.1246 C.3     1  UNL1        0.2640
     20 F           3.3365    2.2496   18.2027 F       1  UNL1       -0.2043
     21 C           4.9961    1.2924   17.9836 C.3     1  UNL1        0.0679
     22 C           6.1381    0.3332   17.8229 C.3     1  UNL1        0.0213
     23 C           5.8795   -1.1442   17.8032 C.3     1  UNL1        0.0543
     24 C           4.4788   -1.6624   17.9442 C.3     1  UNL1        0.0213
     25 C           3.3369   -0.7032   18.1049 C.3     1  UNL1        0.0679
     26 C           5.6490   -4.0393   22.6978 C.3     1  UNL1        0.0886
     27 C           4.7865   -2.8912   23.1316 C.3     1  UNL1        0.0748
     28 C           3.9668   -2.1452   22.1209 C.3     1  UNL1        0.0432
     29 C           3.1043   -0.9972   22.5546 C.ar    1  UNL1       -0.0234
     30 C           2.2846   -0.2512   21.5439 C.ar    1  UNL1       -0.0045
     31 C           1.4221    0.8968   21.9777 C.ar    1  UNL1       -0.0003
     32 C           1.3793    1.2988   23.4222 C.ar    1  UNL1       -0.0003
     33 C           2.1990    0.5528   24.4329 C.ar    1  UNL1       -0.0032
     34 C           3.0615   -0.5952   23.9991 C.ar    1  UNL1       -0.0103
     35 C           3.8812   -1.3412   25.0099 C.3     1  UNL1        0.0953
     36 N           4.7437   -2.4892   24.5761 N.3     1  UNL1       -0.2934
     37 H           4.4313   -3.3067   25.1001 H       1  UNL1        0.1236
@<TRIPOS>BOND
     1    18    19    1
     2    19    20    1
     3    19    21    1
     4    21    22    1
     5    22    23    1
     6    23    16    1
     7    16    15    1
     8    15    14    1
     9    14    13    1
    10    13    12    1
    11    12     1    1
    12     1    26    1
    13    27    26    1
    14    27    28    1
    15    28    29    1
    16    29    30   ar
    17    30    31   ar
    18    31    32   ar
    19    32    33   ar
    20    33    34   ar
    21    34    35    1
    22    35    36    1
    23     2     1    1
    24     2     3    1
    25     3     4    1
    26     4     5    1
    27     5     6    1
    28     6     7   ar
    29     7     8   ar
    30     8     9   ar
    31     9    10   ar
    32    10    11   ar
    33    23    24    1
    34    24    25    1
    35    25    19    1
    36    36    27    1
    37    11     2    1
    38    34    29   ar
    39    11     6   ar
    40    16    17    1
    41    36    37    1
@<TRIPOS>MOLECULE
*****
 37 41 0 0 0
SMALL
GASTEIGER

@<TRIPOS>ATOM
      1 N           7.1813   -3.9845   23.5535 N.3     1  UNL1       -0.2679
      2 C           7.6882   -5.2269   24.2239 C.3     1  UNL1        0.0978
      3 C           8.3910   -6.2798   23.4193 C.3     1  UNL1        0.0224
      4 C           8.8979   -7.5223   24.0897 C.3     1  UNL1        0.0065
      5 C           8.7018   -7.7118   25.5647 C.3     1  UNL1        0.0277
      6 C           7.9989   -6.6590   26.3693 C.ar    1  UNL1       -0.0073
      7 C           7.8028   -6.8485   27.8443 C.ar    1  UNL1       -0.0015
      8 C           7.0999   -5.7956   28.6489 C.ar    1  UNL1        0.0203
      9 C           6.5931   -4.5532   27.9785 C.ar    1  UNL1        0.0985
     10 N           6.7892   -4.3636   26.5035 N.ar    1  UNL1       -0.2471
     11 C           7.4921   -5.4165   25.6989 C.ar    1  UNL1        0.0695
     12 C           8.0881   -2.8021   23.3813 C.3     1  UNL1        0.0725
     13 C           8.3415   -2.2443   22.0120 C.3     1  UNL1        0.0188
     14 C           7.6408   -0.9938   21.5701 C.3     1  UNL1        0.0185
     15 C           7.7878   -0.5111   20.1575 C.3     1  UNL1        0.0686
     16 N           6.6144   -0.5549   19.2240 N.3     1  UNL1       -0.2985
     17 H           6.0173    0.2364   19.4644 H       1  UNL1        0.1232
     18 F           4.0606   -5.6851   19.2135 F       1  UNL1       -0.2043
     19 C           3.9670   -4.1918   19.1067 C.3     1  UNL1        0.2640
     20 F           2.5215   -4.5559   18.9401 F       1  UNL1       -0.2043
     21 C           3.3715   -2.8251   18.9421 C.3     1  UNL1        0.0679
     22 C           4.2539   -1.6127   18.9812 C.3     1  UNL1        0.0213
     23 C           5.7320   -1.7672   19.1849 C.3     1  UNL1        0.0543
     24 C           6.3275   -3.1340   19.3496 C.3     1  UNL1        0.0213
     25 C           5.4451   -4.3463   19.3105 C.3     1  UNL1        0.0679
     26 C           5.7678   -3.9244   23.0553 C.3     1  UNL1        0.0886
     27 C           4.8710   -2.7984   23.4773 C.3     1  UNL1        0.0748
     28 C           4.0455   -2.0739   22.4557 C.3     1  UNL1        0.0432
     29 C           3.1487   -0.9479   22.8777 C.ar    1  UNL1       -0.0234
     30 C           2.3232   -0.2234   21.8562 C.ar    1  UNL1       -0.0045
     31 C           1.4265    0.9025   22.2782 C.ar    1  UNL1       -0.0003
     32 C           1.3553    1.3039   23.7218 C.ar    1  UNL1       -0.0003
     33 C           2.1807    0.5794   24.7433 C.ar    1  UNL1       -0.0032
     34 C           3.0775   -0.5465   24.3213 C.ar    1  UNL1       -0.0103
     35 C           3.9030   -1.2712   25.3428 C.3     1  UNL1        0.0953
     36 N           4.7998   -2.3971   24.9208 N.3     1  UNL1       -0.2934
     37 H           4.5016   -3.2220   25.4414 H       1  UNL1        0.1236
@<TRIPOS>BOND
     1    18    19    1
     2    19    20    1
     3    19    21    1
     4    21    22    1
     5    22    23    1
     6    23    16    1
     7    16    15    1
     8    15    14    1
     9    14    13    1
    10    13    12    1
    11    12     1    1
    12     1    26    1
    13    27    26    1
    14    27    28    1
    15    28    29    1
    16    29    30   ar
    17    30    31   ar
    18    31    32   ar
    19    32    33   ar
    20    33    34   ar
    21    34    35    1
    22    35    36    1
    23     2     1    1
    24     2     3    1
    25     3     4    1
    26     4     5    1
    27     5     6    1
    28     6     7   ar
    29     7     8   ar
    30     8     9   ar
    31     9    10   ar
    32    10    11   ar
    33    23    24    1
    34    24    25    1
    35    25    19    1
    36    36    27    1
    37    11     2    1
    38    34    29   ar
    39    11     6   ar
    40    16    17    1
    41    36    37    1
@<TRIPOS>MOLECULE
*****
 37 41 0 0 0
SMALL
GASTEIGER

@<TRIPOS>ATOM
      1 N           6.7391   -3.3511   22.1419 N.3     1  UNL1       -0.2679
      2 C           6.8872   -3.8297   23.5557 C.3     1  UNL1        0.0978
      3 C           6.3241   -3.0188   24.6850 C.3     1  UNL1        0.0224
      4 C           6.4722   -3.4974   26.0988 C.3     1  UNL1        0.0065
      5 C           7.1835   -4.7870   26.3834 C.3     1  UNL1        0.0277
      6 C           7.7466   -5.5979   25.2542 C.ar    1  UNL1       -0.0073
      7 C           8.4580   -6.8876   25.5387 C.ar    1  UNL1       -0.0015
      8 C           9.0211   -7.6985   24.4095 C.ar    1  UNL1        0.0203
      9 C           8.8729   -7.2199   22.9957 C.ar    1  UNL1        0.0985
     10 N           8.1617   -5.9303   22.7111 N.ar    1  UNL1       -0.2471
     11 C           7.5985   -5.1193   23.8403 C.ar    1  UNL1        0.0695
     12 C           7.7522   -2.4116   21.5581 C.3     1  UNL1        0.0725
     13 C           8.7601   -2.9161   20.5682 C.3     1  UNL1        0.0188
     14 C           8.6267   -2.5638   19.1163 C.3     1  UNL1        0.0185
     15 C           7.2856   -2.1967   18.5538 C.3     1  UNL1        0.0686
     16 N           7.0722   -0.8416   17.9469 N.3     1  UNL1       -0.2985
     17 H           7.9719   -0.3617   17.9742 H       1  UNL1        0.1232
     18 F           2.7946    2.7054   19.3477 F       1  UNL1       -0.2043
     19 C           4.0454    1.9709   19.7297 C.3     1  UNL1        0.2640
     20 F           3.7505    2.6727   21.0221 F       1  UNL1       -0.2043
     21 C           5.1938    1.4802   20.5606 C.3     1  UNL1        0.0679
     22 C           6.2028    0.5427   19.9663 C.3     1  UNL1        0.0213
     23 C           6.0633    0.0959   18.5412 C.3     1  UNL1        0.0543
     24 C           4.9148    0.5867   17.7103 C.3     1  UNL1        0.0213
     25 C           3.9059    1.5242   18.3046 C.3     1  UNL1        0.0679
     26 C           5.5778   -3.8119   21.3118 C.3     1  UNL1        0.0886
     27 C           4.4440   -2.8735   21.0218 C.3     1  UNL1        0.0748
     28 C           3.9916   -1.8979   22.0675 C.3     1  UNL1        0.0432
     29 C           2.8578   -0.9596   21.7774 C.ar    1  UNL1       -0.0234
     30 C           2.4055    0.0160   22.8231 C.ar    1  UNL1       -0.0045
     31 C           1.2717    0.9543   22.5330 C.ar    1  UNL1       -0.0003
     32 C           0.5903    0.9170   21.1972 C.ar    1  UNL1       -0.0003
     33 C           1.0427   -0.0586   20.1515 C.ar    1  UNL1       -0.0032
     34 C           2.1765   -0.9969   20.4416 C.ar    1  UNL1       -0.0103
     35 C           2.6289   -1.9726   19.3959 C.3     1  UNL1        0.0953
     36 N           3.7626   -2.9109   19.6860 N.3     1  UNL1       -0.2934
     37 H           4.4806   -2.7311   18.9841 H       1  UNL1        0.1236
@<TRIPOS>BOND
     1    18    19    1
     2    19    20    1
     3    19    21    1
     4    21    22    1
     5    22    23    1
     6    23    16    1
     7    16    15    1
     8    15    14    1
     9    14    13    1
    10    13    12    1
    11    12     1    1
    12     1    26    1
    13    27    26    1
    14    27    28    1
    15    28    29    1
    16    29    30   ar
    17    30    31   ar
    18    31    32   ar
    19    32    33   ar
    20    33    34   ar
    21    34    35    1
    22    35    36    1
    23     2     1    1
    24     2     3    1
    25     3     4    1
    26     4     5    1
    27     5     6    1
    28     6     7   ar
    29     7     8   ar
    30     8     9   ar
    31     9    10   ar
    32    10    11   ar
    33    23    24    1
    34    24    25    1
    35    25    19    1
    36    36    27    1
    37    11     2    1
    38    34    29   ar
    39    11     6   ar
    40    16    17    1
    41    36    37    1
@<TRIPOS>MOLECULE
*****
 37 41 0 0 0
SMALL
GASTEIGER

@<TRIPOS>ATOM
      1 N           7.1553   -4.0648   24.3289 N.3     1  UNL1       -0.2679
      2 C           7.3941   -5.1859   25.2965 C.3     1  UNL1        0.0978
      3 C           7.8559   -6.5225   24.7965 C.3     1  UNL1        0.0224
      4 C           8.0947   -7.6436   25.7640 C.3     1  UNL1        0.0065
      5 C           7.8716   -7.4281   27.2315 C.3     1  UNL1        0.0277
      6 C           7.4098   -6.0915   27.7316 C.ar    1  UNL1       -0.0073
      7 C           7.1867   -5.8759   29.1992 C.ar    1  UNL1       -0.0015
      8 C           6.7249   -4.5392   29.6992 C.ar    1  UNL1        0.0203
      9 C           6.4861   -3.4181   28.7317 C.ar    1  UNL1        0.0985
     10 N           6.7092   -3.6337   27.2641 N.ar    1  UNL1       -0.2471
     11 C           7.1710   -4.9704   26.7640 C.ar    1  UNL1        0.0695
     12 C           8.1995   -3.0054   24.1360 C.3     1  UNL1        0.0725
     13 C           9.2546   -3.1751   23.0833 C.3     1  UNL1        0.0188
     14 C           9.3482   -4.4603   22.3156 C.3     1  UNL1        0.0185
     15 C           8.8448   -4.5292   20.9043 C.3     1  UNL1        0.0686
     16 N           7.3989   -4.8263   20.6374 N.3     1  UNL1       -0.2985
     17 H           7.3749   -5.6112   19.9864 H       1  UNL1        0.1232
     18 F           3.3886   -1.4935   18.2604 F       1  UNL1       -0.2043
     19 C           4.7251   -1.6370   18.9259 C.3     1  UNL1        0.2640
     20 F           4.6962   -0.1519   18.7174 F       1  UNL1       -0.2043
     21 C           6.0516   -1.2649   19.5190 C.3     1  UNL1        0.0679
     22 C           6.9429   -2.3280   20.0896 C.3     1  UNL1        0.0213
     23 C           6.5077   -3.7633   20.0669 C.3     1  UNL1        0.0543
     24 C           5.1811   -4.1354   19.4737 C.3     1  UNL1        0.0213
     25 C           4.2899   -3.0723   18.9032 C.3     1  UNL1        0.0679
     26 C           5.8723   -4.0031   23.5543 C.3     1  UNL1        0.0886
     27 C           4.9323   -2.8507   23.7507 C.3     1  UNL1        0.0748
     28 C           4.1795   -2.2892   22.5812 C.3     1  UNL1        0.0432
     29 C           3.2395   -1.1368   22.7776 C.ar    1  UNL1       -0.0234
     30 C           2.4867   -0.5752   21.6080 C.ar    1  UNL1       -0.0045
     31 C           1.5468    0.5771   21.8045 C.ar    1  UNL1       -0.0003
     32 C           1.3596    1.1678   23.1705 C.ar    1  UNL1       -0.0003
     33 C           2.1124    0.6062   24.3401 C.ar    1  UNL1       -0.0032
     34 C           3.0523   -0.5461   24.1436 C.ar    1  UNL1       -0.0103
     35 C           3.8051   -1.1077   25.3132 C.3     1  UNL1        0.0953
     36 N           4.7451   -2.2600   25.1168 N.3     1  UNL1       -0.2934
     37 H           4.4175   -3.0136   25.7211 H       1  UNL1        0.1236
@<TRIPOS>BOND
     1    18    19    1
     2    19    20    1
     3    19    21    1
     4    21    22    1
     5    22    23    1
     6    23    16    1
     7    16    15    1
     8    15    14    1
     9    14    13    1
    10    13    12    1
    11    12     1    1
    12     1    26    1
    13    27    26    1
    14    27    28    1
    15    28    29    1
    16    29    30   ar
    17    30    31   ar
    18    31    32   ar
    19    32    33   ar
    20    33    34   ar
    21    34    35    1
    22    35    36    1
    23     2     1    1
    24     2     3    1
    25     3     4    1
    26     4     5    1
    27     5     6    1
    28     6     7   ar
    29     7     8   ar
    30     8     9   ar
    31     9    10   ar
    32    10    11   ar
    33    23    24    1
    34    24    25    1
    35    25    19    1
    36    36    27    1
    37    11     2    1
    38    34    29   ar
    39    11     6   ar
    40    16    17    1
    41    36    37    1
