@<TRIPOS>MOLECULE
*****
 19 21 0 0 0
SMALL
GASTEIGER

@<TRIPOS>ATOM
      1 C         -10.5224  -17.9385   21.5247 C.ar    1  UNL1        0.0136
      2 C         -10.1307  -17.1485   22.7382 C.ar    1  UNL1        0.0557
      3 CL        -11.1850  -16.4834   23.5727 Cl      1  UNL1       -0.0825
      4 C          -8.6848  -17.0235   23.1172 C.ar    1  UNL1        0.0108
      5 C          -7.6305  -17.6885   22.2828 C.ar    1  UNL1       -0.0033
      6 C          -8.0222  -18.4785   21.0693 C.ar    1  UNL1       -0.0195
      7 C          -9.4681  -18.6034   20.6903 C.ar    1  UNL1       -0.0265
      8 C          -9.5511  -19.4410   19.4486 C.3     1  UNL1        0.0266
      9 C          -8.1564  -19.8336   19.0603 C.3     1  UNL1        0.0165
     10 C          -7.2115  -19.2388   20.0620 C.3     1  UNL1        0.0789
     11 C          -5.7181  -19.3795   20.0571 C.ar    1  UNL1        0.1208
     12 N          -4.9333  -20.4715   20.7216 N.ar    1  UNL1       -0.2292
     13 C          -3.4775  -20.2198   20.4620 C.ar    1  UNL1        0.1186
     14 C          -3.3626  -18.9723   19.6370 C.ar    1  UNL1        0.0942
     15 N          -4.7474  -18.4530   19.3868 N.ar    1  UNL1       -0.3393
     16 H          -4.9786  -17.6458   18.8728 H       1  UNL1        0.1671
     17 C         -11.9684  -18.0634   21.1456 C.3     1  UNL1        0.1692
     18 C         -11.8524  -15.9498   19.6394 C.3     1  UNL1        0.1746
     19 O         -12.6563  -16.9382   20.4311 O.3     1  UNL1       -0.3463
@<TRIPOS>BOND
     1    18    19    1
     2    19    17    1
     3    17     1    1
     4     1     2   ar
     5     2     3    1
     6     2     4   ar
     7     4     5   ar
     8     5     6   ar
     9     6     7   ar
    10     7     8    1
    11     8     9    1
    12     9    10    1
    13    10    11    1
    14    11    12   ar
    15    12    13   ar
    16    13    14   ar
    17    14    15   ar
    18     7     1   ar
    19    15    11   ar
    20    10     6    1
    21    15    16    1
@<TRIPOS>MOLECULE
*****
 19 21 0 0 0
SMALL
GASTEIGER

@<TRIPOS>ATOM
      1 C          -5.0946  -17.7255   22.8588 C.ar    1  UNL1        0.0136
      2 C          -5.1690  -19.0207   22.1058 C.ar    1  UNL1        0.0557
      3 CL         -3.9098  -19.7506   21.7427 Cl      1  UNL1       -0.0825
      4 C          -6.5025  -19.5861   21.7161 C.ar    1  UNL1        0.0108
      5 C          -7.7617  -18.8564   22.0792 C.ar    1  UNL1       -0.0033
      6 C          -7.6874  -17.5612   22.8321 C.ar    1  UNL1       -0.0195
      7 C          -6.3538  -16.9957   23.2219 C.ar    1  UNL1       -0.0265
      8 C          -6.5923  -15.7091   23.9551 C.3     1  UNL1        0.0266
      9 C          -8.0732  -15.4793   24.0185 C.3     1  UNL1        0.0165
     10 C          -8.7500  -16.6240   23.3244 C.3     1  UNL1        0.0789
     11 C         -10.2297  -16.8004   23.1528 C.ar    1  UNL1        0.1208
     12 N         -11.0411  -17.9643   23.6396 N.ar    1  UNL1       -0.2292
     13 C         -12.4707  -17.7271   23.2519 C.ar    1  UNL1        0.1186
     14 C         -12.5427  -16.4167   22.5256 C.ar    1  UNL1        0.0942
     15 N         -11.1577  -15.8440   22.4644 N.ar    1  UNL1       -0.3393
     16 H         -10.9026  -14.9902   22.0459 H       1  UNL1        0.1671
     17 C          -3.7610  -17.1601   23.2485 C.3     1  UNL1        0.1692
     18 C          -1.9840  -16.4142   21.5062 C.3     1  UNL1        0.1746
     19 O          -3.1303  -16.0838   22.4156 O.3     1  UNL1       -0.3463
@<TRIPOS>BOND
     1    18    19    1
     2    19    17    1
     3    17     1    1
     4     1     2   ar
     5     2     3    1
     6     2     4   ar
     7     4     5   ar
     8     5     6   ar
     9     6     7   ar
    10     7     8    1
    11     8     9    1
    12     9    10    1
    13    10    11    1
    14    11    12   ar
    15    12    13   ar
    16    13    14   ar
    17    14    15   ar
    18     7     1   ar
    19    15    11   ar
    20    10     6    1
    21    15    16    1
@<TRIPOS>MOLECULE
*****
 19 21 0 0 0
SMALL
GASTEIGER

@<TRIPOS>ATOM
      1 C          -5.8903  -16.5164   23.9111 C.ar    1  UNL1        0.0136
      2 C          -6.2557  -15.5626   25.0097 C.ar    1  UNL1        0.0557
      3 CL         -5.1784  -14.8898   25.8079 Cl      1  UNL1       -0.0825
      4 C          -7.6981  -15.2817   25.3103 C.ar    1  UNL1        0.0108
      5 C          -8.7753  -15.9545   24.5122 C.ar    1  UNL1       -0.0033
      6 C          -8.4101  -16.9082   23.4136 C.ar    1  UNL1       -0.0195
      7 C          -6.9676  -17.1892   23.1130 C.ar    1  UNL1       -0.0265
      8 C          -6.9127  -18.1691   21.9786 C.3     1  UNL1        0.0266
      9 C          -8.3213  -18.4937   21.5782 C.3     1  UNL1        0.0165
     10 C          -9.2468  -17.7145   22.4650 C.3     1  UNL1        0.0789
     11 C         -10.7456  -17.7375   22.4124 C.ar    1  UNL1        0.1208
     12 N         -11.5863  -17.6272   21.1750 N.ar    1  UNL1       -0.2292
     13 C         -13.0273  -17.6965   21.5859 C.ar    1  UNL1        0.1186
     14 C         -13.0772  -17.8495   23.0772 C.ar    1  UNL1        0.0942
     15 N         -11.6671  -17.8749   23.5880 N.ar    1  UNL1       -0.3393
     16 H         -11.3942  -17.9658   24.5296 H       1  UNL1        0.1671
     17 C          -4.4478  -16.7973   23.6105 C.3     1  UNL1        0.1692
     18 C          -2.3910  -16.3987   22.0742 C.3     1  UNL1        0.1746
     19 O          -3.7039  -15.9362   22.6333 O.3     1  UNL1       -0.3463
@<TRIPOS>BOND
     1    18    19    1
     2    19    17    1
     3    17     1    1
     4     1     2   ar
     5     2     3    1
     6     2     4   ar
     7     4     5   ar
     8     5     6   ar
     9     6     7   ar
    10     7     8    1
    11     8     9    1
    12     9    10    1
    13    10    11    1
    14    11    12   ar
    15    12    13   ar
    16    13    14   ar
    17    14    15   ar
    18     7     1   ar
    19    15    11   ar
    20    10     6    1
    21    15    16    1
@<TRIPOS>MOLECULE
*****
 19 21 0 0 0
SMALL
GASTEIGER

@<TRIPOS>ATOM
      1 C          -3.6413  -19.1458   21.8257 C.ar    1  UNL1        0.0136
      2 C          -3.5840  -18.0386   22.8362 C.ar    1  UNL1        0.0557
      3 CL         -2.2633  -17.6057   23.4004 Cl      1  UNL1       -0.0825
      4 C          -4.8474  -17.3645   23.2824 C.ar    1  UNL1        0.0108
      5 C          -6.1681  -17.7974   22.7183 C.ar    1  UNL1       -0.0033
      6 C          -6.2254  -18.9045   21.7078 C.ar    1  UNL1       -0.0195
      7 C          -4.9620  -19.5787   21.2616 C.ar    1  UNL1       -0.0265
      8 C          -5.3282  -20.6327   20.2590 C.3     1  UNL1        0.0266
      9 C          -6.8179  -20.6098   20.0857 C.3     1  UNL1        0.0165
     10 C          -7.3725  -19.5418   20.9811 C.3     1  UNL1        0.0789
     11 C          -8.8199  -19.1754   21.1246 C.ar    1  UNL1        0.1208
     12 N          -9.6057  -18.3041   20.1900 N.ar    1  UNL1       -0.2292
     13 C         -11.0072  -18.2062   20.7157 C.ar    1  UNL1        0.1186
     14 C         -11.0876  -19.0169   21.9752 C.ar    1  UNL1        0.0942
     15 N          -9.7358  -19.6159   22.2279 N.ar    1  UNL1       -0.3393
     16 H          -9.4924  -20.1962   22.9850 H       1  UNL1        0.1671
     17 C          -2.3777  -19.8200   21.3795 C.3     1  UNL1        0.1692
     18 C          -1.8833  -18.3309   19.3088 C.3     1  UNL1        0.1746
     19 O          -1.3999  -19.0827   20.5134 O.3     1  UNL1       -0.3463
@<TRIPOS>BOND
     1    18    19    1
     2    19    17    1
     3    17     1    1
     4     1     2   ar
     5     2     3    1
     6     2     4   ar
     7     4     5   ar
     8     5     6   ar
     9     6     7   ar
    10     7     8    1
    11     8     9    1
    12     9    10    1
    13    10    11    1
    14    11    12   ar
    15    12    13   ar
    16    13    14   ar
    17    14    15   ar
    18     7     1   ar
    19    15    11   ar
    20    10     6    1
    21    15    16    1
@<TRIPOS>MOLECULE
*****
 19 21 0 0 0
SMALL
GASTEIGER

@<TRIPOS>ATOM
      1 C          -5.5093  -19.5151   21.0768 C.ar    1  UNL1        0.0136
      2 C          -5.1644  -18.6919   22.2825 C.ar    1  UNL1        0.0557
      3 CL         -3.7758  -18.7359   22.8484 Cl      1  UNL1       -0.0825
      4 C          -6.2078  -17.8249   22.9221 C.ar    1  UNL1        0.0108
      5 C          -7.5963  -17.7808   22.3562 C.ar    1  UNL1       -0.0033
      6 C          -7.9412  -18.6039   21.1506 C.ar    1  UNL1       -0.0195
      7 C          -6.8977  -19.4711   20.5109 C.ar    1  UNL1       -0.0265
      8 C          -7.5270  -20.1668   19.3405 C.3     1  UNL1        0.0266
      9 C          -8.9595  -19.7297   19.2569 C.3     1  UNL1        0.0165
     10 C          -9.2155  -18.7638   20.3756 C.3     1  UNL1        0.0789
     11 C         -10.5172  -18.0782   20.6679 C.ar    1  UNL1        0.1208
     12 N         -10.9139  -16.7065   20.2084 N.ar    1  UNL1       -0.2292
     13 C         -12.2926  -16.4245   20.7275 C.ar    1  UNL1        0.1186
     14 C         -12.7480  -17.6218   21.5080 C.ar    1  UNL1        0.0942
     15 N         -11.6507  -18.6438   21.4711 N.ar    1  UNL1       -0.3393
     16 H         -11.6710  -19.5302   21.8989 H       1  UNL1        0.1671
     17 C          -4.4657  -20.3822   20.4371 C.3     1  UNL1        0.1692
     18 C          -2.7669  -18.7103   19.4035 C.3     1  UNL1        0.1746
     19 O          -3.6953  -19.8787   19.2527 O.3     1  UNL1       -0.3463
@<TRIPOS>BOND
     1    18    19    1
     2    19    17    1
     3    17     1    1
     4     1     2   ar
     5     2     3    1
     6     2     4   ar
     7     4     5   ar
     8     5     6   ar
     9     6     7   ar
    10     7     8    1
    11     8     9    1
    12     9    10    1
    13    10    11    1
    14    11    12   ar
    15    12    13   ar
    16    13    14   ar
    17    14    15   ar
    18     7     1   ar
    19    15    11   ar
    20    10     6    1
    21    15    16    1
@<TRIPOS>MOLECULE
*****
 19 21 0 0 0
SMALL
GASTEIGER

@<TRIPOS>ATOM
      1 C          -8.8668  -17.1886   23.6234 C.ar    1  UNL1        0.0136
      2 C          -8.1731  -16.1095   24.4009 C.ar    1  UNL1        0.0557
      3 CL         -8.9595  -15.2266   25.3241 Cl      1  UNL1       -0.0825
      4 C          -6.6932  -15.9132   24.2552 C.ar    1  UNL1        0.0108
      5 C          -5.9069  -16.7961   23.3321 C.ar    1  UNL1       -0.0033
      6 C          -6.6005  -17.8752   22.5546 C.ar    1  UNL1       -0.0195
      7 C          -8.0804  -18.0714   22.7003 C.ar    1  UNL1       -0.0265
      8 C          -8.4869  -19.2094   21.8115 C.3     1  UNL1        0.0266
      9 C          -7.2581  -19.7164   21.1165 C.3     1  UNL1        0.0165
     10 C          -6.0922  -18.8918   21.5758 C.3     1  UNL1        0.0789
     11 C          -4.6682  -19.0552   21.1338 C.ar    1  UNL1        0.1208
     12 N          -3.5580  -19.6591   21.9417 N.ar    1  UNL1       -0.2292
     13 C          -2.3080  -19.6205   21.1134 C.ar    1  UNL1        0.1186
     14 C          -2.6456  -18.9928   19.7936 C.ar    1  UNL1        0.0942
     15 N          -4.1043  -18.6435   19.8062 N.ar    1  UNL1       -0.3393
     16 H          -4.6039  -18.2185   19.0720 H       1  UNL1        0.1671
     17 C         -10.3468  -17.3848   23.7692 C.3     1  UNL1        0.1692
     18 C         -11.1496  -16.2076   21.5968 C.3     1  UNL1        0.1746
     19 O         -11.2984  -16.4617   23.0676 O.3     1  UNL1       -0.3463
@<TRIPOS>BOND
     1    18    19    1
     2    19    17    1
     3    17     1    1
     4     1     2   ar
     5     2     3    1
     6     2     4   ar
     7     4     5   ar
     8     5     6   ar
     9     6     7   ar
    10     7     8    1
    11     8     9    1
    12     9    10    1
    13    10    11    1
    14    11    12   ar
    15    12    13   ar
    16    13    14   ar
    17    14    15   ar
    18     7     1   ar
    19    15    11   ar
    20    10     6    1
    21    15    16    1
@<TRIPOS>MOLECULE
*****
 19 21 0 0 0
SMALL
GASTEIGER

@<TRIPOS>ATOM
      1 C          -3.8876  -18.5982   22.1633 C.ar    1  UNL1        0.0136
      2 C          -3.4737  -19.6584   21.1861 C.ar    1  UNL1        0.0557
      3 CL         -2.0248  -20.0182   21.0390 Cl      1  UNL1       -0.0825
      4 C          -4.5083  -20.3587   20.3562 C.ar    1  UNL1        0.0108
      5 C          -5.9571  -19.9989   20.5033 C.ar    1  UNL1       -0.0033
      6 C          -6.3711  -18.9388   21.4804 C.ar    1  UNL1       -0.0195
      7 C          -5.3364  -18.2385   22.3104 C.ar    1  UNL1       -0.0265
      8 C          -6.0394  -17.2424   23.1842 C.3     1  UNL1        0.0266
      9 C          -7.5087  -17.3271   22.8943 C.3     1  UNL1        0.0165
     10 C          -7.7137  -18.3756   21.8413 C.3     1  UNL1        0.0789
     11 C          -9.0302  -18.7883   21.2525 C.ar    1  UNL1        0.1208
     12 N          -9.4710  -18.5662   19.8361 N.ar    1  UNL1       -0.2292
     13 C         -10.8502  -19.1362   19.6851 C.ar    1  UNL1        0.1186
     14 C         -11.2618  -19.7106   21.0082 C.ar    1  UNL1        0.0942
     15 N         -10.1370  -19.4956   21.9769 N.ar    1  UNL1       -0.3393
     16 H         -10.1269  -19.7704   22.9222 H       1  UNL1        0.1671
     17 C          -2.8528  -17.8979   22.9933 C.3     1  UNL1        0.1692
     18 C          -1.7073  -16.3916   21.2133 C.3     1  UNL1        0.1746
     19 O          -2.3310  -16.5577   22.5673 O.3     1  UNL1       -0.3463
@<TRIPOS>BOND
     1    18    19    1
     2    19    17    1
     3    17     1    1
     4     1     2   ar
     5     2     3    1
     6     2     4   ar
     7     4     5   ar
     8     5     6   ar
     9     6     7   ar
    10     7     8    1
    11     8     9    1
    12     9    10    1
    13    10    11    1
    14    11    12   ar
    15    12    13   ar
    16    13    14   ar
    17    14    15   ar
    18     7     1   ar
    19    15    11   ar
    20    10     6    1
    21    15    16    1
@<TRIPOS>MOLECULE
*****
 19 21 0 0 0
SMALL
GASTEIGER

@<TRIPOS>ATOM
      1 C          -9.9746  -18.2225   20.9898 C.ar    1  UNL1        0.0136
      2 C          -8.8014  -18.9720   20.4313 C.ar    1  UNL1        0.0557
      3 CL         -8.9722  -19.8347   19.2160 Cl      1  UNL1       -0.0825
      4 C          -7.4576  -18.8590   21.0879 C.ar    1  UNL1        0.0108
      5 C          -7.2868  -17.9965   22.3032 C.ar    1  UNL1       -0.0033
      6 C          -8.4599  -17.2469   22.8617 C.ar    1  UNL1       -0.0195
      7 C          -9.8038  -17.3599   22.2051 C.ar    1  UNL1       -0.0265
      8 C         -10.7695  -16.5096   22.9761 C.3     1  UNL1        0.0266
      9 C         -10.0224  -15.8711   24.1093 C.3     1  UNL1        0.0165
     10 C          -8.5950  -16.3268   24.0386 C.3     1  UNL1        0.0789
     11 C          -7.4958  -15.9316   24.9797 C.ar    1  UNL1        0.1208
     12 N          -6.0991  -15.5461   24.5917 N.ar    1  UNL1       -0.2292
     13 C          -5.3404  -15.2289   25.8461 C.ar    1  UNL1        0.1186
     14 C          -6.2681  -15.4183   27.0095 C.ar    1  UNL1        0.0942
     15 N          -7.6002  -15.8527   26.4739 N.ar    1  UNL1       -0.3393
     16 H          -8.4023  -16.0510   27.0092 H       1  UNL1        0.1671
     17 C         -11.3185  -18.3355   20.3331 C.3     1  UNL1        0.1692
     18 C         -11.6833  -15.8914   19.5314 C.3     1  UNL1        0.1746
     19 O         -11.7120  -17.3660   19.2583 O.3     1  UNL1       -0.3463
@<TRIPOS>BOND
     1    18    19    1
     2    19    17    1
     3    17     1    1
     4     1     2   ar
     5     2     3    1
     6     2     4   ar
     7     4     5   ar
     8     5     6   ar
     9     6     7   ar
    10     7     8    1
    11     8     9    1
    12     9    10    1
    13    10    11    1
    14    11    12   ar
    15    12    13   ar
    16    13    14   ar
    17    14    15   ar
    18     7     1   ar
    19    15    11   ar
    20    10     6    1
    21    15    16    1
@<TRIPOS>MOLECULE
*****
 19 21 0 0 0
SMALL
GASTEIGER

@<TRIPOS>ATOM
      1 C          -6.8779  -17.5627   22.9858 C.ar    1  UNL1        0.0136
      2 C          -6.8141  -16.2224   23.6564 C.ar    1  UNL1        0.0557
      3 CL         -5.5193  -15.4661   23.6994 Cl      1  UNL1       -0.0825
      4 C          -8.0450  -15.6383   24.2838 C.ar    1  UNL1        0.0108
      5 C          -9.3397  -16.3945   24.2407 C.ar    1  UNL1       -0.0033
      6 C          -9.4035  -17.7348   23.5702 C.ar    1  UNL1       -0.0195
      7 C          -8.1726  -18.3189   22.9428 C.ar    1  UNL1       -0.0265
      8 C          -8.5381  -19.6505   22.3571 C.3     1  UNL1        0.0266
      9 C          -9.9950  -19.8895   22.6226 C.3     1  UNL1        0.0165
     10 C         -10.5298  -18.7055   23.3723 C.3     1  UNL1        0.0789
     11 C         -11.9429  -18.5240   23.8417 C.ar    1  UNL1        0.1208
     12 N         -13.0755  -17.9639   23.0333 N.ar    1  UNL1       -0.2292
     13 C         -14.3040  -17.9646   23.8940 C.ar    1  UNL1        0.1186
     14 C         -13.9307  -18.5252   25.2343 C.ar    1  UNL1        0.0942
     15 N         -12.4715  -18.8709   25.2020 N.ar    1  UNL1       -0.3393
     16 H         -11.9519  -19.2577   25.9434 H       1  UNL1        0.1671
     17 C          -5.6469  -18.1467   22.3584 C.3     1  UNL1        0.1692
     18 C          -5.0659  -19.7279   20.3805 C.3     1  UNL1        0.1746
     19 O          -5.6170  -18.4273   20.8852 O.3     1  UNL1       -0.3463
@<TRIPOS>BOND
     1    18    19    1
     2    19    17    1
     3    17     1    1
     4     1     2   ar
     5     2     3    1
     6     2     4   ar
     7     4     5   ar
     8     5     6   ar
     9     6     7   ar
    10     7     8    1
    11     8     9    1
    12     9    10    1
    13    10    11    1
    14    11    12   ar
    15    12    13   ar
    16    13    14   ar
    17    14    15   ar
    18     7     1   ar
    19    15    11   ar
    20    10     6    1
    21    15    16    1
