@<TRIPOS>MOLECULE
*****
 22 25 0 0 0
SMALL
GASTEIGER

@<TRIPOS>ATOM
      1 O          -8.3928  -19.4342   20.5638 O.2     1  UNL1       -0.2448
      2 C          -8.8187  -18.1144   21.1352 C.2     1  UNL1        0.3428
      3 C         -10.2771  -17.8004   21.2921 C.2     1  UNL1        0.0958
      4 C         -11.1535  -17.1460   20.2657 C.2     1  UNL1        0.1049
      5 N         -12.5331  -17.0270   20.8423 N.2     1  UNL1       -0.2476
      6 C         -12.5093  -17.6078   22.2251 C.2     1  UNL1        0.0645
      7 C         -13.5771  -17.7631   23.2670 C.3     1  UNL1        0.0836
      8 C         -13.2506  -18.3965   24.5869 C.2     1  UNL1        0.0414
      9 CL        -14.3185  -18.5519   25.6289 Cl      1  UNL1       -0.0865
     10 C         -11.8563  -18.8746   24.8649 C.2     1  UNL1        0.0075
     11 C         -10.7885  -18.7192   23.8230 C.2     1  UNL1        0.0020
     12 C         -11.1150  -18.0858   22.5031 C.2     1  UNL1        0.0217
     13 O          -7.7861  -17.1083   21.5497 O.3     1  UNL1       -0.4454
     14 C          -8.1914  -15.8996   22.3400 C.3     1  UNL1        0.2087
     15 C          -7.7285  -15.7408   23.7579 C.3     1  UNL1        0.0445
     16 C          -6.2874  -15.4418   24.0474 C.3     1  UNL1        0.0210
     17 C          -5.8246  -15.2830   25.4653 C.3     1  UNL1        0.0722
     18 N          -6.8028  -15.4233   26.5939 N.3     1  UNL1       -0.2727
     19 C          -8.2439  -15.7224   26.3044 C.3     1  UNL1        0.0722
     20 C          -8.7068  -15.8811   24.8863 C.3     1  UNL1        0.0210
     21 C          -7.1033  -15.5188   25.8332 C.3     1  UNL1        0.0722
     22 C          -7.5220  -15.6624   24.5511 C.3     1  UNL1        0.0210
@<TRIPOS>BOND
     1     1     2    2
     2     2    13    1
     3    13    14    1
     4    14    15    1
     5    15    16    1
     6    16    17    1
     7    17    18    1
     8    18    19    1
     9    19    20    1
    10    18    21    1
    11    21    22    1
    12     2     3    1
    13     3     4    2
    14     4     5    1
    15     5     6    2
    16     6     7    1
    17     7     8    1
    18     8     9    1
    19     8    10    2
    20    10    11    1
    21    11    12    2
    22    20    15    1
    23    12     3    1
    24    22    15    1
    25    12     6    1
@<TRIPOS>MOLECULE
*****
 22 25 0 0 0
SMALL
GASTEIGER

@<TRIPOS>ATOM
      1 O          -8.9653  -19.0093   19.1298 O.2     1  UNL1       -0.2448
      2 C          -8.1677  -18.9315   20.3977 C.2     1  UNL1        0.3428
      3 C          -8.8253  -19.2138   21.7160 C.2     1  UNL1        0.0958
      4 C          -8.2261  -19.9885   22.8522 C.2     1  UNL1        0.1049
      5 N          -9.2280  -20.0244   23.9679 N.2     1  UNL1       -0.2476
      6 C         -10.4464  -19.2719   23.5213 C.2     1  UNL1        0.0645
      7 C         -11.7502  -18.9782   24.2022 C.3     1  UNL1        0.0836
      8 C         -12.8052  -18.1835   23.4913 C.2     1  UNL1        0.0414
      9 CL        -14.1091  -17.8897   24.1721 Cl      1  UNL1       -0.0865
     10 C         -12.5563  -17.6825   22.0995 C.2     1  UNL1        0.0075
     11 C         -11.2524  -17.9762   21.4186 C.2     1  UNL1        0.0020
     12 C         -10.1975  -18.7709   22.1296 C.2     1  UNL1        0.0217
     13 O          -6.7124  -18.5714   20.3473 O.3     1  UNL1       -0.4454
     14 C          -5.6772  -19.6490   20.2162 C.3     1  UNL1        0.2087
     15 C          -4.2233  -19.3154   20.3737 C.3     1  UNL1        0.0445
     16 C          -3.5315  -19.5744   21.6792 C.3     1  UNL1        0.0210
     17 C          -2.0776  -19.2408   21.8366 C.3     1  UNL1        0.0722
     18 N          -1.3154  -18.6481   20.6886 N.3     1  UNL1       -0.2727
     19 C          -2.0073  -18.3891   19.3831 C.3     1  UNL1        0.0722
     20 C          -3.4613  -18.7228   19.2257 C.3     1  UNL1        0.0210
     21 C          -2.1107  -18.8144   20.5547 C.3     1  UNL1        0.0722
     22 C          -3.4253  -19.1161   20.4123 C.3     1  UNL1        0.0210
@<TRIPOS>BOND
     1     1     2    2
     2     2    13    1
     3    13    14    1
     4    14    15    1
     5    15    16    1
     6    16    17    1
     7    17    18    1
     8    18    19    1
     9    19    20    1
    10    18    21    1
    11    21    22    1
    12     2     3    1
    13     3     4    2
    14     4     5    1
    15     5     6    2
    16     6     7    1
    17     7     8    1
    18     8     9    1
    19     8    10    2
    20    10    11    1
    21    11    12    2
    22    20    15    1
    23    12     3    1
    24    22    15    1
    25    12     6    1
@<TRIPOS>MOLECULE
*****
 22 25 0 0 0
SMALL
GASTEIGER

@<TRIPOS>ATOM
      1 O          -8.2049  -19.2812   19.4177 O.2     1  UNL1       -0.2448
      2 C          -8.7027  -18.8955   20.7790 C.2     1  UNL1        0.3428
      3 C         -10.1037  -18.3873   20.9491 C.2     1  UNL1        0.0958
      4 C         -10.9170  -17.6782   19.9071 C.2     1  UNL1        0.1049
      5 N         -12.2533  -17.3517   20.5051 N.2     1  UNL1       -0.2476
      6 C         -12.2659  -17.8589   21.9167 C.2     1  UNL1        0.0645
      7 C         -13.3155  -17.8206   22.9876 C.3     1  UNL1        0.0836
      8 C         -13.0365  -18.4224   24.3329 C.2     1  UNL1        0.0414
      9 CL        -14.0861  -18.3841   25.4039 Cl      1  UNL1       -0.0865
     10 C         -11.7080  -19.0624   24.6073 C.2     1  UNL1        0.0075
     11 C         -10.6584  -19.1007   23.5364 C.2     1  UNL1        0.0020
     12 C         -10.9374  -18.4989   22.1911 C.2     1  UNL1        0.0217
     13 O          -7.7995  -19.0180   21.9704 O.3     1  UNL1       -0.4454
     14 C          -6.7476  -20.0867   22.0073 C.3     1  UNL1        0.2087
     15 C          -5.3458  -19.7744   21.5744 C.3     1  UNL1        0.0445
     16 C          -4.3751  -19.1771   22.5495 C.3     1  UNL1        0.0210
     17 C          -2.9733  -18.8648   22.1165 C.3     1  UNL1        0.0722
     18 N          -2.5422  -19.1498   20.7083 N.3     1  UNL1       -0.2727
     19 C          -3.5129  -19.7471   19.7332 C.3     1  UNL1        0.0722
     20 C          -4.9148  -20.0594   20.1662 C.3     1  UNL1        0.0210
     21 C          -3.3207  -19.3380   20.8993 C.3     1  UNL1        0.0722
     22 C          -4.5883  -19.6204   21.2908 C.3     1  UNL1        0.0210
@<TRIPOS>BOND
     1     1     2    2
     2     2    13    1
     3    13    14    1
     4    14    15    1
     5    15    16    1
     6    16    17    1
     7    17    18    1
     8    18    19    1
     9    19    20    1
    10    18    21    1
    11    21    22    1
    12     2     3    1
    13     3     4    2
    14     4     5    1
    15     5     6    2
    16     6     7    1
    17     7     8    1
    18     8     9    1
    19     8    10    2
    20    10    11    1
    21    11    12    2
    22    20    15    1
    23    12     3    1
    24    22    15    1
    25    12     6    1
@<TRIPOS>MOLECULE
*****
 22 25 0 0 0
SMALL
GASTEIGER

@<TRIPOS>ATOM
      1 O          -9.2852  -19.9374   23.8441 O.2     1  UNL1       -0.2448
      2 C          -8.5952  -18.7652   23.2119 C.2     1  UNL1        0.3428
      3 C          -7.9070  -18.9242   21.8887 C.2     1  UNL1        0.0958
      4 C          -8.5800  -19.1276   20.5637 C.2     1  UNL1        0.1049
      5 N          -7.5138  -19.2368   19.5142 N.2     1  UNL1       -0.2476
      6 C          -6.1819  -19.1008   20.1906 C.2     1  UNL1        0.0645
      7 C          -4.7792  -19.1280   19.6599 C.3     1  UNL1        0.0836
      8 C          -3.6196  -18.9620   20.5967 C.2     1  UNL1        0.0414
      9 CL         -2.2168  -18.9891   20.0659 Cl      1  UNL1       -0.0865
     10 C          -3.8626  -18.7688   22.0642 C.2     1  UNL1        0.0075
     11 C          -5.2652  -18.7416   22.5949 C.2     1  UNL1        0.0020
     12 C          -6.4249  -18.9076   21.6582 C.2     1  UNL1        0.0217
     13 O          -8.5935  -17.4338   23.9031 O.3     1  UNL1       -0.4454
     14 C          -9.8100  -16.5581   23.8469 C.3     1  UNL1        0.2087
     15 C         -10.7628  -16.6711   22.6940 C.3     1  UNL1        0.0445
     16 C         -10.4637  -15.9698   21.4022 C.3     1  UNL1        0.0210
     17 C         -11.4165  -16.0829   20.2493 C.3     1  UNL1        0.0722
     18 N         -12.6686  -16.8972   20.3880 N.3     1  UNL1       -0.2727
     19 C         -12.9678  -17.5985   21.6798 C.3     1  UNL1        0.0722
     20 C         -12.0148  -17.4854   22.8328 C.3     1  UNL1        0.0210
     21 C         -12.1766  -16.8647   21.0475 C.3     1  UNL1        0.0722
     22 C         -11.3151  -16.7625   22.0901 C.3     1  UNL1        0.0210
@<TRIPOS>BOND
     1     1     2    2
     2     2    13    1
     3    13    14    1
     4    14    15    1
     5    15    16    1
     6    16    17    1
     7    17    18    1
     8    18    19    1
     9    19    20    1
    10    18    21    1
    11    21    22    1
    12     2     3    1
    13     3     4    2
    14     4     5    1
    15     5     6    2
    16     6     7    1
    17     7     8    1
    18     8     9    1
    19     8    10    2
    20    10    11    1
    21    11    12    2
    22    20    15    1
    23    12     3    1
    24    22    15    1
    25    12     6    1
@<TRIPOS>MOLECULE
*****
 22 25 0 0 0
SMALL
GASTEIGER

@<TRIPOS>ATOM
      1 O          -9.3202  -18.4504   23.9146 O.2     1  UNL1       -0.2448
      2 C          -8.7127  -17.7743   22.7214 C.2     1  UNL1        0.3428
      3 C          -7.9168  -18.5723   21.7316 C.2     1  UNL1        0.0958
      4 C          -8.4651  -19.2941   20.5365 C.2     1  UNL1        0.1049
      5 N          -7.3199  -19.9564   19.8294 N.2     1  UNL1       -0.2476
      6 C          -6.0639  -19.6439   20.5875 C.2     1  UNL1        0.0645
      7 C          -4.6319  -20.0277   20.3592 C.3     1  UNL1        0.0836
      8 C          -3.5689  -19.5561   21.3065 C.2     1  UNL1        0.0414
      9 CL         -2.1368  -19.9399   21.0782 Cl      1  UNL1       -0.0865
     10 C          -3.9378  -18.7006   22.4821 C.2     1  UNL1        0.0075
     11 C          -5.3697  -18.3168   22.7104 C.2     1  UNL1        0.0020
     12 C          -6.4327  -18.7884   21.7631 C.2     1  UNL1        0.0217
     13 O          -8.9012  -16.3001   22.5180 O.3     1  UNL1       -0.4454
     14 C          -7.8785  -15.3343   23.0389 C.3     1  UNL1        0.2087
     15 C          -7.4465  -15.4010   24.4737 C.3     1  UNL1        0.0445
     16 C          -8.4741  -15.4267   25.5661 C.3     1  UNL1        0.0210
     17 C          -8.0419  -15.4934   27.0009 C.3     1  UNL1        0.0722
     18 N          -6.5821  -15.5344   27.3434 N.3     1  UNL1       -0.2727
     19 C          -5.5544  -15.5086   26.2511 C.3     1  UNL1        0.0722
     20 C          -5.9866  -15.4419   24.8161 C.3     1  UNL1        0.0210
     21 C          -6.7706  -15.4981   26.5427 C.3     1  UNL1        0.0722
     22 C          -7.1613  -15.4378   25.2453 C.3     1  UNL1        0.0210
@<TRIPOS>BOND
     1     1     2    2
     2     2    13    1
     3    13    14    1
     4    14    15    1
     5    15    16    1
     6    16    17    1
     7    17    18    1
     8    18    19    1
     9    19    20    1
    10    18    21    1
    11    21    22    1
    12     2     3    1
    13     3     4    2
    14     4     5    1
    15     5     6    2
    16     6     7    1
    17     7     8    1
    18     8     9    1
    19     8    10    2
    20    10    11    1
    21    11    12    2
    22    20    15    1
    23    12     3    1
    24    22    15    1
    25    12     6    1
@<TRIPOS>MOLECULE
*****
 22 25 0 0 0
SMALL
GASTEIGER

@<TRIPOS>ATOM
      1 O          -6.3535  -17.9243   22.3174 O.2     1  UNL1       -0.2448
      2 C          -6.9679  -19.1521   21.7133 C.2     1  UNL1        0.3428
      3 C          -8.3853  -19.1181   21.2235 C.2     1  UNL1        0.0958
      4 C          -8.8436  -19.4239   19.8284 C.2     1  UNL1        0.1049
      5 N         -10.3347  -19.2672   19.7855 N.2     1  UNL1       -0.2476
      6 C         -10.7981  -18.8646   21.1542 C.2     1  UNL1        0.0645
      7 C         -12.1614  -18.5700   21.7061 C.3     1  UNL1        0.0836
      8 C         -12.3198  -18.1833   23.1466 C.2     1  UNL1        0.0414
      9 CL        -13.6832  -17.8886   23.6985 Cl      1  UNL1       -0.0865
     10 C         -11.1150  -18.0911   24.0354 C.2     1  UNL1        0.0075
     11 C          -9.7517  -18.3857   23.4835 C.2     1  UNL1        0.0020
     12 C          -9.5932  -18.7725   22.0430 C.2     1  UNL1        0.0217
     13 O          -6.1649  -20.4139   21.5990 O.3     1  UNL1       -0.4454
     14 C          -5.1355  -20.5524   20.5168 C.3     1  UNL1        0.2087
     15 C          -3.9461  -19.6388   20.4919 C.3     1  UNL1        0.0445
     16 C          -2.9924  -19.6174   21.6495 C.3     1  UNL1        0.0210
     17 C          -1.8030  -18.7038   21.6245 C.3     1  UNL1        0.0722
     18 N          -1.5672  -17.8116   20.4419 N.3     1  UNL1       -0.2727
     19 C          -2.5208  -17.8330   19.2843 C.3     1  UNL1        0.0722
     20 C          -3.7103  -18.7467   19.3093 C.3     1  UNL1        0.0210
     21 C          -2.2328  -18.2953   20.4102 C.3     1  UNL1        0.0722
     22 C          -3.3083  -19.1213   20.4327 C.3     1  UNL1        0.0210
@<TRIPOS>BOND
     1     1     2    2
     2     2    13    1
     3    13    14    1
     4    14    15    1
     5    15    16    1
     6    16    17    1
     7    17    18    1
     8    18    19    1
     9    19    20    1
    10    18    21    1
    11    21    22    1
    12     2     3    1
    13     3     4    2
    14     4     5    1
    15     5     6    2
    16     6     7    1
    17     7     8    1
    18     8     9    1
    19     8    10    2
    20    10    11    1
    21    11    12    2
    22    20    15    1
    23    12     3    1
    24    22    15    1
    25    12     6    1
@<TRIPOS>MOLECULE
*****
 22 25 0 0 0
SMALL
GASTEIGER

@<TRIPOS>ATOM
      1 O          -9.7362  -18.6247   19.4435 O.2     1  UNL1       -0.2448
      2 C          -8.7493  -18.8058   20.5583 C.2     1  UNL1        0.3428
      3 C          -9.2211  -18.8253   21.9821 C.2     1  UNL1        0.0958
      4 C         -10.1455  -19.8378   22.5907 C.2     1  UNL1        0.1049
      5 N         -10.3471  -19.4740   24.0319 N.2     1  UNL1       -0.2476
      6 C          -9.5473  -18.2368   24.3139 C.2     1  UNL1        0.0645
      7 C          -9.3628  -17.4235   25.5607 C.3     1  UNL1        0.0836
      8 C          -8.4824  -16.2092   25.5405 C.2     1  UNL1        0.0414
      9 CL         -8.2978  -15.3958   26.7873 Cl      1  UNL1       -0.0865
     10 C          -7.7865  -15.8083   24.2737 C.2     1  UNL1        0.0075
     11 C          -7.9710  -16.6216   23.0269 C.2     1  UNL1        0.0020
     12 C          -8.8514  -17.8359   23.0471 C.2     1  UNL1        0.0217
     13 O          -7.2902  -18.9673   20.2494 O.3     1  UNL1       -0.4454
     14 C          -6.4408  -19.8719   21.0922 C.3     1  UNL1        0.2087
     15 C          -5.0426  -19.4662   21.4531 C.3     1  UNL1        0.0445
     16 C          -4.8046  -18.5431   22.6112 C.3     1  UNL1        0.0210
     17 C          -3.4063  -18.1375   22.9719 C.3     1  UNL1        0.0722
     18 N          -2.2459  -18.6550   22.1747 N.3     1  UNL1       -0.2727
     19 C          -2.4838  -19.5782   21.0166 C.3     1  UNL1        0.0722
     20 C          -3.8822  -19.9838   20.6558 C.3     1  UNL1        0.0210
     21 C          -2.9941  -18.9052   21.9391 C.3     1  UNL1        0.0722
     22 C          -4.2585  -19.2720   21.6128 C.3     1  UNL1        0.0210
@<TRIPOS>BOND
     1     1     2    2
     2     2    13    1
     3    13    14    1
     4    14    15    1
     5    15    16    1
     6    16    17    1
     7    17    18    1
     8    18    19    1
     9    19    20    1
    10    18    21    1
    11    21    22    1
    12     2     3    1
    13     3     4    2
    14     4     5    1
    15     5     6    2
    16     6     7    1
    17     7     8    1
    18     8     9    1
    19     8    10    2
    20    10    11    1
    21    11    12    2
    22    20    15    1
    23    12     3    1
    24    22    15    1
    25    12     6    1
@<TRIPOS>MOLECULE
*****
 22 25 0 0 0
SMALL
GASTEIGER

@<TRIPOS>ATOM
      1 O         -12.3364  -16.5168   22.6673 O.2     1  UNL1       -0.2448
      2 C         -10.9709  -17.1306   22.7581 C.2     1  UNL1        0.3428
      3 C         -10.4302  -17.9305   21.6102 C.2     1  UNL1        0.0958
      4 C         -11.1874  -18.3264   20.3774 C.2     1  UNL1        0.1049
      5 N         -10.2625  -19.1155   19.4988 N.2     1  UNL1       -0.2476
      6 C          -8.9337  -19.2073   20.1886 C.2     1  UNL1        0.0645
      7 C          -7.6427  -19.8631   19.7971 C.3     1  UNL1        0.0836
      8 C          -6.4554  -19.7865   20.7105 C.2     1  UNL1        0.0414
      9 CL         -5.1644  -20.4423   20.3191 Cl      1  UNL1       -0.0865
     10 C          -6.5591  -19.0541   22.0155 C.2     1  UNL1        0.0075
     11 C          -7.8500  -18.3983   22.4070 C.2     1  UNL1        0.0020
     12 C          -9.0373  -18.4749   21.4936 C.2     1  UNL1        0.0217
     13 O         -10.1459  -16.9445   23.9971 O.3     1  UNL1       -0.4454
     14 C          -9.4872  -15.6244   24.2683 C.3     1  UNL1        0.2087
     15 C          -8.1807  -15.5753   25.0035 C.3     1  UNL1        0.0445
     16 C          -6.8983  -15.4078   24.2437 C.3     1  UNL1        0.0210
     17 C          -5.5918  -15.3586   24.9790 C.3     1  UNL1        0.0722
     18 N          -5.5676  -15.4770   26.4741 N.3     1  UNL1       -0.2727
     19 C          -6.8501  -15.6445   27.2340 C.3     1  UNL1        0.0722
     20 C          -8.1566  -15.6936   26.4986 C.3     1  UNL1        0.0210
     21 C          -6.3079  -15.5095   26.1150 C.3     1  UNL1        0.0722
     22 C          -7.4893  -15.5539   25.4502 C.3     1  UNL1        0.0210
@<TRIPOS>BOND
     1     1     2    2
     2     2    13    1
     3    13    14    1
     4    14    15    1
     5    15    16    1
     6    16    17    1
     7    17    18    1
     8    18    19    1
     9    19    20    1
    10    18    21    1
    11    21    22    1
    12     2     3    1
    13     3     4    2
    14     4     5    1
    15     5     6    2
    16     6     7    1
    17     7     8    1
    18     8     9    1
    19     8    10    2
    20    10    11    1
    21    11    12    2
    22    20    15    1
    23    12     3    1
    24    22    15    1
    25    12     6    1
@<TRIPOS>MOLECULE
*****
 22 25 0 0 0
SMALL
GASTEIGER

@<TRIPOS>ATOM
      1 O          -7.4648  -15.5616   24.9318 O.2     1  UNL1       -0.2448
      2 C          -7.2569  -16.2199   23.6001 C.2     1  UNL1        0.3428
      3 C          -8.4260  -16.7961   22.8576 C.2     1  UNL1        0.0958
      4 C          -9.8714  -16.4862   23.1117 C.2     1  UNL1        0.1049
      5 N         -10.6935  -17.2819   22.1417 N.2     1  UNL1       -0.2476
      6 C          -9.7562  -18.0837   21.2881 C.2     1  UNL1        0.0645
      7 C          -9.9977  -19.0483   20.1651 C.3     1  UNL1        0.0836
      8 C          -8.8378  -19.7126   19.4846 C.2     1  UNL1        0.0414
      9 CL         -9.0792  -20.6773   18.3616 Cl      1  UNL1       -0.0865
     10 C          -7.4363  -19.4123   19.9271 C.2     1  UNL1        0.0075
     11 C          -7.1948  -18.4477   21.0500 C.2     1  UNL1        0.0020
     12 C          -8.3547  -17.7834   21.7305 C.2     1  UNL1        0.0217
     13 O          -5.8799  -16.3019   23.0109 O.3     1  UNL1       -0.4454
     14 C          -4.8475  -17.1912   23.6381 C.3     1  UNL1        0.2087
     15 C          -3.7630  -17.7924   22.7940 C.3     1  UNL1        0.0445
     16 C          -3.8435  -19.2329   22.3836 C.3     1  UNL1        0.0210
     17 C          -2.7590  -19.8340   21.5396 C.3     1  UNL1        0.0722
     18 N          -1.5939  -18.9946   21.1059 N.3     1  UNL1       -0.2727
     19 C          -1.5134  -17.5541   21.5163 C.3     1  UNL1        0.0722
     20 C          -2.5980  -16.9530   22.3604 C.3     1  UNL1        0.0210
     21 C          -2.1640  -18.6211   21.5679 C.3     1  UNL1        0.0722
     22 C          -3.1446  -18.0774   22.3311 C.3     1  UNL1        0.0210
@<TRIPOS>BOND
     1     1     2    2
     2     2    13    1
     3    13    14    1
     4    14    15    1
     5    15    16    1
     6    16    17    1
     7    17    18    1
     8    18    19    1
     9    19    20    1
    10    18    21    1
    11    21    22    1
    12     2     3    1
    13     3     4    2
    14     4     5    1
    15     5     6    2
    16     6     7    1
    17     7     8    1
    18     8     9    1
    19     8    10    2
    20    10    11    1
    21    11    12    2
    22    20    15    1
    23    12     3    1
    24    22    15    1
    25    12     6    1
