@<TRIPOS>MOLECULE
*****
 40 46 0 0 0
SMALL
GASTEIGER

@<TRIPOS>ATOM
      1 C          -0.6749    3.3020   24.0755 C.ar    1  UNL1        0.0146
      2 C          -2.0392    3.8838   24.2995 C.ar    1  UNL1       -0.0011
      3 C          -2.7535    3.6431   25.5963 C.ar    1  UNL1        0.0014
      4 C          -2.1035    2.8206   26.6691 C.ar    1  UNL1        0.0206
      5 C          -0.7393    2.2388   26.4452 C.ar    1  UNL1        0.0989
      6 C          -0.0249    2.4795   25.1484 C.ar    1  UNL1        0.1511
      7 O           1.3394    1.8976   24.9244 O.3     1  UNL1       -0.4678
      8 C           1.9894    1.0751   25.9972 C.3     1  UNL1        0.2510
      9 C           1.2750    0.8344   27.2941 C.ar    1  UNL1        0.1087
     10 C           1.6613    0.0708   28.5260 C.ar    1  UNL1        0.1516
     11 N           0.5357    0.1807   29.5114 N.ar    1  UNL1       -0.2192
     12 C          -0.5462    1.0122   28.8884 C.ar    1  UNL1        0.1828
     13 N          -0.0893    1.4162   27.5180 N.ar    1  UNL1       -0.2851
     14 C           2.9473   -0.6722   28.7357 C.2     1  UNL1        0.2649
     15 O           3.4441   -1.6226   27.6869 O.2     1  UNL1       -0.2684
     16 N           3.7365   -0.4648   29.9944 N.am    1  UNL1       -0.2996
     17 H           3.4105    0.1589   30.6827 H       1  UNL1        0.1498
     18 C           5.0226   -1.2079   30.2041 C.3     1  UNL1        0.0897
     19 C           5.2477   -1.9738   31.4740 C.3     1  UNL1        0.0196
     20 C           6.0845   -2.9085   32.2963 C.3     1  UNL1        0.0017
     21 C           4.8010   -2.3657   32.8512 C.3     1  UNL1        0.0017
     22 C           0.0395    3.5427   22.7787 C.3     1  UNL1        0.0468
     23 C          -0.2154    2.6451   21.6042 C.3     1  UNL1        0.0770
     24 N           2.7148   -0.6149   20.5861 N.pl3   1  UNL1       -0.3046
     25 C           3.1956    0.6511   21.2309 C.3     1  UNL1        0.1081
     26 C           2.2189    1.7378   21.5703 C.3     1  UNL1        0.0938
     27 N           0.7613    1.5585   21.2648 N.3     1  UNL1       -0.2695
     28 C           0.2805    0.2923   20.6199 C.3     1  UNL1        0.0938
     29 C           1.2572   -0.7943   20.2806 C.3     1  UNL1        0.1081
     30 C           6.6893   -4.5134   24.6179 C.3     1  UNL1        0.0521
     31 C           5.9398   -3.8104   23.5251 C.ar    1  UNL1        0.0593
     32 C           4.9631   -2.7238   23.8644 C.ar    1  UNL1        0.0148
     33 C           4.2137   -2.0208   22.7717 C.ar    1  UNL1        0.0039
     34 C           4.4409   -2.4045   21.3395 C.ar    1  UNL1        0.0310
     35 C           3.6915   -1.7015   20.2467 C.ar    1  UNL1        0.0493
     36 C           3.9188   -2.0853   18.8145 C.ar    1  UNL1        0.0146
     37 C           4.8955   -3.1719   18.4752 C.ar    1  UNL1        0.0028
     38 C           5.6450   -3.8749   19.5679 C.ar    1  UNL1        0.0192
     39 C           5.4177   -3.4912   21.0001 C.ar    1  UNL1        0.0821
     40 N           6.1671   -4.1941   22.0929 N.ar    1  UNL1       -0.2496
@<TRIPOS>BOND
     1    30    31    1
     2    31    32   ar
     3    32    33   ar
     4    33    34   ar
     5    34    35   ar
     6    35    24    1
     7    24    25    1
     8    25    26    1
     9    26    27    1
    10    27    23    1
    11    23    22    1
    12    22     1    1
    13     1     2   ar
    14     2     3   ar
    15     3     4   ar
    16     4     5   ar
    17     5     6   ar
    18     6     7    1
    19     7     8    1
    20     8     9    1
    21     9    10   ar
    22    10    14    1
    23    14    15    2
    24    14    16   am
    25    16    18    1
    26    18    19    1
    27    19    20    1
    28    20    21    1
    29    10    11   ar
    30    11    12   ar
    31    12    13   ar
    32    27    28    1
    33    28    29    1
    34    35    36   ar
    35    36    37   ar
    36    37    38   ar
    37    38    39   ar
    38    39    40   ar
    39    40    31   ar
    40    39    34   ar
    41    29    24    1
    42     6     1   ar
    43    13     9   ar
    44    13     5    1
    45    21    19    1
    46    16    17    1
@<TRIPOS>MOLECULE
*****
 40 46 0 0 0
SMALL
GASTEIGER

@<TRIPOS>ATOM
      1 C           7.3953   -5.0248   29.5333 C.ar    1  UNL1        0.0146
      2 C           8.1756   -6.1427   30.1589 C.ar    1  UNL1       -0.0011
      3 C           8.8661   -7.1526   29.2910 C.ar    1  UNL1        0.0014
      4 C           8.7763   -7.0446   27.7976 C.ar    1  UNL1        0.0206
      5 C           7.9960   -5.9266   27.1721 C.ar    1  UNL1        0.0989
      6 C           7.3055   -4.9167   28.0399 C.ar    1  UNL1        0.1511
      7 O           6.5251   -3.7987   27.4144 O.3     1  UNL1       -0.4678
      8 C           6.4354   -3.6907   25.9210 C.3     1  UNL1        0.2510
      9 C           7.1259   -4.7007   25.0531 C.ar    1  UNL1        0.1087
     10 C           7.2146   -4.8504   23.5633 C.ar    1  UNL1        0.1516
     11 N           8.0498   -6.0609   23.2680 N.ar    1  UNL1       -0.2192
     12 C           8.4772   -6.6593   24.5754 C.ar    1  UNL1        0.1828
     13 N           7.9062   -5.8186   25.6786 N.ar    1  UNL1       -0.2851
     14 C           6.5796   -3.9481   22.5471 C.2     1  UNL1        0.2649
     15 O           7.4355   -3.2075   21.5628 O.2     1  UNL1       -0.2684
     16 N           5.0887   -3.7863   22.5153 N.am    1  UNL1       -0.2996
     17 H           4.5269   -4.2724   23.1614 H       1  UNL1        0.1498
     18 C           4.4537   -2.8840   21.4991 C.3     1  UNL1        0.0897
     19 C           4.2015   -3.3825   20.1070 C.3     1  UNL1        0.0196
     20 C           3.3658   -4.1673   19.1398 C.3     1  UNL1        0.0017
     21 C           4.6003   -3.4610   18.6632 C.3     1  UNL1        0.0017
     22 C           6.7047   -4.0148   30.4012 C.3     1  UNL1        0.0468
     23 C           7.4373   -3.3870   31.5498 C.3     1  UNL1        0.0770
     24 N           5.2601   -0.6489   34.3804 N.pl3   1  UNL1       -0.3046
     25 C           4.5688   -1.8601   33.8281 C.3     1  UNL1        0.1081
     26 C           5.2946   -2.7728   32.8845 C.3     1  UNL1        0.0938
     27 N           6.7116   -2.4743   32.4933 N.3     1  UNL1       -0.2695
     28 C           7.4028   -1.2631   33.0457 C.3     1  UNL1        0.0938
     29 C           6.6771   -0.3504   33.9893 C.3     1  UNL1        0.1081
     30 C           0.7606    4.4077   33.1823 C.3     1  UNL1        0.0521
     31 C           1.7040    3.3717   33.7177 C.ar    1  UNL1        0.0593
     32 C           2.4298    2.4590   32.7742 C.ar    1  UNL1        0.0148
     33 C           3.3732    1.4231   33.3096 C.ar    1  UNL1        0.0039
     34 C           3.5909    1.2997   34.7885 C.ar    1  UNL1        0.0310
     35 C           4.5343    0.2637   35.3240 C.ar    1  UNL1        0.0493
     36 C           4.7520    0.1404   36.8030 C.ar    1  UNL1        0.0146
     37 C           4.0262    1.0531   37.7465 C.ar    1  UNL1        0.0028
     38 C           3.0828    2.0891   37.2111 C.ar    1  UNL1        0.0192
     39 C           2.8651    2.2124   35.7322 C.ar    1  UNL1        0.0821
     40 N           1.9217    3.2484   35.1967 N.ar    1  UNL1       -0.2496
@<TRIPOS>BOND
     1    30    31    1
     2    31    32   ar
     3    32    33   ar
     4    33    34   ar
     5    34    35   ar
     6    35    24    1
     7    24    25    1
     8    25    26    1
     9    26    27    1
    10    27    23    1
    11    23    22    1
    12    22     1    1
    13     1     2   ar
    14     2     3   ar
    15     3     4   ar
    16     4     5   ar
    17     5     6   ar
    18     6     7    1
    19     7     8    1
    20     8     9    1
    21     9    10   ar
    22    10    14    1
    23    14    15    2
    24    14    16   am
    25    16    18    1
    26    18    19    1
    27    19    20    1
    28    20    21    1
    29    10    11   ar
    30    11    12   ar
    31    12    13   ar
    32    27    28    1
    33    28    29    1
    34    35    36   ar
    35    36    37   ar
    36    37    38   ar
    37    38    39   ar
    38    39    40   ar
    39    40    31   ar
    40    39    34   ar
    41    29    24    1
    42     6     1   ar
    43    13     9   ar
    44    13     5    1
    45    21    19    1
    46    16    17    1
@<TRIPOS>MOLECULE
*****
 40 46 0 0 0
SMALL
GASTEIGER

@<TRIPOS>ATOM
      1 C           1.5298    0.7559   22.5988 C.ar    1  UNL1        0.0146
      2 C           0.6816    0.9752   21.3814 C.ar    1  UNL1       -0.0011
      3 C           0.8687    0.1092   20.1710 C.ar    1  UNL1        0.0014
      4 C           1.9041   -0.9761   20.1781 C.ar    1  UNL1        0.0206
      5 C           2.7523   -1.1954   21.3956 C.ar    1  UNL1        0.0989
      6 C           2.5652   -0.3295   22.6059 C.ar    1  UNL1        0.1511
      7 O           3.4135   -0.5488   23.8235 O.3     1  UNL1       -0.4678
      8 C           4.4489   -1.6341   23.8306 C.3     1  UNL1        0.2510
      9 C           4.6360   -2.5001   22.6201 C.ar    1  UNL1        0.1087
     10 C           5.5694   -3.6393   22.3357 C.ar    1  UNL1        0.1516
     11 N           5.2980   -4.1240   20.9424 N.ar    1  UNL1       -0.2192
     12 C           4.1969   -3.2844   20.3657 C.ar    1  UNL1        0.1828
     13 N           3.7877   -2.2807   21.4027 N.ar    1  UNL1       -0.2851
     14 C           6.5943   -4.1960   23.2790 C.2     1  UNL1        0.2649
     15 O           7.9708   -4.5247   22.7820 O.2     1  UNL1       -0.2684
     16 N           6.2425   -4.4240   24.7192 N.am    1  UNL1       -0.2996
     17 H           5.3390   -4.2083   25.0454 H       1  UNL1        0.1498
     18 C           7.2673   -4.9808   25.6624 C.3     1  UNL1        0.0897
     19 C           7.6543   -6.4277   25.5807 C.3     1  UNL1        0.0196
     20 C           7.5209   -7.8379   26.0739 C.3     1  UNL1        0.0017
     21 C           8.4581   -7.5235   24.9457 C.3     1  UNL1        0.0017
     22 C           1.3427    1.6218   23.8093 C.3     1  UNL1        0.0468
     23 C           0.3005    1.2702   24.8292 C.3     1  UNL1        0.0770
     24 N           1.0566    2.0808   29.1905 N.pl3   1  UNL1       -0.3046
     25 C           1.9890    2.6316   28.1527 C.3     1  UNL1        0.1081
     26 C           1.7370    2.3614   26.6989 C.3     1  UNL1        0.0938
     27 N           0.5526    1.5404   26.2829 N.3     1  UNL1       -0.2695
     28 C          -0.3799    0.9896   27.3208 C.3     1  UNL1        0.0938
     29 C          -0.1279    1.2598   28.7746 C.3     1  UNL1        0.1081
     30 C           4.6803   -1.4309   33.8581 C.3     1  UNL1        0.0521
     31 C           3.8374   -0.4854   33.0547 C.ar    1  UNL1        0.0593
     32 C           3.5854   -0.7556   31.6009 C.ar    1  UNL1        0.0148
     33 C           2.7424    0.1899   30.7975 C.ar    1  UNL1        0.0039
     34 C           2.1515    1.4055   31.4477 C.ar    1  UNL1        0.0310
     35 C           1.3086    2.3510   30.6443 C.ar    1  UNL1        0.0493
     36 C           0.7176    3.5667   31.2946 C.ar    1  UNL1        0.0146
     37 C           0.9697    3.8369   32.7484 C.ar    1  UNL1        0.0028
     38 C           1.8126    2.8915   33.5518 C.ar    1  UNL1        0.0192
     39 C           2.4035    1.6758   32.9016 C.ar    1  UNL1        0.0821
     40 N           3.2464    0.7303   33.7050 N.ar    1  UNL1       -0.2496
@<TRIPOS>BOND
     1    30    31    1
     2    31    32   ar
     3    32    33   ar
     4    33    34   ar
     5    34    35   ar
     6    35    24    1
     7    24    25    1
     8    25    26    1
     9    26    27    1
    10    27    23    1
    11    23    22    1
    12    22     1    1
    13     1     2   ar
    14     2     3   ar
    15     3     4   ar
    16     4     5   ar
    17     5     6   ar
    18     6     7    1
    19     7     8    1
    20     8     9    1
    21     9    10   ar
    22    10    14    1
    23    14    15    2
    24    14    16   am
    25    16    18    1
    26    18    19    1
    27    19    20    1
    28    20    21    1
    29    10    11   ar
    30    11    12   ar
    31    12    13   ar
    32    27    28    1
    33    28    29    1
    34    35    36   ar
    35    36    37   ar
    36    37    38   ar
    37    38    39   ar
    38    39    40   ar
    39    40    31   ar
    40    39    34   ar
    41    29    24    1
    42     6     1   ar
    43    13     9   ar
    44    13     5    1
    45    21    19    1
    46    16    17    1
@<TRIPOS>MOLECULE
*****
 40 46 0 0 0
SMALL
GASTEIGER

@<TRIPOS>ATOM
      1 C           6.2177   -2.1231   30.5863 C.ar    1  UNL1        0.0146
      2 C           6.4872   -3.1557   31.6403 C.ar    1  UNL1       -0.0011
      3 C           6.8154   -4.5645   31.2435 C.ar    1  UNL1        0.0014
      4 C           6.8739   -4.9408   29.7927 C.ar    1  UNL1        0.0206
      5 C           6.6044   -3.9082   28.7386 C.ar    1  UNL1        0.0989
      6 C           6.2763   -2.4994   29.1354 C.ar    1  UNL1        0.1511
      7 O           6.0067   -1.4667   28.0813 O.3     1  UNL1       -0.4678
      8 C           6.0653   -1.8430   26.6305 C.3     1  UNL1        0.2510
      9 C           6.3934   -3.2519   26.2337 C.ar    1  UNL1        0.1087
     10 C           6.5225   -3.9129   24.8934 C.ar    1  UNL1        0.1516
     11 N           6.8718   -5.3541   25.1192 N.ar    1  UNL1       -0.2192
     12 C           6.9586   -5.5837   26.5989 C.ar    1  UNL1        0.1828
     13 N           6.6630   -4.2845   27.2877 N.ar    1  UNL1       -0.2851
     14 C           6.3351   -3.2493   23.5613 C.2     1  UNL1        0.2649
     15 O           7.0251   -1.9505   23.2667 O.2     1  UNL1       -0.2684
     16 N           5.4576   -3.8847   22.5238 N.am    1  UNL1       -0.2996
     17 H           5.0047   -4.7372   22.7171 H       1  UNL1        0.1498
     18 C           5.2703   -3.2211   21.1917 C.3     1  UNL1        0.0897
     19 C           4.5912   -3.9580   20.0755 C.3     1  UNL1        0.0196
     20 C           3.3544   -4.2627   19.2834 C.3     1  UNL1        0.0017
     21 C           4.6518   -4.9298   18.9345 C.3     1  UNL1        0.0017
     22 C           5.8896   -0.7142   30.9830 C.3     1  UNL1        0.0468
     23 C           4.4581   -0.2891   31.1252 C.3     1  UNL1        0.0770
     24 N           2.1355    1.0394   27.5072 N.pl3   1  UNL1       -0.3046
     25 C           1.6494   -0.1191   28.3266 C.3     1  UNL1        0.1081
     26 C           2.4236   -0.5620   29.5326 C.3     1  UNL1        0.0938
     27 N           3.6839    0.1537   29.9192 N.3     1  UNL1       -0.2695
     28 C           4.1700    1.3123   29.0998 C.3     1  UNL1        0.0938
     29 C           3.3958    1.7551   27.8938 C.3     1  UNL1        0.1081
     30 C           2.7457   -0.6915   20.8829 C.3     1  UNL1        0.0521
     31 C           2.3996   -0.1481   22.2374 C.ar    1  UNL1        0.0593
     32 C           3.1738   -0.5909   23.4434 C.ar    1  UNL1        0.0148
     33 C           2.8277   -0.0475   24.7980 C.ar    1  UNL1        0.0039
     34 C           1.7074    0.9388   24.9466 C.ar    1  UNL1        0.0310
     35 C           1.3613    1.4823   26.3012 C.ar    1  UNL1        0.0493
     36 C           0.2409    2.4686   26.4497 C.ar    1  UNL1        0.0146
     37 C          -0.5333    2.9114   25.2437 C.ar    1  UNL1        0.0028
     38 C          -0.1872    2.3680   23.8892 C.ar    1  UNL1        0.0192
     39 C           0.9331    1.3817   23.7406 C.ar    1  UNL1        0.0821
     40 N           1.2792    0.8383   22.3860 N.ar    1  UNL1       -0.2496
@<TRIPOS>BOND
     1    30    31    1
     2    31    32   ar
     3    32    33   ar
     4    33    34   ar
     5    34    35   ar
     6    35    24    1
     7    24    25    1
     8    25    26    1
     9    26    27    1
    10    27    23    1
    11    23    22    1
    12    22     1    1
    13     1     2   ar
    14     2     3   ar
    15     3     4   ar
    16     4     5   ar
    17     5     6   ar
    18     6     7    1
    19     7     8    1
    20     8     9    1
    21     9    10   ar
    22    10    14    1
    23    14    15    2
    24    14    16   am
    25    16    18    1
    26    18    19    1
    27    19    20    1
    28    20    21    1
    29    10    11   ar
    30    11    12   ar
    31    12    13   ar
    32    27    28    1
    33    28    29    1
    34    35    36   ar
    35    36    37   ar
    36    37    38   ar
    37    38    39   ar
    38    39    40   ar
    39    40    31   ar
    40    39    34   ar
    41    29    24    1
    42     6     1   ar
    43    13     9   ar
    44    13     5    1
    45    21    19    1
    46    16    17    1
@<TRIPOS>MOLECULE
*****
 40 46 0 0 0
SMALL
GASTEIGER

@<TRIPOS>ATOM
      1 C           8.2784   -6.7206   25.6404 C.ar    1  UNL1        0.0146
      2 C           9.0268   -8.0204   25.6619 C.ar    1  UNL1       -0.0011
      3 C           9.3883   -8.6561   26.9716 C.ar    1  UNL1        0.0014
      4 C           9.0015   -7.9919   28.2597 C.ar    1  UNL1        0.0206
      5 C           8.2532   -6.6921   28.2382 C.ar    1  UNL1        0.0989
      6 C           7.8917   -6.0565   26.9286 C.ar    1  UNL1        0.1511
      7 O           7.1433   -4.7566   26.9070 O.3     1  UNL1       -0.4678
      8 C           6.7565   -4.0925   28.1951 C.3     1  UNL1        0.2510
      9 C           7.1181   -4.7282   29.5048 C.ar    1  UNL1        0.1087
     10 C           6.8730   -4.3108   30.9246 C.ar    1  UNL1        0.1516
     11 N           7.4699   -5.3527   31.8236 N.ar    1  UNL1       -0.2192
     12 C           8.0838   -6.4140   30.9594 C.ar    1  UNL1        0.1828
     13 N           7.8664   -6.0280   29.5263 N.ar    1  UNL1       -0.2851
     14 C           6.1568   -3.0695   31.3676 C.2     1  UNL1        0.2649
     15 O           6.4368   -1.7603   30.6913 O.2     1  UNL1       -0.2684
     16 N           5.1605   -3.1376   32.4869 N.am    1  UNL1       -0.2996
     17 H           4.9768   -3.9969   32.9308 H       1  UNL1        0.1498
     18 C           4.4443   -1.8963   32.9299 C.3     1  UNL1        0.0897
     19 C           4.9498   -1.1192   34.1092 C.3     1  UNL1        0.0196
     20 C           4.7027   -0.4645   35.4360 C.3     1  UNL1        0.0017
     21 C           6.0722   -0.4280   34.8249 C.3     1  UNL1        0.0017
     22 C           7.9168   -6.0849   24.3307 C.3     1  UNL1        0.0468
     23 C           8.6056   -4.8266   23.8924 C.3     1  UNL1        0.0770
     24 N           6.7928   -2.2799   20.6553 N.pl3   1  UNL1       -0.3046
     25 C           7.2837   -1.6450   21.9225 C.3     1  UNL1        0.1081
     26 C           7.8880   -2.4939   23.0016 C.3     1  UNL1        0.0938
     27 N           8.0013   -3.9777   22.8134 N.3     1  UNL1       -0.2695
     28 C           7.5104   -4.6126   21.5461 C.3     1  UNL1        0.0938
     29 C           6.9062   -3.7638   20.4671 C.3     1  UNL1        0.1081
     30 C           0.4615    0.3111   19.9836 C.3     1  UNL1        0.0521
     31 C           1.8933   -0.1244   19.8818 C.ar    1  UNL1        0.0593
     32 C           2.4975   -0.9733   20.9607 C.ar    1  UNL1        0.0148
     33 C           3.9293   -1.4089   20.8589 C.ar    1  UNL1        0.0039
     34 C           4.7568   -0.9955   19.6782 C.ar    1  UNL1        0.0310
     35 C           6.1886   -1.4311   19.5764 C.ar    1  UNL1        0.0493
     36 C           7.0161   -1.0177   18.3955 C.ar    1  UNL1        0.0146
     37 C           6.4119   -0.1688   17.3165 C.ar    1  UNL1        0.0028
     38 C           4.9801    0.2668   17.4183 C.ar    1  UNL1        0.0192
     39 C           4.1526   -0.1466   18.5991 C.ar    1  UNL1        0.0821
     40 N           2.7208    0.2889   18.7009 N.ar    1  UNL1       -0.2496
@<TRIPOS>BOND
     1    30    31    1
     2    31    32   ar
     3    32    33   ar
     4    33    34   ar
     5    34    35   ar
     6    35    24    1
     7    24    25    1
     8    25    26    1
     9    26    27    1
    10    27    23    1
    11    23    22    1
    12    22     1    1
    13     1     2   ar
    14     2     3   ar
    15     3     4   ar
    16     4     5   ar
    17     5     6   ar
    18     6     7    1
    19     7     8    1
    20     8     9    1
    21     9    10   ar
    22    10    14    1
    23    14    15    2
    24    14    16   am
    25    16    18    1
    26    18    19    1
    27    19    20    1
    28    20    21    1
    29    10    11   ar
    30    11    12   ar
    31    12    13   ar
    32    27    28    1
    33    28    29    1
    34    35    36   ar
    35    36    37   ar
    36    37    38   ar
    37    38    39   ar
    38    39    40   ar
    39    40    31   ar
    40    39    34   ar
    41    29    24    1
    42     6     1   ar
    43    13     9   ar
    44    13     5    1
    45    21    19    1
    46    16    17    1
@<TRIPOS>MOLECULE
*****
 40 46 0 0 0
SMALL
GASTEIGER

@<TRIPOS>ATOM
      1 C           7.0661   -2.5176   29.3403 C.ar    1  UNL1        0.0146
      2 C           7.8055   -2.4828   30.6449 C.ar    1  UNL1       -0.0011
      3 C           7.1879   -1.8184   31.8395 C.ar    1  UNL1        0.0014
      4 C           5.8309   -1.1887   31.7294 C.ar    1  UNL1        0.0206
      5 C           5.0915   -1.2235   30.4248 C.ar    1  UNL1        0.0989
      6 C           5.7091   -1.8879   29.2303 C.ar    1  UNL1        0.1511
      7 O           4.9697   -1.9227   27.9256 O.3     1  UNL1       -0.4678
      8 C           3.6127   -1.2930   27.8156 C.3     1  UNL1        0.2510
      9 C           2.9951   -0.6286   29.0102 C.ar    1  UNL1        0.1087
     10 C           1.6825    0.0713   29.2026 C.ar    1  UNL1        0.1516
     11 N           1.6106    0.5386   30.6261 N.ar    1  UNL1       -0.2192
     12 C           2.8788    0.1276   31.3135 C.ar    1  UNL1        0.1828
     13 N           3.7346   -0.5938   30.3148 N.ar    1  UNL1       -0.2851
     14 C           0.6270    0.2691   28.1553 C.2     1  UNL1        0.2649
     15 O          -0.7736   -0.2074   28.4026 O.2     1  UNL1       -0.2684
     16 N           0.9722    0.9435   26.8606 N.am    1  UNL1       -0.2996
     17 H           1.8914    1.2563   26.6983 H       1  UNL1        0.1498
     18 C          -0.0833    1.1413   25.8133 C.3     1  UNL1        0.0897
     19 C          -1.0365    2.2948   25.9176 C.3     1  UNL1        0.0196
     20 C          -1.7571    3.3133   26.7503 C.3     1  UNL1        0.0017
     21 C          -1.9668    3.2742   25.2656 C.3     1  UNL1        0.0017
     22 C           7.6836   -3.1821   28.1456 C.3     1  UNL1        0.0468
     23 C           8.1557   -2.3541   26.9874 C.3     1  UNL1        0.0770
     24 N           6.1327   -2.7237   22.9848 N.pl3   1  UNL1       -0.3046
     25 C           6.0255   -3.8364   23.9849 C.3     1  UNL1        0.1081
     26 C           6.6998   -3.7132   25.3191 C.3     1  UNL1        0.0938
     27 N           7.4814   -2.4773   25.6532 N.3     1  UNL1       -0.2695
     28 C           7.5886   -1.3645   24.6530 C.3     1  UNL1        0.0938
     29 C           6.9143   -1.4877   23.3188 C.3     1  UNL1        0.1081
     30 C           0.4518    0.2608   20.5211 C.3     1  UNL1        0.0521
     31 C           1.7034   -0.5161   20.8035 C.ar    1  UNL1        0.0593
     32 C           2.3777   -0.3929   22.1377 C.ar    1  UNL1        0.0148
     33 C           3.6294   -1.1698   22.4200 C.ar    1  UNL1        0.0039
     34 C           4.2068   -2.0699   21.3682 C.ar    1  UNL1        0.0310
     35 C           5.4584   -2.8469   21.6506 C.ar    1  UNL1        0.0493
     36 C           6.0358   -3.7470   20.5987 C.ar    1  UNL1        0.0146
     37 C           5.3615   -3.8702   19.2645 C.ar    1  UNL1        0.0028
     38 C           4.1098   -3.0933   18.9821 C.ar    1  UNL1        0.0192
     39 C           3.5325   -2.1932   20.0339 C.ar    1  UNL1        0.0821
     40 N           2.2808   -1.4163   19.7516 N.ar    1  UNL1       -0.2496
@<TRIPOS>BOND
     1    30    31    1
     2    31    32   ar
     3    32    33   ar
     4    33    34   ar
     5    34    35   ar
     6    35    24    1
     7    24    25    1
     8    25    26    1
     9    26    27    1
    10    27    23    1
    11    23    22    1
    12    22     1    1
    13     1     2   ar
    14     2     3   ar
    15     3     4   ar
    16     4     5   ar
    17     5     6   ar
    18     6     7    1
    19     7     8    1
    20     8     9    1
    21     9    10   ar
    22    10    14    1
    23    14    15    2
    24    14    16   am
    25    16    18    1
    26    18    19    1
    27    19    20    1
    28    20    21    1
    29    10    11   ar
    30    11    12   ar
    31    12    13   ar
    32    27    28    1
    33    28    29    1
    34    35    36   ar
    35    36    37   ar
    36    37    38   ar
    37    38    39   ar
    38    39    40   ar
    39    40    31   ar
    40    39    34   ar
    41    29    24    1
    42     6     1   ar
    43    13     9   ar
    44    13     5    1
    45    21    19    1
    46    16    17    1
@<TRIPOS>MOLECULE
*****
 40 46 0 0 0
SMALL
GASTEIGER

@<TRIPOS>ATOM
      1 C           4.7084   -2.7001   20.8477 C.ar    1  UNL1        0.0146
      2 C           5.8900   -3.5452   20.4740 C.ar    1  UNL1       -0.0011
      3 C           6.8802   -3.9558   21.5233 C.ar    1  UNL1        0.0014
      4 C           6.6888   -3.5212   22.9461 C.ar    1  UNL1        0.0206
      5 C           5.5072   -2.6761   23.3197 C.ar    1  UNL1        0.0989
      6 C           4.5170   -2.2655   22.2705 C.ar    1  UNL1        0.1511
      7 O           3.3354   -1.4204   22.6441 O.3     1  UNL1       -0.4678
      8 C           3.1440   -0.9858   24.0670 C.3     1  UNL1        0.2510
      9 C           4.1343   -1.3964   25.1162 C.ar    1  UNL1        0.1087
     10 C           4.2078   -1.1220   26.5891 C.ar    1  UNL1        0.1516
     11 N           5.4349   -1.7975   27.1257 N.ar    1  UNL1       -0.2192
     12 C           6.1197   -2.4894   25.9845 C.ar    1  UNL1        0.1828
     13 N           5.3159   -2.2415   24.7426 N.ar    1  UNL1       -0.2851
     14 C           3.2266   -0.3139   27.3854 C.2     1  UNL1        0.2649
     15 O           3.0268    1.1402   27.0765 O.2     1  UNL1       -0.2684
     16 N           2.4450   -0.9601   28.4907 N.am    1  UNL1       -0.2996
     17 H           2.5761   -1.9146   28.6935 H       1  UNL1        0.1498
     18 C           1.4638   -0.1521   29.2871 C.3     1  UNL1        0.0897
     19 C           0.0713    0.0583   28.7706 C.3     1  UNL1        0.0196
     20 C          -1.4034   -0.1977   28.8696 C.3     1  UNL1        0.0017
     21 C          -0.8658    0.6785   27.7771 C.3     1  UNL1        0.0017
     22 C           3.7181   -2.2896   19.7984 C.3     1  UNL1        0.0468
     23 C           3.7248   -0.8861   19.2691 C.3     1  UNL1        0.0770
     24 N           0.3994    1.9444   20.3552 N.pl3   1  UNL1       -0.3046
     25 C           0.1746    0.4628   20.4207 C.3     1  UNL1        0.1081
     26 C           1.2831   -0.4808   20.0587 C.3     1  UNL1        0.0938
     27 N           2.6163    0.0574   19.6311 N.3     1  UNL1       -0.2695
     28 C           2.8411    1.5390   19.5656 C.3     1  UNL1        0.0938
     29 C           1.7326    2.4825   19.9276 C.3     1  UNL1        0.1081
     30 C          -1.9793    3.9523   26.4838 C.3     1  UNL1        0.0521
     31 C          -1.6617    3.6862   25.0422 C.ar    1  UNL1        0.0593
     32 C          -0.5533    2.7427   24.6801 C.ar    1  UNL1        0.0148
     33 C          -0.2357    2.4766   23.2385 C.ar    1  UNL1        0.0039
     34 C          -1.0267    3.1539   22.1589 C.ar    1  UNL1        0.0310
     35 C          -0.7091    2.8878   20.7172 C.ar    1  UNL1        0.0493
     36 C          -1.5001    3.5652   19.6376 C.ar    1  UNL1        0.0146
     37 C          -2.6086    4.5086   19.9996 C.ar    1  UNL1        0.0028
     38 C          -2.9262    4.7748   21.4413 C.ar    1  UNL1        0.0192
     39 C          -2.1352    4.0974   22.5209 C.ar    1  UNL1        0.0821
     40 N          -2.4528    4.3636   23.9625 N.ar    1  UNL1       -0.2496
@<TRIPOS>BOND
     1    30    31    1
     2    31    32   ar
     3    32    33   ar
     4    33    34   ar
     5    34    35   ar
     6    35    24    1
     7    24    25    1
     8    25    26    1
     9    26    27    1
    10    27    23    1
    11    23    22    1
    12    22     1    1
    13     1     2   ar
    14     2     3   ar
    15     3     4   ar
    16     4     5   ar
    17     5     6   ar
    18     6     7    1
    19     7     8    1
    20     8     9    1
    21     9    10   ar
    22    10    14    1
    23    14    15    2
    24    14    16   am
    25    16    18    1
    26    18    19    1
    27    19    20    1
    28    20    21    1
    29    10    11   ar
    30    11    12   ar
    31    12    13   ar
    32    27    28    1
    33    28    29    1
    34    35    36   ar
    35    36    37   ar
    36    37    38   ar
    37    38    39   ar
    38    39    40   ar
    39    40    31   ar
    40    39    34   ar
    41    29    24    1
    42     6     1   ar
    43    13     9   ar
    44    13     5    1
    45    21    19    1
    46    16    17    1
@<TRIPOS>MOLECULE
*****
 40 46 0 0 0
SMALL
GASTEIGER

@<TRIPOS>ATOM
      1 C           8.4238   -3.1213   28.7333 C.ar    1  UNL1        0.0146
      2 C           9.2100   -4.2149   29.3936 C.ar    1  UNL1       -0.0011
      3 C           8.8278   -4.6912   30.7636 C.ar    1  UNL1        0.0014
      4 C           7.6593   -4.0740   31.4733 C.ar    1  UNL1        0.0206
      5 C           6.8731   -2.9805   30.8131 C.ar    1  UNL1        0.0989
      6 C           7.2553   -2.5041   29.4431 C.ar    1  UNL1        0.1511
      7 O           6.4691   -1.4105   28.7827 O.3     1  UNL1       -0.4678
      8 C           5.3006   -0.7934   29.4925 C.3     1  UNL1        0.2510
      9 C           4.9184   -1.2698   30.8625 C.ar    1  UNL1        0.1087
     10 C           3.8239   -0.8545   31.8004 C.ar    1  UNL1        0.1516
     11 N           3.9337   -1.6914   33.0404 N.ar    1  UNL1       -0.2192
     12 C           5.0960   -2.6239   32.8688 C.ar    1  UNL1        0.1828
     13 N           5.7046   -2.3633   31.5228 N.ar    1  UNL1       -0.2851
     14 C           2.7995    0.2106   31.5435 C.2     1  UNL1        0.2649
     15 O           2.6665    1.3672   32.4894 O.2     1  UNL1       -0.2684
     16 N           1.9080    0.1192   30.3406 N.am    1  UNL1       -0.2996
     17 H           1.9953   -0.6398   29.7197 H       1  UNL1        0.1498
     18 C           0.8836    1.1844   30.0836 C.3     1  UNL1        0.0897
     19 C          -0.2995    0.8918   29.2091 C.3     1  UNL1        0.0196
     20 C          -1.0910    1.1573   27.9630 C.3     1  UNL1        0.0017
     21 C          -1.5570    0.1196   28.9406 C.3     1  UNL1        0.0017
     22 C           8.8061   -2.6449   27.3633 C.3     1  UNL1        0.0468
     23 C           8.9582   -3.6297   26.2421 C.3     1  UNL1        0.0770
     24 N           6.3854   -3.2711   22.5676 N.pl3   1  UNL1       -0.3046
     25 C           6.0482   -4.2817   23.6235 C.3     1  UNL1        0.1081
     26 C           6.9058   -4.4012   24.8484 C.3     1  UNL1        0.0938
     27 N           8.1006   -3.5102   25.0173 N.3     1  UNL1       -0.2695
     28 C           8.4378   -2.4996   23.9613 C.3     1  UNL1        0.0938
     29 C           7.5802   -2.3800   22.7365 C.3     1  UNL1        0.1081
     30 C           0.8172    0.5647   21.3298 C.3     1  UNL1        0.0521
     31 C           1.9948   -0.3644   21.3330 C.ar    1  UNL1        0.0593
     32 C           2.8524   -0.4839   22.5578 C.ar    1  UNL1        0.0148
     33 C           4.0301   -1.4130   22.5611 C.ar    1  UNL1        0.0039
     34 C           4.3501   -2.2225   21.3396 C.ar    1  UNL1        0.0310
     35 C           5.5278   -3.1515   21.3428 C.ar    1  UNL1        0.0493
     36 C           5.8478   -3.9611   20.1212 C.ar    1  UNL1        0.0146
     37 C           4.9902   -3.8415   18.8964 C.ar    1  UNL1        0.0028
     38 C           3.8126   -2.9125   18.8931 C.ar    1  UNL1        0.0192
     39 C           3.4925   -2.1030   20.1147 C.ar    1  UNL1        0.0821
     40 N           2.3149   -1.1739   20.1114 N.ar    1  UNL1       -0.2496
@<TRIPOS>BOND
     1    30    31    1
     2    31    32   ar
     3    32    33   ar
     4    33    34   ar
     5    34    35   ar
     6    35    24    1
     7    24    25    1
     8    25    26    1
     9    26    27    1
    10    27    23    1
    11    23    22    1
    12    22     1    1
    13     1     2   ar
    14     2     3   ar
    15     3     4   ar
    16     4     5   ar
    17     5     6   ar
    18     6     7    1
    19     7     8    1
    20     8     9    1
    21     9    10   ar
    22    10    14    1
    23    14    15    2
    24    14    16   am
    25    16    18    1
    26    18    19    1
    27    19    20    1
    28    20    21    1
    29    10    11   ar
    30    11    12   ar
    31    12    13   ar
    32    27    28    1
    33    28    29    1
    34    35    36   ar
    35    36    37   ar
    36    37    38   ar
    37    38    39   ar
    38    39    40   ar
    39    40    31   ar
    40    39    34   ar
    41    29    24    1
    42     6     1   ar
    43    13     9   ar
    44    13     5    1
    45    21    19    1
    46    16    17    1
@<TRIPOS>MOLECULE
*****
 40 46 0 0 0
SMALL
GASTEIGER

@<TRIPOS>ATOM
      1 C           1.1233    1.8568   27.3766 C.ar    1  UNL1        0.0146
      2 C           0.4639    3.1989   27.4949 C.ar    1  UNL1       -0.0011
      3 C           0.4330    3.9053   28.8177 C.ar    1  UNL1        0.0014
      4 C           1.0614    3.2696   30.0223 C.ar    1  UNL1        0.0206
      5 C           1.7208    1.9275   29.9040 C.ar    1  UNL1        0.0989
      6 C           1.7517    1.2211   28.5811 C.ar    1  UNL1        0.1511
      7 O           2.4111   -0.1210   28.4627 O.3     1  UNL1       -0.4678
      8 C           3.0396   -0.7567   29.6673 C.3     1  UNL1        0.2510
      9 C           3.0086   -0.0502   30.9902 C.ar    1  UNL1        0.1087
     10 C           3.5405   -0.4262   32.3414 C.ar    1  UNL1        0.1516
     11 N           3.2098    0.6836   33.2949 N.ar    1  UNL1       -0.2192
     12 C           2.4736    1.7454   32.5329 C.ar    1  UNL1        0.1828
     13 N           2.3493    1.2918   31.1085 N.ar    1  UNL1       -0.2851
     14 C           4.2742   -1.6900   32.6798 C.2     1  UNL1        0.2649
     15 O           3.7667   -2.5820   33.7737 O.2     1  UNL1       -0.2684
     16 N           5.5156   -2.0617   31.9242 N.am    1  UNL1       -0.2996
     17 H           5.8487   -1.4762   31.2062 H       1  UNL1        0.1498
     18 C           6.2493   -3.3255   32.2625 C.3     1  UNL1        0.0897
     19 C           6.6784   -4.2591   31.1697 C.3     1  UNL1        0.0196
     20 C           7.0383   -5.6401   30.7078 C.3     1  UNL1        0.0017
     21 C           7.0617   -4.4953   29.7389 C.3     1  UNL1        0.0017
     22 C           1.1542    1.1504   26.0536 C.3     1  UNL1        0.0468
     23 C           1.7320    1.8356   24.8509 C.3     1  UNL1        0.0770
     24 N           3.5381   -0.5993   21.5253 N.pl3   1  UNL1       -0.3046
     25 C           4.2760   -0.4354   22.8209 C.3     1  UNL1        0.1081
     26 C           3.6740    0.3762   23.9295 C.3     1  UNL1        0.0938
     27 N           2.3341    1.0240   23.7424 N.3     1  UNL1       -0.2695
     28 C           1.5962    0.8601   22.4467 C.3     1  UNL1        0.0938
     29 C           2.1982    0.0485   21.3382 C.3     1  UNL1        0.1081
     30 C           7.2382    1.3023   16.0532 C.3     1  UNL1        0.0521
     31 C           6.4637    0.6240   17.1441 C.ar    1  UNL1        0.0593
     32 C           5.8616    1.4356   18.2526 C.ar    1  UNL1        0.0148
     33 C           5.0871    0.7573   19.3435 C.ar    1  UNL1        0.0039
     34 C           4.9146   -0.7326   19.3259 C.ar    1  UNL1        0.0310
     35 C           4.1401   -1.4109   20.4168 C.ar    1  UNL1        0.0493
     36 C           3.9677   -2.9009   20.3991 C.ar    1  UNL1        0.0146
     37 C           4.5697   -3.7125   19.2907 C.ar    1  UNL1        0.0028
     38 C           5.3442   -3.0342   18.1998 C.ar    1  UNL1        0.0192
     39 C           5.5167   -1.5443   18.2174 C.ar    1  UNL1        0.0821
     40 N           6.2912   -0.8660   17.1265 N.ar    1  UNL1       -0.2496
@<TRIPOS>BOND
     1    30    31    1
     2    31    32   ar
     3    32    33   ar
     4    33    34   ar
     5    34    35   ar
     6    35    24    1
     7    24    25    1
     8    25    26    1
     9    26    27    1
    10    27    23    1
    11    23    22    1
    12    22     1    1
    13     1     2   ar
    14     2     3   ar
    15     3     4   ar
    16     4     5   ar
    17     5     6   ar
    18     6     7    1
    19     7     8    1
    20     8     9    1
    21     9    10   ar
    22    10    14    1
    23    14    15    2
    24    14    16   am
    25    16    18    1
    26    18    19    1
    27    19    20    1
    28    20    21    1
    29    10    11   ar
    30    11    12   ar
    31    12    13   ar
    32    27    28    1
    33    28    29    1
    34    35    36   ar
    35    36    37   ar
    36    37    38   ar
    37    38    39   ar
    38    39    40   ar
    39    40    31   ar
    40    39    34   ar
    41    29    24    1
    42     6     1   ar
    43    13     9   ar
    44    13     5    1
    45    21    19    1
    46    16    17    1
