@<TRIPOS>MOLECULE
*****
 32 34 0 0 0
SMALL
GASTEIGER

@<TRIPOS>ATOM
      1 C         -11.0181  -18.3166   19.6198 C.3     1  UNL1        0.1168
      2 N         -10.0932  -18.1972   20.7946 N.am    1  UNL1       -0.2590
      3 C          -8.8074  -18.9694   20.8184 C.2     1  UNL1        0.3046
      4 O          -8.4465  -19.8609   19.6673 O.2     1  UNL1       -0.2526
      5 N          -7.8825  -18.8501   21.9933 N.am    1  UNL1       -0.2807
      6 H          -8.1194  -18.2649   22.7488 H       1  UNL1        0.1514
      7 C          -6.5968  -19.6222   22.0170 C.3     1  UNL1        0.1772
      8 C          -5.3675  -19.0521   21.3736 C.2     1  UNL1        0.2462
      9 O          -5.3873  -18.6742   19.9221 O.2     1  UNL1       -0.2729
     10 N          -4.1185  -18.8598   22.1816 N.am    1  UNL1       -0.2825
     11 H          -4.1055  -19.1078   23.1343 H       1  UNL1        0.1549
     12 C          -2.8892  -18.2897   21.5382 C.ar    1  UNL1        0.0503
     13 C          -2.0699  -19.1335   20.6073 C.ar    1  UNL1        0.0147
     14 C          -0.8407  -18.5633   19.9640 C.ar    1  UNL1        0.0013
     15 C          -0.4308  -17.1493   20.2515 C.ar    1  UNL1        0.0001
     16 C          -1.2502  -16.3055   21.1825 C.ar    1  UNL1        0.0013
     17 C          -2.4794  -16.8757   21.8258 C.ar    1  UNL1        0.0147
     18 C         -10.4541  -17.3057   21.9458 C.3     1  UNL1        0.1153
     19 C         -11.4803  -17.7500   22.9455 C.ar    1  UNL1       -0.0029
     20 C         -11.0780  -18.6272   24.0939 C.ar    1  UNL1       -0.0026
     21 C         -12.1042  -19.0715   25.0936 C.ar    1  UNL1       -0.0003
     22 C         -13.5327  -18.6387   24.9449 C.ar    1  UNL1       -0.0000
     23 C         -13.9350  -17.7615   23.7965 C.ar    1  UNL1       -0.0003
     24 C         -12.9087  -17.3172   22.7968 C.ar    1  UNL1       -0.0026
     25 C          -9.7887  -15.9699   22.0971 C.3     1  UNL1        0.0968
     26 N          -8.7537  -15.7641   23.1631 N.3     1  UNL1       -0.2689
     27 C          -8.9755  -15.8827   24.6420 C.3     1  UNL1        0.0748
     28 C          -7.6740  -15.5954   25.3303 C.3     1  UNL1        0.0480
     29 C          -6.6480  -15.2992   24.2770 C.3     1  UNL1        0.1278
     30 O          -5.2076  -14.9586   24.5203 O.3     1  UNL1       -0.3830
     31 C          -7.3153  -15.4035   22.9376 C.3     1  UNL1        0.1017
     32 H          -5.0324  -14.9575   25.4743 H       1  UNL1        0.2104
@<TRIPOS>BOND
     1     1     2    1
     2     2     3   am
     3     3     4    2
     4     3     5   am
     5     5     7    1
     6     7     8    1
     7     8     9    2
     8     8    10   am
     9    10    12    1
    10    12    13   ar
    11    13    14   ar
    12    14    15   ar
    13    15    16   ar
    14    16    17   ar
    15     2    18    1
    16    18    25    1
    17    25    26    1
    18    26    27    1
    19    27    28    1
    20    28    29    1
    21    29    30    1
    22    29    31    1
    23    18    19    1
    24    19    20   ar
    25    20    21   ar
    26    21    22   ar
    27    22    23   ar
    28    23    24   ar
    29    17    12   ar
    30    31    26    1
    31    24    19   ar
    32     5     6    1
    33    10    11    1
    34    30    32    1
@<TRIPOS>MOLECULE
*****
 32 34 0 0 0
SMALL
GASTEIGER

@<TRIPOS>ATOM
      1 C          -3.1954  -17.7537   25.2766 C.3     1  UNL1        0.1168
      2 N          -4.1134  -17.5850   24.1024 N.am    1  UNL1       -0.2590
      3 C          -5.2459  -16.6037   24.1707 C.2     1  UNL1        0.3046
      4 O          -5.4603  -15.7911   25.4132 O.2     1  UNL1       -0.2526
      5 N          -6.1639  -16.4349   22.9965 N.am    1  UNL1       -0.2807
      6 H          -6.0231  -16.9682   22.1810 H       1  UNL1        0.1514
      7 C          -7.2962  -15.4536   23.0648 C.3     1  UNL1        0.1772
      8 C          -8.6516  -15.9031   23.5243 C.2     1  UNL1        0.2462
      9 O          -9.1690  -15.4748   24.8655 O.2     1  UNL1       -0.2729
     10 N          -9.4894  -16.7809   22.6426 N.am    1  UNL1       -0.2825
     11 H          -9.1498  -17.0621   21.7623 H       1  UNL1        0.1549
     12 C         -10.8448  -17.2305   23.1021 C.ar    1  UNL1        0.0503
     13 C         -12.0791  -16.6272   22.5000 C.ar    1  UNL1        0.0147
     14 C         -13.4343  -17.0767   22.9596 C.ar    1  UNL1        0.0013
     15 C         -13.5552  -18.1295   24.0212 C.ar    1  UNL1        0.0001
     16 C         -12.3210  -18.7328   24.6232 C.ar    1  UNL1        0.0013
     17 C         -10.9657  -18.2833   24.1637 C.ar    1  UNL1        0.0147
     18 C          -3.8990  -18.3975   22.8599 C.3     1  UNL1        0.1153
     19 C          -2.8291  -18.0072   21.8838 C.ar    1  UNL1       -0.0029
     20 C          -2.3302  -19.0035   20.8796 C.ar    1  UNL1       -0.0026
     21 C          -1.2603  -18.6131   19.9035 C.ar    1  UNL1       -0.0003
     22 C          -0.6892  -17.2263   19.9316 C.ar    1  UNL1       -0.0000
     23 C          -1.1880  -16.2300   20.9358 C.ar    1  UNL1       -0.0003
     24 C          -2.2580  -16.6204   21.9120 C.ar    1  UNL1       -0.0026
     25 C          -4.7546  -19.6005   22.5936 C.3     1  UNL1        0.0968
     26 N          -5.9552  -19.4844   21.7019 N.3     1  UNL1       -0.2689
     27 C          -5.9354  -19.2015   20.2289 C.3     1  UNL1        0.0748
     28 C          -7.3544  -19.1731   19.7433 C.3     1  UNL1        0.0480
     29 C          -8.2511  -19.4384   20.9161 C.3     1  UNL1        0.1278
     30 O          -9.7494  -19.5003   20.8841 O.3     1  UNL1       -0.3830
     31 C          -7.3863  -19.6308   22.1266 C.3     1  UNL1        0.1017
     32 H         -10.0603  -19.3412   19.9791 H       1  UNL1        0.2104
@<TRIPOS>BOND
     1     1     2    1
     2     2     3   am
     3     3     4    2
     4     3     5   am
     5     5     7    1
     6     7     8    1
     7     8     9    2
     8     8    10   am
     9    10    12    1
    10    12    13   ar
    11    13    14   ar
    12    14    15   ar
    13    15    16   ar
    14    16    17   ar
    15     2    18    1
    16    18    25    1
    17    25    26    1
    18    26    27    1
    19    27    28    1
    20    28    29    1
    21    29    30    1
    22    29    31    1
    23    18    19    1
    24    19    20   ar
    25    20    21   ar
    26    21    22   ar
    27    22    23   ar
    28    23    24   ar
    29    17    12   ar
    30    31    26    1
    31    24    19   ar
    32     5     6    1
    33    10    11    1
    34    30    32    1
@<TRIPOS>MOLECULE
*****
 32 34 0 0 0
SMALL
GASTEIGER

@<TRIPOS>ATOM
      1 C         -10.7885  -18.4978   19.4367 C.3     1  UNL1        0.1168
      2 N          -9.5387  -18.6726   20.2475 N.am    1  UNL1       -0.2590
      3 C          -8.4220  -19.5294   19.7289 C.2     1  UNL1        0.3046
      4 O          -8.5551  -20.2113   18.3995 O.2     1  UNL1       -0.2526
      5 N          -7.1722  -19.7042   20.5397 N.am    1  UNL1       -0.2807
      6 H          -7.0848  -19.2567   21.4122 H       1  UNL1        0.1514
      7 C          -6.0555  -20.5610   20.0211 C.3     1  UNL1        0.1772
      8 C          -4.6414  -20.0637   20.0753 C.2     1  UNL1        0.2462
      9 O          -3.5128  -21.0322   20.2715 O.2     1  UNL1       -0.2729
     10 N          -4.3557  -18.5981   19.9333 N.am    1  UNL1       -0.2825
     11 H          -5.0964  -17.9624   19.8045 H       1  UNL1        0.1549
     12 C          -2.9416  -18.1008   19.9875 C.ar    1  UNL1        0.0503
     13 C          -2.4593  -17.3405   21.1872 C.ar    1  UNL1        0.0147
     14 C          -1.0452  -16.8433   21.2414 C.ar    1  UNL1        0.0013
     15 C          -0.1133  -17.1063   20.0958 C.ar    1  UNL1        0.0001
     16 C          -0.5955  -17.8666   18.8960 C.ar    1  UNL1        0.0013
     17 C          -2.0097  -18.3638   18.8419 C.ar    1  UNL1        0.0147
     18 C          -9.4056  -17.9907   21.5769 C.3     1  UNL1        0.1153
     19 C          -9.8551  -18.6887   22.8262 C.ar    1  UNL1       -0.0029
     20 C          -9.1392  -19.9201   23.2963 C.ar    1  UNL1       -0.0026
     21 C          -9.5888  -20.6181   24.5455 C.ar    1  UNL1       -0.0003
     22 C         -10.7542  -20.0846   25.3248 C.ar    1  UNL1       -0.0000
     23 C         -11.4701  -18.8532   24.8547 C.ar    1  UNL1       -0.0003
     24 C         -11.0205  -18.1552   23.6054 C.ar    1  UNL1       -0.0026
     25 C          -8.8230  -16.6108   21.6570 C.3     1  UNL1        0.0968
     26 N          -7.7271  -16.3151   22.6377 N.3     1  UNL1       -0.2689
     27 C          -6.4577  -17.0970   22.8034 C.3     1  UNL1        0.0748
     28 C          -5.6543  -16.4508   23.8930 C.3     1  UNL1        0.0480
     29 C          -6.4271  -15.2696   24.4005 C.3     1  UNL1        0.1278
     30 O          -5.9948  -14.3363   25.4922 O.3     1  UNL1       -0.3830
     31 C          -7.7082  -15.1858   23.6247 C.3     1  UNL1        0.1017
     32 H          -5.1277  -14.6118   25.8286 H       1  UNL1        0.2104
@<TRIPOS>BOND
     1     1     2    1
     2     2     3   am
     3     3     4    2
     4     3     5   am
     5     5     7    1
     6     7     8    1
     7     8     9    2
     8     8    10   am
     9    10    12    1
    10    12    13   ar
    11    13    14   ar
    12    14    15   ar
    13    15    16   ar
    14    16    17   ar
    15     2    18    1
    16    18    25    1
    17    25    26    1
    18    26    27    1
    19    27    28    1
    20    28    29    1
    21    29    30    1
    22    29    31    1
    23    18    19    1
    24    19    20   ar
    25    20    21   ar
    26    21    22   ar
    27    22    23   ar
    28    23    24   ar
    29    17    12   ar
    30    31    26    1
    31    24    19   ar
    32     5     6    1
    33    10    11    1
    34    30    32    1
@<TRIPOS>MOLECULE
*****
 32 34 0 0 0
SMALL
GASTEIGER

@<TRIPOS>ATOM
      1 C          -9.1352  -15.1360   25.6337 C.3     1  UNL1        0.1168
      2 N          -8.3032  -15.8096   24.5830 N.am    1  UNL1       -0.2590
      3 C          -6.8146  -15.8963   24.7465 C.2     1  UNL1        0.3046
      4 O          -6.1581  -15.3095   25.9608 O.2     1  UNL1       -0.2526
      5 N          -5.9827  -16.5698   23.6957 N.am    1  UNL1       -0.2807
      6 H          -6.4136  -16.9550   22.8987 H       1  UNL1        0.1514
      7 C          -4.4942  -16.6565   23.8592 C.3     1  UNL1        0.1772
      8 C          -3.6051  -16.6486   22.6510 C.2     1  UNL1        0.2462
      9 O          -3.0136  -15.3592   22.1636 O.2     1  UNL1       -0.2729
     10 N          -3.3077  -17.9300   21.9303 N.am    1  UNL1       -0.2825
     11 H          -3.6959  -18.7763   22.2502 H       1  UNL1        0.1549
     12 C          -2.4187  -17.9221   20.7221 C.ar    1  UNL1        0.0503
     13 C          -3.0202  -17.8815   19.3486 C.ar    1  UNL1        0.0147
     14 C          -2.1312  -17.8736   18.1405 C.ar    1  UNL1        0.0013
     15 C          -0.6407  -17.9062   18.3059 C.ar    1  UNL1        0.0001
     16 C          -0.0392  -17.9468   19.6794 C.ar    1  UNL1        0.0013
     17 C          -0.9282  -17.9547   20.8875 C.ar    1  UNL1        0.0147
     18 C          -8.9598  -16.3964   23.3686 C.3     1  UNL1        0.1153
     19 C         -10.3521  -16.9466   23.4609 C.ar    1  UNL1       -0.0029
     20 C         -11.4686  -16.2933   22.7014 C.ar    1  UNL1       -0.0026
     21 C         -12.8609  -16.8434   22.7937 C.ar    1  UNL1       -0.0003
     22 C         -13.1370  -18.0470   23.6455 C.ar    1  UNL1       -0.0000
     23 C         -12.0205  -18.7002   24.4049 C.ar    1  UNL1       -0.0003
     24 C         -10.6281  -18.1500   24.3126 C.ar    1  UNL1       -0.0026
     25 C          -8.2239  -16.4331   22.0620 C.3     1  UNL1        0.0968
     26 N          -8.0924  -17.7251   21.3113 N.3     1  UNL1       -0.2689
     27 C          -9.1582  -18.3731   20.4782 C.3     1  UNL1        0.0748
     28 C          -8.5965  -19.6444   19.9140 C.3     1  UNL1        0.0480
     29 C          -7.1835  -19.7821   20.3983 C.3     1  UNL1        0.1278
     30 O          -6.2467  -20.9082   20.0757 O.3     1  UNL1       -0.3830
     31 C          -6.8720  -18.5958   21.2620 C.3     1  UNL1        0.1017
     32 H          -6.6946  -21.5460   19.4983 H       1  UNL1        0.2104
@<TRIPOS>BOND
     1     1     2    1
     2     2     3   am
     3     3     4    2
     4     3     5   am
     5     5     7    1
     6     7     8    1
     7     8     9    2
     8     8    10   am
     9    10    12    1
    10    12    13   ar
    11    13    14   ar
    12    14    15   ar
    13    15    16   ar
    14    16    17   ar
    15     2    18    1
    16    18    25    1
    17    25    26    1
    18    26    27    1
    19    27    28    1
    20    28    29    1
    21    29    30    1
    22    29    31    1
    23    18    19    1
    24    19    20   ar
    25    20    21   ar
    26    21    22   ar
    27    22    23   ar
    28    23    24   ar
    29    17    12   ar
    30    31    26    1
    31    24    19   ar
    32     5     6    1
    33    10    11    1
    34    30    32    1
@<TRIPOS>MOLECULE
*****
 32 34 0 0 0
SMALL
GASTEIGER

@<TRIPOS>ATOM
      1 C          -8.8289  -15.1227   25.6163 C.3     1  UNL1        0.1168
      2 N          -7.9931  -15.8502   24.6054 N.am    1  UNL1       -0.2590
      3 C          -6.4972  -15.8320   24.7162 C.2     1  UNL1        0.3046
      4 O          -5.8373  -15.0863   25.8380 O.2     1  UNL1       -0.2526
      5 N          -5.6614  -16.5595   23.7053 N.am    1  UNL1       -0.2807
      6 H          -6.0945  -17.0490   22.9690 H       1  UNL1        0.1514
      7 C          -4.1656  -16.5413   23.8161 C.3     1  UNL1        0.1772
      8 C          -3.3213  -16.5667   22.5765 C.2     1  UNL1        0.2462
      9 O          -2.6482  -15.3132   22.1016 O.2     1  UNL1       -0.2729
     10 N          -3.1501  -17.8457   21.8118 N.am    1  UNL1       -0.2825
     11 H          -3.5919  -18.6685   22.1234 H       1  UNL1        0.1549
     12 C          -2.3058  -17.8712   20.5722 C.ar    1  UNL1        0.0503
     13 C          -2.9506  -17.7531   19.2230 C.ar    1  UNL1        0.0147
     14 C          -2.1063  -17.7785   17.9835 C.ar    1  UNL1        0.0013
     15 C          -0.6172  -17.9221   18.0931 C.ar    1  UNL1        0.0001
     16 C           0.0276  -18.0402   19.4423 C.ar    1  UNL1        0.0013
     17 C          -0.8167  -18.0148   20.6818 C.ar    1  UNL1        0.0147
     18 C          -8.6530  -16.5960   23.4836 C.3     1  UNL1        0.1153
     19 C          -9.3182  -17.9141   23.7483 C.ar    1  UNL1       -0.0029
     20 C         -10.7186  -17.9532   24.2843 C.ar    1  UNL1       -0.0026
     21 C         -11.3838  -19.2713   24.5490 C.ar    1  UNL1       -0.0003
     22 C         -10.6485  -20.5504   24.2777 C.ar    1  UNL1       -0.0000
     23 C          -9.2481  -20.5112   23.7417 C.ar    1  UNL1       -0.0003
     24 C          -8.5829  -19.1930   23.4770 C.ar    1  UNL1       -0.0026
     25 C          -8.6477  -16.0236   22.0971 C.3     1  UNL1        0.0968
     26 N          -9.7730  -16.3315   21.1543 N.3     1  UNL1       -0.2689
     27 C         -10.1288  -17.6868   20.6187 C.3     1  UNL1        0.0748
     28 C         -11.3158  -17.5310   19.7150 C.3     1  UNL1        0.0480
     29 C         -11.6936  -16.0796   19.6920 C.3     1  UNL1        0.1278
     30 O         -12.8261  -15.4756   18.9157 O.3     1  UNL1       -0.3830
     31 C         -10.7401  -15.3382   20.5815 C.3     1  UNL1        0.1017
     32 H         -13.2871  -16.1717   18.4219 H       1  UNL1        0.2104
@<TRIPOS>BOND
     1     1     2    1
     2     2     3   am
     3     3     4    2
     4     3     5   am
     5     5     7    1
     6     7     8    1
     7     8     9    2
     8     8    10   am
     9    10    12    1
    10    12    13   ar
    11    13    14   ar
    12    14    15   ar
    13    15    16   ar
    14    16    17   ar
    15     2    18    1
    16    18    25    1
    17    25    26    1
    18    26    27    1
    19    27    28    1
    20    28    29    1
    21    29    30    1
    22    29    31    1
    23    18    19    1
    24    19    20   ar
    25    20    21   ar
    26    21    22   ar
    27    22    23   ar
    28    23    24   ar
    29    17    12   ar
    30    31    26    1
    31    24    19   ar
    32     5     6    1
    33    10    11    1
    34    30    32    1
@<TRIPOS>MOLECULE
*****
 32 34 0 0 0
SMALL
GASTEIGER

@<TRIPOS>ATOM
      1 C          -3.1802  -17.9156   25.1251 C.3     1  UNL1        0.1168
      2 N          -4.0101  -17.2656   24.0581 N.am    1  UNL1       -0.2590
      3 C          -5.1577  -16.3771   24.4375 C.2     1  UNL1        0.3046
      4 O          -5.4752  -16.1388   25.8840 O.2     1  UNL1       -0.2526
      5 N          -5.9875  -15.7271   23.3704 N.am    1  UNL1       -0.2807
      6 H          -5.7791  -15.8835   22.4210 H       1  UNL1        0.1514
      7 C          -7.1350  -14.8387   23.7498 C.3     1  UNL1        0.1772
      8 C          -8.4921  -15.4294   23.9939 C.2     1  UNL1        0.2462
      9 O          -9.1550  -15.2594   25.3287 O.2     1  UNL1       -0.2729
     10 N          -9.1862  -16.1900   22.9032 N.am    1  UNL1       -0.2825
     11 H          -8.7511  -16.3015   22.0271 H       1  UNL1        0.1549
     12 C         -10.5433  -16.7807   23.1472 C.ar    1  UNL1        0.0503
     13 C         -10.6874  -17.9958   24.0148 C.ar    1  UNL1        0.0147
     14 C         -12.0444  -18.5864   24.2588 C.ar    1  UNL1        0.0013
     15 C         -13.2573  -17.9619   23.6352 C.ar    1  UNL1        0.0001
     16 C         -13.1132  -16.7469   22.7676 C.ar    1  UNL1        0.0013
     17 C         -11.7562  -16.1562   22.5236 C.ar    1  UNL1        0.0147
     18 C          -3.6925  -17.5039   22.6116 C.3     1  UNL1        0.1153
     19 C          -4.3208  -18.6565   21.8858 C.ar    1  UNL1       -0.0029
     20 C          -3.4612  -19.6223   21.1254 C.ar    1  UNL1       -0.0026
     21 C          -4.0895  -20.7749   20.3997 C.ar    1  UNL1       -0.0003
     22 C          -5.5775  -20.9617   20.4342 C.ar    1  UNL1       -0.0000
     23 C          -6.4371  -19.9958   21.1946 C.ar    1  UNL1       -0.0003
     24 C          -5.8087  -18.8432   21.9204 C.ar    1  UNL1       -0.0026
     25 C          -2.7466  -16.5896   21.8909 C.3     1  UNL1        0.0968
     26 N          -1.9289  -17.1082   20.7453 N.3     1  UNL1       -0.2689
     27 C          -0.5717  -17.7393   20.8453 C.3     1  UNL1        0.0748
     28 C          -0.1288  -18.1079   19.4603 C.3     1  UNL1        0.0480
     29 C          -1.2122  -17.7047   18.5044 C.3     1  UNL1        0.1278
     30 O          -1.1874  -17.8873   17.0159 O.3     1  UNL1       -0.3830
     31 C          -2.3247  -17.0869   19.2986 C.3     1  UNL1        0.1017
     32 H          -0.3546  -18.3113   16.7560 H       1  UNL1        0.2104
@<TRIPOS>BOND
     1     1     2    1
     2     2     3   am
     3     3     4    2
     4     3     5   am
     5     5     7    1
     6     7     8    1
     7     8     9    2
     8     8    10   am
     9    10    12    1
    10    12    13   ar
    11    13    14   ar
    12    14    15   ar
    13    15    16   ar
    14    16    17   ar
    15     2    18    1
    16    18    25    1
    17    25    26    1
    18    26    27    1
    19    27    28    1
    20    28    29    1
    21    29    30    1
    22    29    31    1
    23    18    19    1
    24    19    20   ar
    25    20    21   ar
    26    21    22   ar
    27    22    23   ar
    28    23    24   ar
    29    17    12   ar
    30    31    26    1
    31    24    19   ar
    32     5     6    1
    33    10    11    1
    34    30    32    1
@<TRIPOS>MOLECULE
*****
 32 34 0 0 0
SMALL
GASTEIGER

@<TRIPOS>ATOM
      1 C          -8.8215  -15.7474   27.2573 C.3     1  UNL1        0.1168
      2 N          -8.3169  -15.8838   25.8513 N.am    1  UNL1       -0.2590
      3 C          -6.9039  -15.5035   25.5214 C.2     1  UNL1        0.3046
      4 O          -5.9955  -14.9869   26.5974 O.2     1  UNL1       -0.2526
      5 N          -6.3993  -15.6399   24.1154 N.am    1  UNL1       -0.2807
      6 H          -6.9955  -15.9790   23.4092 H       1  UNL1        0.1514
      7 C          -4.9863  -15.2597   23.7855 C.3     1  UNL1        0.1772
      8 C          -4.1697  -16.1269   22.8738 C.2     1  UNL1        0.2462
      9 O          -3.0397  -15.5323   22.0866 O.2     1  UNL1       -0.2729
     10 N          -4.4830  -17.5885   22.7493 N.am    1  UNL1       -0.2825
     11 H          -5.2246  -17.9787   23.2660 H       1  UNL1        0.1549
     12 C          -3.6663  -18.4556   21.8376 C.ar    1  UNL1        0.0503
     13 C          -4.3445  -19.3051   20.8040 C.ar    1  UNL1        0.0147
     14 C          -3.5279  -20.1722   19.8924 C.ar    1  UNL1        0.0013
     15 C          -2.0329  -20.1898   20.0143 C.ar    1  UNL1        0.0001
     16 C          -1.3547  -19.3403   21.0479 C.ar    1  UNL1        0.0013
     17 C          -2.1713  -18.4732   21.9595 C.ar    1  UNL1        0.0147
     18 C          -9.2253  -16.4004   24.7753 C.3     1  UNL1        0.1153
     19 C          -9.2528  -17.8659   24.4566 C.ar    1  UNL1       -0.0029
     20 C          -8.5158  -18.3868   23.2585 C.ar    1  UNL1       -0.0026
     21 C          -8.5432  -19.8523   22.9398 C.ar    1  UNL1       -0.0003
     22 C          -9.3078  -20.7969   23.8192 C.ar    1  UNL1       -0.0000
     23 C         -10.0449  -20.2759   25.0173 C.ar    1  UNL1       -0.0003
     24 C         -10.0173  -18.8104   25.3360 C.ar    1  UNL1       -0.0026
     25 C         -10.1063  -15.4515   24.0179 C.3     1  UNL1        0.0968
     26 N         -10.9439  -15.9526   22.8789 N.3     1  UNL1       -0.2689
     27 C         -12.2616  -16.6595   22.9978 C.3     1  UNL1        0.0748
     28 C         -12.7429  -16.9786   21.6133 C.3     1  UNL1        0.0480
     29 C         -11.7227  -16.4689   20.6389 C.3     1  UNL1        0.1278
     30 O         -11.8008  -16.5747   19.1448 O.3     1  UNL1       -0.3830
     31 C         -10.6109  -15.8348   21.4211 C.3     1  UNL1        0.1017
     32 H         -12.6209  -17.0285   18.8952 H       1  UNL1        0.2104
@<TRIPOS>BOND
     1     1     2    1
     2     2     3   am
     3     3     4    2
     4     3     5   am
     5     5     7    1
     6     7     8    1
     7     8     9    2
     8     8    10   am
     9    10    12    1
    10    12    13   ar
    11    13    14   ar
    12    14    15   ar
    13    15    16   ar
    14    16    17   ar
    15     2    18    1
    16    18    25    1
    17    25    26    1
    18    26    27    1
    19    27    28    1
    20    28    29    1
    21    29    30    1
    22    29    31    1
    23    18    19    1
    24    19    20   ar
    25    20    21   ar
    26    21    22   ar
    27    22    23   ar
    28    23    24   ar
    29    17    12   ar
    30    31    26    1
    31    24    19   ar
    32     5     6    1
    33    10    11    1
    34    30    32    1
@<TRIPOS>MOLECULE
*****
 32 34 0 0 0
SMALL
GASTEIGER

@<TRIPOS>ATOM
      1 C           6.7207    0.7101   18.5531 C.3     1  UNL1        0.1168
      2 N           5.5473    0.0427   19.2071 N.am    1  UNL1       -0.2590
      3 C           5.6719   -0.4953   20.6018 C.2     1  UNL1        0.3046
      4 O           6.9698   -0.3659   21.3425 O.2     1  UNL1       -0.2526
      5 N           4.4985   -1.1628   21.2557 N.am    1  UNL1       -0.2807
      6 H           3.6466   -1.2477   20.7696 H       1  UNL1        0.1514
      7 C           4.6231   -1.7007   22.6504 C.3     1  UNL1        0.1772
      8 C           5.2738   -3.0317   22.8855 C.2     1  UNL1        0.2462
      9 O           4.4987   -4.2958   22.6597 O.2     1  UNL1       -0.2729
     10 N           6.6997   -3.0984   23.3465 N.am    1  UNL1       -0.2825
     11 H           7.2084   -2.2686   23.4947 H       1  UNL1        0.1549
     12 C           7.3504   -4.4293   23.5816 C.ar    1  UNL1        0.0503
     13 C           7.1526   -5.1406   24.8873 C.ar    1  UNL1        0.0147
     14 C           7.8033   -6.4715   25.1224 C.ar    1  UNL1        0.0013
     15 C           8.6519   -7.0910   24.0519 C.ar    1  UNL1        0.0001
     16 C           8.8497   -6.3797   22.7462 C.ar    1  UNL1        0.0013
     17 C           8.1990   -5.0488   22.5111 C.ar    1  UNL1        0.0147
     18 C           4.2494   -0.0868   18.4664 C.3     1  UNL1        0.1153
     19 C           3.2648    1.0447   18.4752 C.ar    1  UNL1       -0.0029
     20 C           1.7926    0.7581   18.4500 C.ar    1  UNL1       -0.0026
     21 C           0.8080    1.8896   18.4587 C.ar    1  UNL1       -0.0003
     22 C           1.2955    3.3079   18.4927 C.ar    1  UNL1       -0.0000
     23 C           2.7676    3.5945   18.5180 C.ar    1  UNL1       -0.0003
     24 C           3.7523    2.4629   18.5092 C.ar    1  UNL1       -0.0026
     25 C           3.9361   -1.3479   17.7169 C.3     1  UNL1        0.0968
     26 N           4.2010   -2.6818   18.3497 N.3     1  UNL1       -0.2689
     27 C           5.5200   -3.3955   18.3830 C.3     1  UNL1        0.0748
     28 C           5.3275   -4.6911   19.1142 C.3     1  UNL1        0.0480
     29 C           3.8897   -4.7781   19.5327 C.3     1  UNL1        0.1278
     30 O           3.2590   -5.9084   20.2906 O.3     1  UNL1       -0.3830
     31 C           3.1935   -3.5363   19.0602 C.3     1  UNL1        0.1017
     32 H           3.9272   -6.5872   20.4742 H       1  UNL1        0.2104
@<TRIPOS>BOND
     1     1     2    1
     2     2     3   am
     3     3     4    2
     4     3     5   am
     5     5     7    1
     6     7     8    1
     7     8     9    2
     8     8    10   am
     9    10    12    1
    10    12    13   ar
    11    13    14   ar
    12    14    15   ar
    13    15    16   ar
    14    16    17   ar
    15     2    18    1
    16    18    25    1
    17    25    26    1
    18    26    27    1
    19    27    28    1
    20    28    29    1
    21    29    30    1
    22    29    31    1
    23    18    19    1
    24    19    20   ar
    25    20    21   ar
    26    21    22   ar
    27    22    23   ar
    28    23    24   ar
    29    17    12   ar
    30    31    26    1
    31    24    19   ar
    32     5     6    1
    33    10    11    1
    34    30    32    1
@<TRIPOS>MOLECULE
*****
 32 34 0 0 0
SMALL
GASTEIGER

@<TRIPOS>ATOM
      1 C           9.0188   -3.3302   20.8810 C.3     1  UNL1        0.1168
      2 N           7.9445   -3.4404   21.9220 N.am    1  UNL1       -0.2590
      3 C           8.0838   -4.4286   23.0419 C.2     1  UNL1        0.3046
      4 O           9.2975   -5.3066   23.1207 O.2     1  UNL1       -0.2526
      5 N           7.0095   -4.5389   24.0829 N.am    1  UNL1       -0.2807
      6 H           6.2130   -3.9626   24.0311 H       1  UNL1        0.1514
      7 C           7.1489   -5.5271   25.2026 C.3     1  UNL1        0.1772
      8 C           7.3564   -5.0442   26.6076 C.2     1  UNL1        0.2462
      9 O           8.6207   -4.3251   26.9744 O.2     1  UNL1       -0.2729
     10 N           6.2998   -5.2804   27.6457 N.am    1  UNL1       -0.2825
     11 H           5.4700   -5.7524   27.4049 H       1  UNL1        0.1549
     12 C           6.5073   -4.7975   29.0506 C.ar    1  UNL1        0.0503
     13 C           6.3114   -3.3478   29.3821 C.ar    1  UNL1        0.0147
     14 C           6.5189   -2.8650   30.7870 C.ar    1  UNL1        0.0013
     15 C           6.9224   -3.8320   31.8604 C.ar    1  UNL1        0.0001
     16 C           7.1183   -5.2817   31.5290 C.ar    1  UNL1        0.0013
     17 C           6.9108   -5.7645   30.1241 C.ar    1  UNL1        0.0147
     18 C           6.7308   -2.5624   21.8432 C.3     1  UNL1        0.1153
     19 C           5.6036   -2.9220   20.9213 C.ar    1  UNL1       -0.0029
     20 C           5.6864   -4.1640   20.0842 C.ar    1  UNL1       -0.0026
     21 C           4.5591   -4.5236   19.1623 C.ar    1  UNL1       -0.0003
     22 C           3.3490   -3.6412   19.0774 C.ar    1  UNL1       -0.0000
     23 C           3.2662   -2.3993   19.9145 C.ar    1  UNL1       -0.0003
     24 C           4.3935   -2.0397   20.8365 C.ar    1  UNL1       -0.0026
     25 C           6.6445   -1.3248   22.6863 C.3     1  UNL1        0.0968
     26 N           6.1669   -1.4158   24.1053 N.3     1  UNL1       -0.2689
     27 C           6.9898   -1.1511   25.3313 C.3     1  UNL1        0.0748
     28 C           6.1139   -1.3593   26.5312 C.3     1  UNL1        0.0480
     29 C           4.7499   -1.7527   26.0468 C.3     1  UNL1        0.1278
     30 O           3.5618   -2.0575   26.9102 O.3     1  UNL1       -0.3830
     31 C           4.7826   -1.7876   24.5476 C.3     1  UNL1        0.1017
     32 H           3.8074   -1.9618   27.8437 H       1  UNL1        0.2104
@<TRIPOS>BOND
     1     1     2    1
     2     2     3   am
     3     3     4    2
     4     3     5   am
     5     5     7    1
     6     7     8    1
     7     8     9    2
     8     8    10   am
     9    10    12    1
    10    12    13   ar
    11    13    14   ar
    12    14    15   ar
    13    15    16   ar
    14    16    17   ar
    15     2    18    1
    16    18    25    1
    17    25    26    1
    18    26    27    1
    19    27    28    1
    20    28    29    1
    21    29    30    1
    22    29    31    1
    23    18    19    1
    24    19    20   ar
    25    20    21   ar
    26    21    22   ar
    27    22    23   ar
    28    23    24   ar
    29    17    12   ar
    30    31    26    1
    31    24    19   ar
    32     5     6    1
    33    10    11    1
    34    30    32    1
