@<TRIPOS>MOLECULE
*****
 33 38 0 0 0
SMALL
GASTEIGER

@<TRIPOS>ATOM
      1 N           2.7823   -0.6383   19.9228 N.pl3   1  UNL1       -0.3046
      2 C           3.3869    0.7229   19.7451 C.3     1  UNL1        0.1081
      3 C           2.5145    1.9424   19.7871 C.3     1  UNL1        0.0938
      4 N           1.0374    1.8007   20.0069 N.3     1  UNL1       -0.2695
      5 C           0.4329    0.4394   20.1847 C.3     1  UNL1        0.0938
      6 C           1.3053   -0.7800   20.1427 C.3     1  UNL1        0.1081
      7 C           6.2441   -3.8687   24.9059 C.3     1  UNL1        0.0521
      8 C           5.5967   -3.3659   23.6496 C.ar    1  UNL1        0.0593
      9 C           4.7243   -2.1465   23.6916 C.ar    1  UNL1        0.0148
     10 C           4.0770   -1.6438   22.4354 C.ar    1  UNL1        0.0039
     11 C           4.3021   -2.3605   21.1371 C.ar    1  UNL1        0.0310
     12 C           3.6547   -1.8577   19.8808 C.ar    1  UNL1        0.0493
     13 C           3.8799   -2.5745   18.5824 C.ar    1  UNL1        0.0146
     14 C           4.7523   -3.7939   18.5404 C.ar    1  UNL1        0.0028
     15 C           5.3996   -4.2966   19.7967 C.ar    1  UNL1        0.0192
     16 C           5.1745   -3.5800   21.0950 C.ar    1  UNL1        0.0821
     17 N           5.8219   -4.0827   22.3512 N.ar    1  UNL1       -0.2496
     18 C           0.1650    3.0201   20.0490 C.3     1  UNL1        0.0770
     19 C          -1.2992    2.8849   20.3453 C.3     1  UNL1        0.0468
     20 C          -1.8265    3.2485   21.7017 C.ar    1  UNL1        0.0146
     21 C          -0.8995    3.2909   22.8802 C.ar    1  UNL1       -0.0011
     22 C          -1.4269    3.6545   24.2365 C.ar    1  UNL1        0.0014
     23 C          -2.8813    3.9756   24.4144 C.ar    1  UNL1        0.0206
     24 C          -3.8083    3.9331   23.2360 C.ar    1  UNL1        0.0998
     25 C          -3.2809    3.5696   21.8796 C.ar    1  UNL1        0.1512
     26 O          -4.2080    3.5271   20.7011 O.3     1  UNL1       -0.4661
     27 C          -5.6624    3.8482   20.8790 C.3     1  UNL1        0.2707
     28 C          -6.1897    4.2117   22.2354 C.ar    1  UNL1        0.1916
     29 N          -7.5643    4.5745   22.7136 N.ar    1  UNL1       -0.1295
     30 N          -7.4869    4.8412   24.1877 N.ar    1  UNL1       -0.1332
     31 C          -6.0644    4.6433   24.6204 C.ar    1  UNL1        0.1474
     32 C          -5.5363    4.8058   26.0149 C.3     1  UNL1        0.0742
     33 N          -5.2627    4.2542   23.4138 N.ar    1  UNL1       -0.2748
@<TRIPOS>BOND
     1     7     8    1
     2     8     9   ar
     3     9    10   ar
     4    10    11   ar
     5    11    12   ar
     6    12     1    1
     7     1     2    1
     8     2     3    1
     9     3     4    1
    10     4    18    1
    11    18    19    1
    12    19    20    1
    13    20    21   ar
    14    21    22   ar
    15    22    23   ar
    16    23    24   ar
    17    24    25   ar
    18    25    26    1
    19    26    27    1
    20    27    28    1
    21    28    29   ar
    22    29    30   ar
    23    30    31   ar
    24    31    32    1
    25    31    33   ar
    26     4     5    1
    27     5     6    1
    28    12    13   ar
    29    13    14   ar
    30    14    15   ar
    31    15    16   ar
    32    16    17   ar
    33    17     8   ar
    34    16    11   ar
    35     6     1    1
    36    25    20   ar
    37    33    28   ar
    38    33    24    1
@<TRIPOS>MOLECULE
*****
 33 38 0 0 0
SMALL
GASTEIGER

@<TRIPOS>ATOM
      1 N           2.7497    1.2006   20.5340 N.pl3   1  UNL1       -0.3046
      2 C           1.2748    0.9587   20.4070 C.3     1  UNL1        0.1081
      3 C           0.3431    1.4208   21.4880 C.3     1  UNL1        0.0938
      4 N           0.8864    2.1248   22.6960 N.3     1  UNL1       -0.2695
      5 C           2.3614    2.3667   22.8229 C.3     1  UNL1        0.0938
      6 C           3.2930    1.9046   21.7419 C.3     1  UNL1        0.1081
      7 C           4.7299   -5.1207   18.6984 C.3     1  UNL1        0.0521
      8 C           4.4677   -3.6559   18.8870 C.ar    1  UNL1        0.0593
      9 C           3.5361   -3.1938   19.9680 C.ar    1  UNL1        0.0148
     10 C           3.2740   -1.7290   20.1567 C.ar    1  UNL1        0.0039
     11 C           3.9434   -0.7263   19.2643 C.ar    1  UNL1        0.0310
     12 C           3.6813    0.7386   19.4530 C.ar    1  UNL1        0.0493
     13 C           4.3508    1.7413   18.5606 C.ar    1  UNL1        0.0146
     14 C           5.2824    1.2792   17.4796 C.ar    1  UNL1        0.0028
     15 C           5.5445   -0.1856   17.2909 C.ar    1  UNL1        0.0192
     16 C           4.8751   -1.1883   18.1833 C.ar    1  UNL1        0.0821
     17 N           5.1372   -2.6531   17.9946 N.ar    1  UNL1       -0.2496
     18 C          -0.0452    2.5869   23.7769 C.3     1  UNL1        0.0770
     19 C          -0.9181    3.7859   23.5528 C.3     1  UNL1        0.0468
     20 C          -2.2681    3.6230   22.9194 C.ar    1  UNL1        0.0146
     21 C          -3.4627    3.3081   23.7701 C.ar    1  UNL1       -0.0011
     22 C          -4.8125    3.1452   23.1367 C.ar    1  UNL1        0.0014
     23 C          -4.9678    3.2971   21.6525 C.ar    1  UNL1        0.0206
     24 C          -3.7732    3.6119   20.8017 C.ar    1  UNL1        0.0998
     25 C          -2.4234    3.7749   21.4352 C.ar    1  UNL1        0.1512
     26 O          -1.2287    4.0897   20.5844 O.3     1  UNL1       -0.4661
     27 C          -1.3840    4.2416   19.1002 C.3     1  UNL1        0.2707
     28 C          -2.7339    4.0787   18.4668 C.ar    1  UNL1        0.1916
     29 N          -3.1912    4.1699   17.0412 N.ar    1  UNL1       -0.1295
     30 N          -4.6684    3.9114   17.0108 N.ar    1  UNL1       -0.1332
     31 C          -5.1241    3.6604   18.4177 C.ar    1  UNL1        0.1474
     32 C          -6.5288    3.3590   18.8490 C.3     1  UNL1        0.0742
     33 N          -3.9285    3.7638   19.3176 N.ar    1  UNL1       -0.2748
@<TRIPOS>BOND
     1     7     8    1
     2     8     9   ar
     3     9    10   ar
     4    10    11   ar
     5    11    12   ar
     6    12     1    1
     7     1     2    1
     8     2     3    1
     9     3     4    1
    10     4    18    1
    11    18    19    1
    12    19    20    1
    13    20    21   ar
    14    21    22   ar
    15    22    23   ar
    16    23    24   ar
    17    24    25   ar
    18    25    26    1
    19    26    27    1
    20    27    28    1
    21    28    29   ar
    22    29    30   ar
    23    30    31   ar
    24    31    32    1
    25    31    33   ar
    26     4     5    1
    27     5     6    1
    28    12    13   ar
    29    13    14   ar
    30    14    15   ar
    31    15    16   ar
    32    16    17   ar
    33    17     8   ar
    34    16    11   ar
    35     6     1    1
    36    25    20   ar
    37    33    28   ar
    38    33    24    1
@<TRIPOS>MOLECULE
*****
 33 38 0 0 0
SMALL
GASTEIGER

@<TRIPOS>ATOM
      1 N           1.1505    1.9882   29.1017 N.pl3   1  UNL1       -0.3046
      2 C          -0.0815    1.2533   28.6635 C.3     1  UNL1        0.1081
      3 C          -0.3138    0.9807   27.2068 C.3     1  UNL1        0.0938
      4 N           0.6858    1.4431   26.1885 N.3     1  UNL1       -0.2695
      5 C           1.9178    2.1781   26.6269 C.3     1  UNL1        0.0938
      6 C           2.1501    2.4506   28.0834 C.3     1  UNL1        0.1081
      7 C           4.6837   -1.5329   33.8312 C.3     1  UNL1        0.0521
      8 C           3.8585   -0.5845   33.0130 C.ar    1  UNL1        0.0593
      9 C           3.6262   -0.8571   31.5564 C.ar    1  UNL1        0.0148
     10 C           2.8009    0.0914   30.7382 C.ar    1  UNL1        0.0039
     11 C           2.2080    1.3124   31.3765 C.ar    1  UNL1        0.0310
     12 C           1.3828    2.2608   30.5583 C.ar    1  UNL1        0.0493
     13 C           0.7898    3.4818   31.1968 C.ar    1  UNL1        0.0146
     14 C           1.0221    3.7544   32.6534 C.ar    1  UNL1        0.0028
     15 C           1.8474    2.8060   33.4716 C.ar    1  UNL1        0.0192
     16 C           2.4403    1.5850   32.8332 C.ar    1  UNL1        0.0821
     17 N           3.2655    0.6365   33.6514 N.ar    1  UNL1       -0.2496
     18 C           0.4535    1.1705   24.7319 C.3     1  UNL1        0.0770
     19 C           1.5208    1.4941   23.7288 C.3     1  UNL1        0.0468
     20 C           1.7161    0.6127   22.5308 C.ar    1  UNL1        0.0146
     21 C           0.9229    0.8584   21.2816 C.ar    1  UNL1       -0.0011
     22 C           1.1182   -0.0229   20.0837 C.ar    1  UNL1        0.0014
     23 C           2.1067   -1.1500   20.1350 C.ar    1  UNL1        0.0206
     24 C           2.8998   -1.3957   21.3841 C.ar    1  UNL1        0.0998
     25 C           2.7045   -0.5144   22.5821 C.ar    1  UNL1        0.1512
     26 O           3.4977   -0.7601   23.8313 O.3     1  UNL1       -0.4661
     27 C           4.4862   -1.8872   23.8826 C.3     1  UNL1        0.2707
     28 C           4.6814   -2.7686   22.6846 C.ar    1  UNL1        0.1916
     29 N           5.5765   -3.9473   22.4410 N.ar    1  UNL1       -0.1295
     30 N           5.3366   -4.4301   21.0412 N.ar    1  UNL1       -0.1332
     31 C           4.2932   -3.5497   20.4198 C.ar    1  UNL1        0.1474
     32 C           3.7500   -3.6743   19.0271 C.3     1  UNL1        0.0742
     33 N           3.8883   -2.5228   21.4354 N.ar    1  UNL1       -0.2748
@<TRIPOS>BOND
     1     7     8    1
     2     8     9   ar
     3     9    10   ar
     4    10    11   ar
     5    11    12   ar
     6    12     1    1
     7     1     2    1
     8     2     3    1
     9     3     4    1
    10     4    18    1
    11    18    19    1
    12    19    20    1
    13    20    21   ar
    14    21    22   ar
    15    22    23   ar
    16    23    24   ar
    17    24    25   ar
    18    25    26    1
    19    26    27    1
    20    27    28    1
    21    28    29   ar
    22    29    30   ar
    23    30    31   ar
    24    31    32    1
    25    31    33   ar
    26     4     5    1
    27     5     6    1
    28    12    13   ar
    29    13    14   ar
    30    14    15   ar
    31    15    16   ar
    32    16    17   ar
    33    17     8   ar
    34    16    11   ar
    35     6     1    1
    36    25    20   ar
    37    33    28   ar
    38    33    24    1
@<TRIPOS>MOLECULE
*****
 33 38 0 0 0
SMALL
GASTEIGER

@<TRIPOS>ATOM
      1 N           2.7888    0.8442   20.9921 N.pl3   1  UNL1       -0.3046
      2 C           1.2981    0.8900   20.8314 C.3     1  UNL1        0.1081
      3 C           0.4269    1.2222   22.0065 C.3     1  UNL1        0.0938
      4 N           1.0464    1.5084   23.3423 N.3     1  UNL1       -0.2695
      5 C           2.5371    1.4625   23.5029 C.3     1  UNL1        0.0938
      6 C           3.4083    1.1304   22.3279 C.3     1  UNL1        0.1081
      7 C           4.9070   -5.2142   18.5305 C.3     1  UNL1        0.0521
      8 C           4.5952   -3.7826   18.8521 C.ar    1  UNL1        0.0593
      9 C           3.7241   -3.4505   20.0272 C.ar    1  UNL1        0.0148
     10 C           3.4123   -2.0189   20.3488 C.ar    1  UNL1        0.0039
     11 C           3.9717   -0.9195   19.4954 C.ar    1  UNL1        0.0310
     12 C           3.6599    0.5120   19.8171 C.ar    1  UNL1        0.0493
     13 C           4.2193    1.6115   18.9636 C.ar    1  UNL1        0.0146
     14 C           5.0905    1.2794   17.7886 C.ar    1  UNL1        0.0028
     15 C           5.4022   -0.1522   17.4669 C.ar    1  UNL1        0.0192
     16 C           4.8429   -1.2516   18.3203 C.ar    1  UNL1        0.0821
     17 N           5.1547   -2.6832   17.9987 N.ar    1  UNL1       -0.2496
     18 C           0.1753    1.8405   24.5173 C.3     1  UNL1        0.0770
     19 C          -0.3385    3.2381   24.6988 C.3     1  UNL1        0.0468
     20 C          -1.8123    3.4840   24.8311 C.ar    1  UNL1        0.0146
     21 C          -2.4366    3.5856   26.1912 C.ar    1  UNL1       -0.0011
     22 C          -3.9104    3.8315   26.3235 C.ar    1  UNL1        0.0014
     23 C          -4.7598    3.9760   25.0957 C.ar    1  UNL1        0.0206
     24 C          -4.1355    3.8744   23.7356 C.ar    1  UNL1        0.0998
     25 C          -2.6618    3.6284   23.6033 C.ar    1  UNL1        0.1512
     26 O          -2.0375    3.5269   22.2431 O.3     1  UNL1       -0.4661
     27 C          -2.8869    3.6713   21.0153 C.3     1  UNL1        0.2707
     28 C          -4.3607    3.9173   21.1476 C.ar    1  UNL1        0.1916
     29 N          -5.4434    4.1002   20.1258 N.ar    1  UNL1       -0.1295
     30 N          -6.7369    4.3149   20.8544 N.ar    1  UNL1       -0.1332
     31 C          -6.4536    4.2646   22.3265 C.ar    1  UNL1        0.1474
     32 C          -7.4618    4.4308   23.4246 C.3     1  UNL1        0.0742
     33 N          -4.9850    4.0188   22.5077 N.ar    1  UNL1       -0.2748
@<TRIPOS>BOND
     1     7     8    1
     2     8     9   ar
     3     9    10   ar
     4    10    11   ar
     5    11    12   ar
     6    12     1    1
     7     1     2    1
     8     2     3    1
     9     3     4    1
    10     4    18    1
    11    18    19    1
    12    19    20    1
    13    20    21   ar
    14    21    22   ar
    15    22    23   ar
    16    23    24   ar
    17    24    25   ar
    18    25    26    1
    19    26    27    1
    20    27    28    1
    21    28    29   ar
    22    29    30   ar
    23    30    31   ar
    24    31    32    1
    25    31    33   ar
    26     4     5    1
    27     5     6    1
    28    12    13   ar
    29    13    14   ar
    30    14    15   ar
    31    15    16   ar
    32    16    17   ar
    33    17     8   ar
    34    16    11   ar
    35     6     1    1
    36    25    20   ar
    37    33    28   ar
    38    33    24    1
@<TRIPOS>MOLECULE
*****
 33 38 0 0 0
SMALL
GASTEIGER

@<TRIPOS>ATOM
      1 N           2.7421   -0.6388   19.9275 N.pl3   1  UNL1       -0.3046
      2 C           3.2569    0.7304   19.5959 C.3     1  UNL1        0.1081
      3 C           2.3345    1.9121   19.6503 C.3     1  UNL1        0.0938
      4 N           0.8972    1.7243   20.0364 N.3     1  UNL1       -0.2695
      5 C           0.3824    0.3550   20.3680 C.3     1  UNL1        0.0938
      6 C           1.3048   -0.8266   20.3136 C.3     1  UNL1        0.1081
      7 C           6.2204   -3.8653   24.9016 C.3     1  UNL1        0.0521
      8 C           5.5814   -3.3540   23.6445 C.ar    1  UNL1        0.0593
      9 C           4.6590   -2.1725   23.6989 C.ar    1  UNL1        0.0148
     10 C           4.0200   -1.6613   22.4418 C.ar    1  UNL1        0.0039
     11 C           4.3035   -2.3316   21.1302 C.ar    1  UNL1        0.0310
     12 C           3.6645   -1.8204   19.8731 C.ar    1  UNL1        0.0493
     13 C           3.9480   -2.4908   18.5615 C.ar    1  UNL1        0.0146
     14 C           4.8705   -3.6723   18.5070 C.ar    1  UNL1        0.0028
     15 C           5.5094   -4.1836   19.7642 C.ar    1  UNL1        0.0192
     16 C           5.2260   -3.5132   21.0757 C.ar    1  UNL1        0.0821
     17 N           5.8649   -4.0244   22.3329 N.ar    1  UNL1       -0.2496
     18 C          -0.0252    2.9059   20.0908 C.3     1  UNL1        0.0770
     19 C           0.0786    3.8870   21.2207 C.3     1  UNL1        0.0468
     20 C          -0.4516    3.5277   22.5771 C.ar    1  UNL1        0.0146
     21 C          -1.8351    3.9473   22.9769 C.ar    1  UNL1       -0.0011
     22 C          -2.3652    3.5880   24.3333 C.ar    1  UNL1        0.0014
     23 C          -1.5118    2.8090   25.2899 C.ar    1  UNL1        0.0206
     24 C          -0.1284    2.3894   24.8901 C.ar    1  UNL1        0.0998
     25 C           0.4018    2.7487   23.5337 C.ar    1  UNL1        0.1512
     26 O           1.7853    2.3291   23.1338 O.3     1  UNL1       -0.4661
     27 C           2.6387    1.5502   24.0904 C.3     1  UNL1        0.2707
     28 C           2.1085    1.1908   25.4468 C.ar    1  UNL1        0.1916
     29 N           2.7135    0.4362   26.5933 N.ar    1  UNL1       -0.1295
     30 N           1.7039    0.3893   27.7017 N.ar    1  UNL1       -0.1332
     31 C           0.4750    1.1151   27.2402 C.ar    1  UNL1        0.1474
     32 C          -0.7832    1.3111   28.0331 C.3     1  UNL1        0.0742
     33 N           0.7250    1.6105   25.8466 N.ar    1  UNL1       -0.2748
@<TRIPOS>BOND
     1     7     8    1
     2     8     9   ar
     3     9    10   ar
     4    10    11   ar
     5    11    12   ar
     6    12     1    1
     7     1     2    1
     8     2     3    1
     9     3     4    1
    10     4    18    1
    11    18    19    1
    12    19    20    1
    13    20    21   ar
    14    21    22   ar
    15    22    23   ar
    16    23    24   ar
    17    24    25   ar
    18    25    26    1
    19    26    27    1
    20    27    28    1
    21    28    29   ar
    22    29    30   ar
    23    30    31   ar
    24    31    32    1
    25    31    33   ar
    26     4     5    1
    27     5     6    1
    28    12    13   ar
    29    13    14   ar
    30    14    15   ar
    31    15    16   ar
    32    16    17   ar
    33    17     8   ar
    34    16    11   ar
    35     6     1    1
    36    25    20   ar
    37    33    28   ar
    38    33    24    1
@<TRIPOS>MOLECULE
*****
 33 38 0 0 0
SMALL
GASTEIGER

@<TRIPOS>ATOM
      1 N           8.2513   -5.6076   27.6445 N.pl3   1  UNL1       -0.3046
      2 C           7.0323   -6.0213   28.4145 C.3     1  UNL1        0.1081
      3 C           6.8231   -5.5212   29.8131 C.3     1  UNL1        0.0938
      4 N           7.8329   -4.6073   30.4417 N.3     1  UNL1       -0.2695
      5 C           9.0519   -4.1936   29.6716 C.3     1  UNL1        0.0938
      6 C           9.2611   -4.6937   28.2731 C.3     1  UNL1        0.1081
      7 C           5.9004   -3.2595   21.6270 C.3     1  UNL1        0.0521
      8 C           6.5404   -3.9716   22.7817 C.ar    1  UNL1        0.0593
      9 C           6.3313   -3.4714   24.1803 C.ar    1  UNL1        0.0148
     10 C           6.9713   -4.1835   25.3350 C.ar    1  UNL1        0.0039
     11 C           7.8204   -5.3957   25.0912 C.ar    1  UNL1        0.0310
     12 C           8.4604   -6.1077   26.2459 C.ar    1  UNL1        0.0493
     13 C           9.3096   -7.3200   26.0020 C.ar    1  UNL1        0.0146
     14 C           9.5187   -7.8201   24.6034 C.ar    1  UNL1        0.0028
     15 C           8.8787   -7.1081   23.4487 C.ar    1  UNL1        0.0192
     16 C           8.0296   -5.8959   23.6925 C.ar    1  UNL1        0.0821
     17 N           7.3896   -5.1838   22.5378 N.ar    1  UNL1       -0.2496
     18 C           7.6238   -4.1071   31.8403 C.3     1  UNL1        0.0770
     19 C           7.5157   -2.6341   32.1017 C.3     1  UNL1        0.0468
     20 C           6.1800   -1.9554   32.0285 C.ar    1  UNL1        0.0146
     21 C           5.4236   -1.6505   33.2874 C.ar    1  UNL1       -0.0011
     22 C           4.0879   -0.9719   33.2142 C.ar    1  UNL1        0.0014
     23 C           3.5086   -0.5981   31.8820 C.ar    1  UNL1        0.0206
     24 C           4.2650   -0.9030   30.6231 C.ar    1  UNL1        0.0998
     25 C           5.6007   -1.5816   30.6963 C.ar    1  UNL1        0.1512
     26 O           6.3571   -1.8866   29.4374 O.3     1  UNL1       -0.4661
     27 C           5.7778   -1.5128   28.1052 C.3     1  UNL1        0.2707
     28 C           4.4420   -0.8341   28.0320 C.ar    1  UNL1        0.1916
     29 N           3.6243   -0.3505   26.8712 N.ar    1  UNL1       -0.1295
     30 N           2.3625    0.2533   27.4128 N.ar    1  UNL1       -0.1332
     31 C           2.4005    0.1428   28.9082 C.ar    1  UNL1        0.1474
     32 C           1.3395    0.6206   29.8548 C.3     1  UNL1        0.0742
     33 N           3.6857   -0.5292   29.2909 N.ar    1  UNL1       -0.2748
@<TRIPOS>BOND
     1     7     8    1
     2     8     9   ar
     3     9    10   ar
     4    10    11   ar
     5    11    12   ar
     6    12     1    1
     7     1     2    1
     8     2     3    1
     9     3     4    1
    10     4    18    1
    11    18    19    1
    12    19    20    1
    13    20    21   ar
    14    21    22   ar
    15    22    23   ar
    16    23    24   ar
    17    24    25   ar
    18    25    26    1
    19    26    27    1
    20    27    28    1
    21    28    29   ar
    22    29    30   ar
    23    30    31   ar
    24    31    32    1
    25    31    33   ar
    26     4     5    1
    27     5     6    1
    28    12    13   ar
    29    13    14   ar
    30    14    15   ar
    31    15    16   ar
    32    16    17   ar
    33    17     8   ar
    34    16    11   ar
    35     6     1    1
    36    25    20   ar
    37    33    28   ar
    38    33    24    1
@<TRIPOS>MOLECULE
*****
 33 38 0 0 0
SMALL
GASTEIGER

@<TRIPOS>ATOM
      1 N           5.4773   -0.9821   33.9784 N.pl3   1  UNL1       -0.3046
      2 C           6.8806   -0.6581   33.5594 C.3     1  UNL1        0.1081
      3 C           7.6105   -1.5676   32.6158 C.3     1  UNL1        0.0938
      4 N           6.9369   -2.8010   32.0913 N.3     1  UNL1       -0.2695
      5 C           5.5335   -3.1249   32.5104 C.3     1  UNL1        0.0938
      6 C           4.8037   -2.2154   33.4539 C.3     1  UNL1        0.1081
      7 C           0.8074    3.9210   32.7944 C.3     1  UNL1        0.0521
      8 C           1.7924    2.9226   33.3263 C.ar    1  UNL1        0.0593
      9 C           2.5222    2.0132   32.3828 C.ar    1  UNL1        0.0148
     10 C           3.5072    1.0148   32.9147 C.ar    1  UNL1        0.0039
     11 C           3.7624    0.9258   34.3901 C.ar    1  UNL1        0.0310
     12 C           4.7475   -0.0726   34.9219 C.ar    1  UNL1        0.0493
     13 C           5.0027   -0.1616   36.3975 C.ar    1  UNL1        0.0146
     14 C           4.2729    0.7479   37.3410 C.ar    1  UNL1        0.0028
     15 C           3.2879    1.7463   36.8091 C.ar    1  UNL1        0.0192
     16 C           3.0326    1.8353   35.3337 C.ar    1  UNL1        0.0821
     17 N           2.0476    2.8337   34.8018 N.ar    1  UNL1       -0.2496
     18 C           7.6667   -3.7104   31.1478 C.3     1  UNL1        0.0770
     19 C           6.9616   -4.8905   30.5476 C.3     1  UNL1        0.0468
     20 C           7.6358   -5.7057   29.4840 C.ar    1  UNL1        0.0146
     21 C           8.5207   -6.8544   29.8677 C.ar    1  UNL1       -0.0011
     22 C           9.1948   -7.6696   28.8042 C.ar    1  UNL1        0.0014
     23 C           8.9841   -7.3359   27.3570 C.ar    1  UNL1        0.0206
     24 C           8.0993   -6.1871   26.9734 C.ar    1  UNL1        0.0998
     25 C           7.4251   -5.3720   28.0369 C.ar    1  UNL1        0.1512
     26 O           6.5402   -4.2231   27.6532 O.3     1  UNL1       -0.4661
     27 C           6.3295   -3.8894   26.2061 C.3     1  UNL1        0.2707
     28 C           7.0037   -4.7046   25.1426 C.ar    1  UNL1        0.1916
     29 N           6.9847   -4.6139   23.6455 N.ar    1  UNL1       -0.1295
     30 N           7.8578   -5.7067   23.1038 N.ar    1  UNL1       -0.1332
     31 C           8.4165   -6.4727   24.2662 C.ar    1  UNL1        0.1474
     32 C           9.3407   -7.6512   24.1832 C.3     1  UNL1        0.0742
     33 N           7.8885   -5.8534   25.5262 N.ar    1  UNL1       -0.2748
@<TRIPOS>BOND
     1     7     8    1
     2     8     9   ar
     3     9    10   ar
     4    10    11   ar
     5    11    12   ar
     6    12     1    1
     7     1     2    1
     8     2     3    1
     9     3     4    1
    10     4    18    1
    11    18    19    1
    12    19    20    1
    13    20    21   ar
    14    21    22   ar
    15    22    23   ar
    16    23    24   ar
    17    24    25   ar
    18    25    26    1
    19    26    27    1
    20    27    28    1
    21    28    29   ar
    22    29    30   ar
    23    30    31   ar
    24    31    32    1
    25    31    33   ar
    26     4     5    1
    27     5     6    1
    28    12    13   ar
    29    13    14   ar
    30    14    15   ar
    31    15    16   ar
    32    16    17   ar
    33    17     8   ar
    34    16    11   ar
    35     6     1    1
    36    25    20   ar
    37    33    28   ar
    38    33    24    1
@<TRIPOS>MOLECULE
*****
 33 38 0 0 0
SMALL
GASTEIGER

@<TRIPOS>ATOM
      1 N           6.4992   -3.4637   23.5691 N.pl3   1  UNL1       -0.3046
      2 C           5.2258   -3.6595   22.8009 C.3     1  UNL1        0.1081
      3 C           5.2028   -3.4366   21.3177 C.3     1  UNL1        0.0938
      4 N           6.4532   -3.0181   20.6027 N.3     1  UNL1       -0.2695
      5 C           7.7267   -2.8224   21.3709 C.3     1  UNL1        0.0938
      6 C           7.7497   -3.0452   22.8540 C.3     1  UNL1        0.1081
      7 C           8.4382   -8.9220   27.2701 C.3     1  UNL1        0.0521
      8 C           7.9592   -7.6132   26.7156 C.ar    1  UNL1        0.0593
      9 C           7.9362   -7.3904   25.2325 C.ar    1  UNL1        0.0148
     10 C           7.4572   -6.0815   24.6780 C.ar    1  UNL1        0.0039
     11 C           7.0012   -4.9954   25.6067 C.ar    1  UNL1        0.0310
     12 C           6.5222   -3.6866   25.0522 C.ar    1  UNL1        0.0493
     13 C           6.0662   -2.6005   25.9810 C.ar    1  UNL1        0.0146
     14 C           6.0892   -2.8233   27.4641 C.ar    1  UNL1        0.0028
     15 C           6.5682   -4.1322   28.0186 C.ar    1  UNL1        0.0192
     16 C           7.0242   -5.2182   27.0899 C.ar    1  UNL1        0.0821
     17 N           7.5032   -6.5271   27.6444 N.ar    1  UNL1       -0.2496
     18 C           6.4302   -2.7953   19.1195 C.3     1  UNL1        0.0770
     19 C           5.1593   -2.3724   18.4442 C.3     1  UNL1        0.0468
     20 C           4.7968   -0.9187   18.3709 C.ar    1  UNL1        0.0146
     21 C           5.7274    0.0539   17.7092 C.ar    1  UNL1       -0.0011
     22 C           5.3649    1.5075   17.6359 C.ar    1  UNL1        0.0014
     23 C           4.0717    1.9886   18.2243 C.ar    1  UNL1        0.0206
     24 C           3.1410    1.0160   18.8860 C.ar    1  UNL1        0.0998
     25 C           3.5036   -0.4377   18.9593 C.ar    1  UNL1        0.1512
     26 O           2.5729   -1.4103   19.6210 O.3     1  UNL1       -0.4661
     27 C           1.2797   -0.9293   20.2094 C.3     1  UNL1        0.2707
     28 C           0.9172    0.5244   20.1361 C.ar    1  UNL1        0.1916
     29 N          -0.2796    1.2862   20.6234 N.ar    1  UNL1       -0.1295
     30 N          -0.0886    2.7296   20.2629 N.ar    1  UNL1       -0.1332
     31 C           1.2262    2.8599   19.5527 C.ar    1  UNL1        0.1474
     32 C           1.8160    4.1301   19.0153 C.3     1  UNL1        0.0742
     33 N           1.8478    1.4970   19.4744 N.ar    1  UNL1       -0.2748
@<TRIPOS>BOND
     1     7     8    1
     2     8     9   ar
     3     9    10   ar
     4    10    11   ar
     5    11    12   ar
     6    12     1    1
     7     1     2    1
     8     2     3    1
     9     3     4    1
    10     4    18    1
    11    18    19    1
    12    19    20    1
    13    20    21   ar
    14    21    22   ar
    15    22    23   ar
    16    23    24   ar
    17    24    25   ar
    18    25    26    1
    19    26    27    1
    20    27    28    1
    21    28    29   ar
    22    29    30   ar
    23    30    31   ar
    24    31    32    1
    25    31    33   ar
    26     4     5    1
    27     5     6    1
    28    12    13   ar
    29    13    14   ar
    30    14    15   ar
    31    15    16   ar
    32    16    17   ar
    33    17     8   ar
    34    16    11   ar
    35     6     1    1
    36    25    20   ar
    37    33    28   ar
    38    33    24    1
@<TRIPOS>MOLECULE
*****
 33 38 0 0 0
SMALL
GASTEIGER

@<TRIPOS>ATOM
      1 N           4.1785   -1.4965   20.2088 N.pl3   1  UNL1       -0.3046
      2 C           5.5623   -0.9460   20.3873 C.3     1  UNL1        0.1081
      3 C           6.7248   -1.8790   20.5554 C.3     1  UNL1        0.0938
      4 N           6.5033   -3.3625   20.5451 N.3     1  UNL1       -0.2695
      5 C           5.1193   -3.9130   20.3666 C.3     1  UNL1        0.0938
      6 C           3.9570   -2.9800   20.1985 C.3     1  UNL1        0.1081
      7 C           0.2257    1.6532   24.8676 C.3     1  UNL1        0.0521
      8 C           0.9233    1.0991   23.6609 C.ar    1  UNL1        0.0593
      9 C           2.0857    0.1660   23.8290 C.ar    1  UNL1        0.0148
     10 C           2.7833   -0.3881   22.6223 C.ar    1  UNL1        0.0039
     11 C           2.3185   -0.0093   21.2474 C.ar    1  UNL1        0.0310
     12 C           3.0161   -0.5634   20.0406 C.ar    1  UNL1        0.0493
     13 C           2.5513   -0.1845   18.6657 C.ar    1  UNL1        0.0146
     14 C           1.3889    0.7485   18.4975 C.ar    1  UNL1        0.0028
     15 C           0.6913    1.3027   19.7043 C.ar    1  UNL1        0.0192
     16 C           1.1561    0.9238   21.0792 C.ar    1  UNL1        0.0821
     17 N           0.4585    1.4780   22.2859 N.ar    1  UNL1       -0.2496
     18 C           7.6656   -4.2956   20.7133 C.3     1  UNL1        0.0770
     19 C           8.5908   -4.1379   21.8834 C.3     1  UNL1        0.0468
     20 C           8.2365   -4.7482   23.2071 C.ar    1  UNL1        0.0146
     21 C           8.3598   -6.2296   23.4070 C.ar    1  UNL1       -0.0011
     22 C           8.0055   -6.8398   24.7307 C.ar    1  UNL1        0.0014
     23 C           7.5281   -5.9685   25.8545 C.ar    1  UNL1        0.0206
     24 C           7.4048   -4.4870   25.6546 C.ar    1  UNL1        0.0998
     25 C           7.7591   -3.8769   24.3309 C.ar    1  UNL1        0.1512
     26 O           7.6359   -2.3953   24.1309 O.3     1  UNL1       -0.4661
     27 C           7.1584   -1.5240   25.2547 C.3     1  UNL1        0.2707
     28 C           6.8041   -2.1343   26.5785 C.ar    1  UNL1        0.1916
     29 N           6.3094   -1.5331   27.8605 N.ar    1  UNL1       -0.1295
     30 N           6.1268   -2.6430   28.8528 N.ar    1  UNL1       -0.1332
     31 C           6.5088   -3.9302   28.1840 C.ar    1  UNL1        0.1474
     32 C           6.4776   -5.2926   28.8108 C.3     1  UNL1        0.0742
     33 N           6.9274   -3.6157   26.7783 N.ar    1  UNL1       -0.2748
@<TRIPOS>BOND
     1     7     8    1
     2     8     9   ar
     3     9    10   ar
     4    10    11   ar
     5    11    12   ar
     6    12     1    1
     7     1     2    1
     8     2     3    1
     9     3     4    1
    10     4    18    1
    11    18    19    1
    12    19    20    1
    13    20    21   ar
    14    21    22   ar
    15    22    23   ar
    16    23    24   ar
    17    24    25   ar
    18    25    26    1
    19    26    27    1
    20    27    28    1
    21    28    29   ar
    22    29    30   ar
    23    30    31   ar
    24    31    32    1
    25    31    33   ar
    26     4     5    1
    27     5     6    1
    28    12    13   ar
    29    13    14   ar
    30    14    15   ar
    31    15    16   ar
    32    16    17   ar
    33    17     8   ar
    34    16    11   ar
    35     6     1    1
    36    25    20   ar
    37    33    28   ar
    38    33    24    1
