@<TRIPOS>MOLECULE
*****
 24 27 0 0 0
SMALL
GASTEIGER

@<TRIPOS>ATOM
      1 C          -7.9977  -16.7262   22.7883 C.3     1  UNL1        0.0991
      2 C          -6.5892  -15.1390   26.7565 C.ar    1  UNL1       -0.0000
      3 C          -7.9883  -15.6597   26.6109 C.ar    1  UNL1       -0.0003
      4 C          -8.4578  -16.1888   25.2881 C.ar    1  UNL1       -0.0029
      5 C          -7.5282  -16.1971   24.1110 C.ar    1  UNL1       -0.0061
      6 C          -6.1290  -15.6764   24.2566 C.ar    1  UNL1       -0.0029
      7 C          -5.6596  -15.1473   25.5794 C.ar    1  UNL1       -0.0003
      8 N          -8.6063  -15.7956   21.7816 N.3     1  UNL1       -0.2690
      9 C          -9.9721  -15.9242   21.1747 C.3     1  UNL1        0.0724
     10 C         -10.1660  -14.7811   20.2230 C.3     1  UNL1        0.0188
     11 C          -8.9200  -13.9460   20.2416 C.3     1  UNL1        0.0188
     12 C          -7.9561  -14.5730   21.2049 C.3     1  UNL1        0.0724
     13 C          -7.8585  -18.1859   22.4722 C.3     1  UNL1        0.0991
     14 C          -6.5624  -18.7168   21.9354 C.ar    1  UNL1       -0.0061
     15 C          -6.5412  -19.4766   20.6422 C.ar    1  UNL1       -0.0029
     16 C          -5.2451  -20.0075   20.1054 C.ar    1  UNL1       -0.0003
     17 C          -3.9701  -19.7786   20.8618 C.ar    1  UNL1       -0.0000
     18 C          -3.9913  -19.0189   22.1549 C.ar    1  UNL1       -0.0003
     19 C          -5.2874  -18.4880   22.6917 C.ar    1  UNL1       -0.0029
     20 N          -9.0155  -19.1147   22.6930 N.3     1  UNL1       -0.2690
     21 C          -9.3036  -19.8811   23.9498 C.3     1  UNL1        0.0724
     22 C         -10.5536  -20.6802   23.7292 C.3     1  UNL1        0.0188
     23 C         -11.0382  -20.4078   22.3360 C.3     1  UNL1        0.0188
     24 C         -10.0875  -19.4403   21.6956 C.3     1  UNL1        0.0724
@<TRIPOS>BOND
     1     2     3   ar
     2     3     4   ar
     3     4     5   ar
     4     5     1    1
     5     1    13    1
     6    13    14    1
     7    14    15   ar
     8    15    16   ar
     9    16    17   ar
    10    17    18   ar
    11    18    19   ar
    12    13    20    1
    13    20    21    1
    14    21    22    1
    15    22    23    1
    16    23    24    1
    17     1     8    1
    18     8     9    1
    19     9    10    1
    20    10    11    1
    21    11    12    1
    22     5     6   ar
    23     6     7   ar
    24     7     2   ar
    25    19    14   ar
    26    24    20    1
    27    12     8    1
@<TRIPOS>MOLECULE
*****
 24 27 0 0 0
SMALL
GASTEIGER

@<TRIPOS>ATOM
      1 C          -7.8513  -18.1873   22.4683 C.3     1  UNL1        0.0991
      2 C          -3.9562  -19.7809   20.8749 C.ar    1  UNL1       -0.0000
      3 C          -5.2270  -20.0042   20.1100 C.ar    1  UNL1       -0.0003
      4 C          -6.5253  -19.4730   20.6411 C.ar    1  UNL1       -0.0029
      5 C          -6.5529  -18.7185   21.9372 C.ar    1  UNL1       -0.0061
      6 C          -5.2822  -18.4952   22.7021 C.ar    1  UNL1       -0.0029
      7 C          -3.9838  -19.0264   22.1710 C.ar    1  UNL1       -0.0003
      8 N          -9.0097  -19.1156   22.6830 N.3     1  UNL1       -0.2690
      9 C          -9.3027  -19.8847   23.9371 C.3     1  UNL1        0.0724
     10 C         -10.5527  -20.6823   23.7105 C.3     1  UNL1        0.0188
     11 C         -11.0324  -20.4062   22.3163 C.3     1  UNL1        0.0188
     12 C         -10.0788  -19.4379   21.6813 C.3     1  UNL1        0.0724
     13 C          -7.9912  -16.7278   22.7847 C.3     1  UNL1        0.0991
     14 C          -7.5216  -16.1987   24.1075 C.ar    1  UNL1       -0.0061
     15 C          -6.1210  -15.6820   24.2541 C.ar    1  UNL1       -0.0029
     16 C          -5.6515  -15.1530   25.5768 C.ar    1  UNL1       -0.0003
     17 C          -6.5825  -15.1407   26.7529 C.ar    1  UNL1       -0.0000
     18 C          -7.9830  -15.6574   26.6062 C.ar    1  UNL1       -0.0003
     19 C          -8.4526  -16.1864   25.2835 C.ar    1  UNL1       -0.0029
     20 N          -8.6007  -15.7972   21.7784 N.3     1  UNL1       -0.2690
     21 C          -7.9520  -14.5731   21.2032 C.3     1  UNL1        0.0724
     22 C          -8.9163  -13.9468   20.2399 C.3     1  UNL1        0.0188
     23 C         -10.1609  -14.7838   20.2198 C.3     1  UNL1        0.0188
     24 C          -9.9658  -15.9274   21.1706 C.3     1  UNL1        0.0724
@<TRIPOS>BOND
     1     2     3   ar
     2     3     4   ar
     3     4     5   ar
     4     5     1    1
     5     1    13    1
     6    13    14    1
     7    14    15   ar
     8    15    16   ar
     9    16    17   ar
    10    17    18   ar
    11    18    19   ar
    12    13    20    1
    13    20    21    1
    14    21    22    1
    15    22    23    1
    16    23    24    1
    17     1     8    1
    18     8     9    1
    19     9    10    1
    20    10    11    1
    21    11    12    1
    22     5     6   ar
    23     6     7   ar
    24     7     2   ar
    25    19    14   ar
    26    24    20    1
    27    12     8    1
@<TRIPOS>MOLECULE
*****
 24 27 0 0 0
SMALL
GASTEIGER

@<TRIPOS>ATOM
      1 C          -8.0503  -17.3067   22.9628 C.3     1  UNL1        0.0991
      2 C          -8.9681  -19.7136   19.2731 C.ar    1  UNL1       -0.0000
      3 C          -7.6406  -19.8631   19.9551 C.ar    1  UNL1       -0.0003
      4 C          -7.3346  -19.0608   21.1850 C.ar    1  UNL1       -0.0029
      5 C          -8.3562  -18.1090   21.7329 C.ar    1  UNL1       -0.0061
      6 C          -9.6838  -17.9594   21.0510 C.ar    1  UNL1       -0.0029
      7 C          -9.9898  -18.7617   19.8210 C.ar    1  UNL1       -0.0003
      8 N          -6.6628  -16.7847   23.1919 N.3     1  UNL1       -0.2690
      9 C          -5.4125  -17.6096   23.2720 C.3     1  UNL1        0.0724
     10 C          -4.2590  -16.6809   23.5107 C.3     1  UNL1        0.0188
     11 C          -4.7963  -15.2820   23.5781 C.3     1  UNL1        0.0188
     12 C          -6.2820  -15.3462   23.3811 C.3     1  UNL1        0.0724
     13 C          -9.1317  -17.0263   23.9637 C.3     1  UNL1        0.0991
     14 C         -10.5722  -17.1788   23.5740 C.ar    1  UNL1       -0.0061
     15 C         -11.2458  -16.1137   22.7603 C.ar    1  UNL1       -0.0029
     16 C         -12.6862  -16.2661   22.3706 C.ar    1  UNL1       -0.0003
     17 C         -13.4531  -17.4836   22.7945 C.ar    1  UNL1       -0.0000
     18 C         -12.7795  -18.5486   23.6081 C.ar    1  UNL1       -0.0003
     19 C         -11.3391  -18.3962   23.9979 C.ar    1  UNL1       -0.0029
     20 N          -8.7728  -16.5935   25.3544 N.3     1  UNL1       -0.2690
     21 C          -8.4027  -15.2027   25.7771 C.3     1  UNL1        0.0724
     22 C          -8.1222  -15.2252   27.2504 C.3     1  UNL1        0.0188
     23 C          -8.3188  -16.6300   27.7384 C.3     1  UNL1        0.0188
     24 C          -8.7210  -17.4756   26.5665 C.3     1  UNL1        0.0724
@<TRIPOS>BOND
     1     2     3   ar
     2     3     4   ar
     3     4     5   ar
     4     5     1    1
     5     1    13    1
     6    13    14    1
     7    14    15   ar
     8    15    16   ar
     9    16    17   ar
    10    17    18   ar
    11    18    19   ar
    12    13    20    1
    13    20    21    1
    14    21    22    1
    15    22    23    1
    16    23    24    1
    17     1     8    1
    18     8     9    1
    19     9    10    1
    20    10    11    1
    21    11    12    1
    22     5     6   ar
    23     6     7   ar
    24     7     2   ar
    25    19    14   ar
    26    24    20    1
    27    12     8    1
@<TRIPOS>MOLECULE
*****
 24 27 0 0 0
SMALL
GASTEIGER

@<TRIPOS>ATOM
      1 C          -7.2109  -17.7659   22.6897 C.3     1  UNL1        0.0991
      2 C          -4.2483  -19.9876   20.1329 C.ar    1  UNL1       -0.0000
      3 C          -5.5873  -19.6093   19.5727 C.ar    1  UNL1       -0.0003
      4 C          -6.5748  -18.8687   20.4249 C.ar    1  UNL1       -0.0029
      5 C          -6.2234  -18.5065   21.8374 C.ar    1  UNL1       -0.0061
      6 C          -4.8844  -18.8848   22.3977 C.ar    1  UNL1       -0.0029
      7 C          -3.8969  -19.6254   21.5454 C.ar    1  UNL1       -0.0003
      8 N          -6.7397  -16.6835   23.6151 N.3     1  UNL1       -0.2690
      9 C          -7.5948  -15.9092   24.5740 C.3     1  UNL1        0.0724
     10 C          -6.7144  -14.9325   25.2957 C.3     1  UNL1        0.0188
     11 C          -5.3151  -15.1031   24.7828 C.3     1  UNL1        0.0188
     12 C          -5.3308  -16.1853   23.7442 C.3     1  UNL1        0.0724
     13 C          -8.6696  -18.1077   22.6165 C.3     1  UNL1        0.0991
     14 C          -9.5478  -17.4344   21.6039 C.ar    1  UNL1       -0.0061
     15 C         -10.3518  -18.2584   20.6423 C.ar    1  UNL1       -0.0029
     16 C         -11.2300  -17.5851   19.6297 C.ar    1  UNL1       -0.0003
     17 C         -11.3043  -16.0878   19.5787 C.ar    1  UNL1       -0.0000
     18 C         -10.5003  -15.2638   20.5403 C.ar    1  UNL1       -0.0003
     19 C          -9.6220  -15.9371   21.5529 C.ar    1  UNL1       -0.0029
     20 N          -9.2501  -19.1228   23.5560 N.3     1  UNL1       -0.2690
     21 C         -10.2586  -18.8524   24.6329 C.3     1  UNL1        0.0724
     22 C         -10.5558  -20.1490   25.3259 C.3     1  UNL1        0.0188
     23 C          -9.7309  -21.2210   24.6774 C.3     1  UNL1        0.0188
     24 C          -8.9239  -20.5867   23.5835 C.3     1  UNL1        0.0724
@<TRIPOS>BOND
     1     2     3   ar
     2     3     4   ar
     3     4     5   ar
     4     5     1    1
     5     1    13    1
     6    13    14    1
     7    14    15   ar
     8    15    16   ar
     9    16    17   ar
    10    17    18   ar
    11    18    19   ar
    12    13    20    1
    13    20    21    1
    14    21    22    1
    15    22    23    1
    16    23    24    1
    17     1     8    1
    18     8     9    1
    19     9    10    1
    20    10    11    1
    21    11    12    1
    22     5     6   ar
    23     6     7   ar
    24     7     2   ar
    25    19    14   ar
    26    24    20    1
    27    12     8    1
@<TRIPOS>MOLECULE
*****
 24 27 0 0 0
SMALL
GASTEIGER

@<TRIPOS>ATOM
      1 C          -7.0251  -18.5266   22.0374 C.3     1  UNL1        0.0991
      2 C         -11.2426  -19.5569   23.2212 C.ar    1  UNL1       -0.0000
      3 C         -10.9716  -18.3272   22.4061 C.ar    1  UNL1       -0.0003
      4 C          -9.5657  -17.9838   22.0115 C.ar    1  UNL1       -0.0029
      5 C          -8.4310  -18.8701   22.4320 C.ar    1  UNL1       -0.0061
      6 C          -8.7021  -20.0997   23.2471 C.ar    1  UNL1       -0.0029
      7 C         -10.1079  -20.4431   23.6417 C.ar    1  UNL1       -0.0003
      8 N          -6.2896  -17.4351   22.7568 N.3     1  UNL1       -0.2690
      9 C          -6.8560  -16.1044   23.1552 C.3     1  UNL1        0.0724
     10 C          -5.7750  -15.3294   23.8487 C.3     1  UNL1        0.0188
     11 C          -4.5406  -16.1811   23.8790 C.3     1  UNL1        0.0188
     12 C          -4.8586  -17.4825   23.2041 C.3     1  UNL1        0.0724
     13 C          -6.3548  -19.2748   20.9235 C.3     1  UNL1        0.0991
     14 C          -7.1803  -20.0253   19.9209 C.ar    1  UNL1       -0.0061
     15 C          -8.3939  -19.3828   19.3171 C.ar    1  UNL1       -0.0029
     16 C          -9.2194  -20.1334   18.3145 C.ar    1  UNL1       -0.0003
     17 C          -8.8313  -21.5263   17.9156 C.ar    1  UNL1       -0.0000
     18 C          -7.6177  -22.1687   18.5193 C.ar    1  UNL1       -0.0003
     19 C          -6.7922  -21.4182   19.5220 C.ar    1  UNL1       -0.0029
     20 N          -4.8589  -19.2724   20.8122 N.3     1  UNL1       -0.2690
     21 C          -4.0556  -18.5976   19.7401 C.3     1  UNL1        0.0724
     22 C          -2.6040  -18.8526   20.0187 C.3     1  UNL1        0.0188
     23 C          -2.5100  -19.6850   21.2630 C.3     1  UNL1        0.0188
     24 C          -3.9036  -19.9445   21.7534 C.3     1  UNL1        0.0724
@<TRIPOS>BOND
     1     2     3   ar
     2     3     4   ar
     3     4     5   ar
     4     5     1    1
     5     1    13    1
     6    13    14    1
     7    14    15   ar
     8    15    16   ar
     9    16    17   ar
    10    17    18   ar
    11    18    19   ar
    12    13    20    1
    13    20    21    1
    14    21    22    1
    15    22    23    1
    16    23    24    1
    17     1     8    1
    18     8     9    1
    19     9    10    1
    20    10    11    1
    21    11    12    1
    22     5     6   ar
    23     6     7   ar
    24     7     2   ar
    25    19    14   ar
    26    24    20    1
    27    12     8    1
@<TRIPOS>MOLECULE
*****
 24 27 0 0 0
SMALL
GASTEIGER

@<TRIPOS>ATOM
      1 C           4.4878   -0.8977   19.2491 C.3     1  UNL1        0.0991
      2 C           7.8023    1.2326   17.0752 C.ar    1  UNL1       -0.0000
      3 C           7.9814    0.8340   18.5101 C.ar    1  UNL1       -0.0003
      4 C           6.8765    0.1239   19.2347 C.ar    1  UNL1       -0.0029
      5 C           5.5927   -0.1876   18.5244 C.ar    1  UNL1       -0.0061
      6 C           5.4136    0.2110   17.0895 C.ar    1  UNL1       -0.0029
      7 C           6.5185    0.9211   16.3649 C.ar    1  UNL1       -0.0003
      8 N           4.3444   -2.3856   19.1248 N.3     1  UNL1       -0.2690
      9 C           3.1119   -3.1818   19.4367 C.3     1  UNL1        0.0724
     10 C           3.4141   -4.6269   19.1716 C.3     1  UNL1        0.0188
     11 C           4.8334   -4.7240   18.6958 C.3     1  UNL1        0.0188
     12 C           5.4083   -3.3388   18.6669 C.3     1  UNL1        0.0724
     13 C           3.5264   -0.1199   20.0979 C.3     1  UNL1        0.0991
     14 C           3.4946   -0.3329   21.5824 C.ar    1  UNL1       -0.0061
     15 C           2.3863    0.2596   22.4015 C.ar    1  UNL1       -0.0029
     16 C           2.3545    0.0466   23.8859 C.ar    1  UNL1       -0.0003
     17 C           3.4310   -0.7587   24.5513 C.ar    1  UNL1       -0.0000
     18 C           4.5392   -1.3511   23.7322 C.ar    1  UNL1       -0.0003
     19 C           4.5710   -1.1381   22.2477 C.ar    1  UNL1       -0.0029
     20 N           2.5966    0.8709   19.4623 N.3     1  UNL1       -0.2690
     21 C           2.8457    2.3423   19.3107 C.3     1  UNL1        0.0724
     22 C           1.6576    2.9450   18.6214 C.3     1  UNL1        0.0188
     23 C           0.6742    1.8460   18.3469 C.3     1  UNL1        0.0188
     24 C           1.2545    0.5642   18.8666 C.3     1  UNL1        0.0724
@<TRIPOS>BOND
     1     2     3   ar
     2     3     4   ar
     3     4     5   ar
     4     5     1    1
     5     1    13    1
     6    13    14    1
     7    14    15   ar
     8    15    16   ar
     9    16    17   ar
    10    17    18   ar
    11    18    19   ar
    12    13    20    1
    13    20    21    1
    14    21    22    1
    15    22    23    1
    16    23    24    1
    17     1     8    1
    18     8     9    1
    19     9    10    1
    20    10    11    1
    21    11    12    1
    22     5     6   ar
    23     6     7   ar
    24     7     2   ar
    25    19    14   ar
    26    24    20    1
    27    12     8    1
@<TRIPOS>MOLECULE
*****
 24 27 0 0 0
SMALL
GASTEIGER

@<TRIPOS>ATOM
      1 C           3.5327   -0.1201   20.1040 C.3     1  UNL1        0.0991
      2 C           3.4392   -0.7544   24.5581 C.ar    1  UNL1       -0.0000
      3 C           4.5371   -1.3628   23.7368 C.ar    1  UNL1       -0.0003
      4 C           4.5682   -1.1513   22.2521 C.ar    1  UNL1       -0.0029
      5 C           3.5016   -0.3316   21.5887 C.ar    1  UNL1       -0.0061
      6 C           2.4037    0.2768   22.4100 C.ar    1  UNL1       -0.0029
      7 C           2.3725    0.0653   23.8947 C.ar    1  UNL1       -0.0003
      8 N           2.5989    0.8658   19.4671 N.3     1  UNL1       -0.2690
      9 C           1.2554    0.5537   18.8774 C.3     1  UNL1        0.0724
     10 C           0.6706    1.8319   18.3538 C.3     1  UNL1        0.0188
     11 C           1.6527    2.9342   18.6200 C.3     1  UNL1        0.0188
     12 C           2.8444    2.3370   19.3080 C.3     1  UNL1        0.0724
     13 C           4.4978   -0.8946   19.2563 C.3     1  UNL1        0.0991
     14 C           5.6055   -0.1817   18.5388 C.ar    1  UNL1       -0.0061
     15 C           5.4414    0.2011   17.0978 C.ar    1  UNL1       -0.0029
     16 C           6.5491    0.9141   16.3803 C.ar    1  UNL1       -0.0003
     17 C           7.8209    1.2443   17.1040 C.ar    1  UNL1       -0.0000
     18 C           7.9849    0.8615   18.5450 C.ar    1  UNL1       -0.0003
     19 C           6.8772    0.1485   19.2624 C.ar    1  UNL1       -0.0029
     20 N           4.3552   -2.3822   19.1259 N.3     1  UNL1       -0.2690
     21 C           5.4245   -3.3347   18.6794 C.3     1  UNL1        0.0724
     22 C           4.8484   -4.7195   18.6967 C.3     1  UNL1        0.0188
     23 C           3.4230   -4.6229   19.1539 C.3     1  UNL1        0.0188
     24 C           3.1182   -3.1784   19.4191 C.3     1  UNL1        0.0724
@<TRIPOS>BOND
     1     2     3   ar
     2     3     4   ar
     3     4     5   ar
     4     5     1    1
     5     1    13    1
     6    13    14    1
     7    14    15   ar
     8    15    16   ar
     9    16    17   ar
    10    17    18   ar
    11    18    19   ar
    12    13    20    1
    13    20    21    1
    14    21    22    1
    15    22    23    1
    16    23    24    1
    17     1     8    1
    18     8     9    1
    19     9    10    1
    20    10    11    1
    21    11    12    1
    22     5     6   ar
    23     6     7   ar
    24     7     2   ar
    25    19    14   ar
    26    24    20    1
    27    12     8    1
@<TRIPOS>MOLECULE
*****
 24 27 0 0 0
SMALL
GASTEIGER

@<TRIPOS>ATOM
      1 C           3.6145   -0.0406   20.1259 C.3     1  UNL1        0.0991
      2 C           1.0854    3.2324   18.3535 C.ar    1  UNL1       -0.0000
      3 C           0.5886    1.8171   18.3530 C.ar    1  UNL1       -0.0003
      4 C           1.4316    0.7261   18.9438 C.ar    1  UNL1       -0.0029
      5 C           2.7715    1.0504   19.5351 C.ar    1  UNL1       -0.0061
      6 C           3.2683    2.4657   19.5355 C.ar    1  UNL1       -0.0029
      7 C           2.4252    3.5567   18.9447 C.ar    1  UNL1       -0.0003
      8 N           3.5244   -0.3478   21.5913 N.3     1  UNL1       -0.2690
      9 C           4.4374   -1.2570   22.3594 C.3     1  UNL1        0.0724
     10 C           3.9827   -1.2710   23.7887 C.3     1  UNL1        0.0188
     11 C           2.7886   -0.3705   23.9041 C.3     1  UNL1        0.0188
     12 C           2.5053    0.2000   22.5460 C.3     1  UNL1        0.0724
     13 C           4.5477   -0.8243   19.2513 C.3     1  UNL1        0.0991
     14 C           5.6480   -0.1234   18.5111 C.ar    1  UNL1       -0.0061
     15 C           6.9243    0.2250   19.2182 C.ar    1  UNL1       -0.0029
     16 C           8.0246    0.9258   18.4779 C.ar    1  UNL1       -0.0003
     17 C           7.8487    1.2783   17.0305 C.ar    1  UNL1       -0.0000
     18 C           6.5726    0.9299   16.3234 C.ar    1  UNL1       -0.0003
     19 C           5.4722    0.2291   17.0637 C.ar    1  UNL1       -0.0029
     20 N           4.3805   -2.3089   19.1170 N.3     1  UNL1       -0.2690
     21 C           3.1371   -3.0879   19.4284 C.3     1  UNL1        0.0724
     22 C           3.4156   -4.5356   19.1515 C.3     1  UNL1        0.0188
     23 C           4.8312   -4.6513   18.6690 C.3     1  UNL1        0.0188
     24 C           5.4275   -3.2752   18.6477 C.3     1  UNL1        0.0724
@<TRIPOS>BOND
     1     2     3   ar
     2     3     4   ar
     3     4     5   ar
     4     5     1    1
     5     1    13    1
     6    13    14    1
     7    14    15   ar
     8    15    16   ar
     9    16    17   ar
    10    17    18   ar
    11    18    19   ar
    12    13    20    1
    13    20    21    1
    14    21    22    1
    15    22    23    1
    16    23    24    1
    17     1     8    1
    18     8     9    1
    19     9    10    1
    20    10    11    1
    21    11    12    1
    22     5     6   ar
    23     6     7   ar
    24     7     2   ar
    25    19    14   ar
    26    24    20    1
    27    12     8    1
@<TRIPOS>MOLECULE
*****
 24 27 0 0 0
SMALL
GASTEIGER

@<TRIPOS>ATOM
      1 C           4.5610   -0.7833   19.2558 C.3     1  UNL1        0.0991
      2 C           7.8478    1.3141   17.0090 C.ar    1  UNL1       -0.0000
      3 C           8.0230    0.9873   18.4624 C.ar    1  UNL1       -0.0003
      4 C           6.9274    0.2882   19.2114 C.ar    1  UNL1       -0.0029
      5 C           5.6566   -0.0842   18.5069 C.ar    1  UNL1       -0.0061
      6 C           5.4814    0.2426   17.0535 C.ar    1  UNL1       -0.0029
      7 C           6.5770    0.9417   16.3045 C.ar    1  UNL1       -0.0003
      8 N           4.3936   -2.2683   19.1268 N.3     1  UNL1       -0.2690
      9 C           3.1575   -3.0488   19.4630 C.3     1  UNL1        0.0724
     10 C           3.4328   -4.4964   19.1830 C.3     1  UNL1        0.0188
     11 C           4.8391   -4.6108   18.6737 C.3     1  UNL1        0.0188
     12 C           5.4329   -3.2337   18.6390 C.3     1  UNL1        0.0724
     13 C           3.6328    0.0026   20.1338 C.3     1  UNL1        0.0991
     14 C           2.7875    1.0931   19.5453 C.ar    1  UNL1       -0.0061
     15 C           1.4627    0.7625   18.9241 C.ar    1  UNL1       -0.0029
     16 C           0.6173    1.8530   18.3357 C.ar    1  UNL1       -0.0003
     17 C           1.0967    3.2740   18.3684 C.ar    1  UNL1       -0.0000
     18 C           2.4215    3.6044   18.9896 C.ar    1  UNL1       -0.0003
     19 C           3.2668    2.5140   19.5780 C.ar    1  UNL1       -0.0029
     20 N           3.5499   -0.3020   21.6002 N.3     1  UNL1       -0.2690
     21 C           2.4736    0.1601   22.5373 C.3     1  UNL1        0.0724
     22 C           2.7874   -0.3744   23.9032 C.3     1  UNL1        0.0188
     23 C           4.0576   -1.1669   23.8104 C.3     1  UNL1        0.0188
     24 C           4.5289   -1.1221   22.3871 C.3     1  UNL1        0.0724
@<TRIPOS>BOND
     1     2     3   ar
     2     3     4   ar
     3     4     5   ar
     4     5     1    1
     5     1    13    1
     6    13    14    1
     7    14    15   ar
     8    15    16   ar
     9    16    17   ar
    10    17    18   ar
    11    18    19   ar
    12    13    20    1
    13    20    21    1
    14    21    22    1
    15    22    23    1
    16    23    24    1
    17     1     8    1
    18     8     9    1
    19     9    10    1
    20    10    11    1
    21    11    12    1
    22     5     6   ar
    23     6     7   ar
    24     7     2   ar
    25    19    14   ar
    26    24    20    1
    27    12     8    1
