@<TRIPOS>MOLECULE
*****
 27 29 0 0 0
SMALL
GASTEIGER

@<TRIPOS>ATOM
      1 C         -10.6802  -18.2085   23.7119 C.3     1  UNL1        0.0047
      2 C         -10.0307  -16.8605   23.8152 C.3     1  UNL1        0.0050
      3 C          -8.5958  -16.6866   23.4139 C.3     1  UNL1        0.0260
      4 C          -7.8105  -17.8608   22.9094 C.ar    1  UNL1       -0.0264
      5 C          -6.3757  -17.6869   22.5081 C.ar    1  UNL1       -0.0089
      6 C          -5.5904  -18.8610   22.0036 C.ar    1  UNL1       -0.0228
      7 C          -6.2400  -20.2092   21.9003 C.ar    1  UNL1       -0.0046
      8 C          -7.6748  -20.3831   22.3016 C.ar    1  UNL1       -0.0049
      9 C          -8.4601  -19.2088   22.8061 C.ar    1  UNL1       -0.0262
     10 C          -9.8949  -19.3827   23.2074 C.3     1  UNL1        0.0260
     11 C          -4.1556  -18.6871   21.6023 C.3     1  UNL1        0.0237
     12 C          -3.0049  -18.4339   22.5307 C.3     1  UNL1        0.0058
     13 C          -1.7577  -18.3262   21.7044 C.3     1  UNL1        0.0170
     14 C          -2.1375  -18.5129   20.2653 C.3     1  UNL1        0.0666
     15 N          -2.2108  -18.6593   18.7742 N.3     1  UNL1       -0.3212
     16 C          -3.6195  -18.7359   20.2022 C.3     1  UNL1        0.0210
     17 H          -1.2770  -18.5586   18.3764 H       1  UNL1        0.1188
     18 H          -2.8230  -17.9388   18.3915 H       1  UNL1        0.1188
     19 C          -0.6709  -18.3204   20.0167 C.3     1  UNL1        0.1511
     20 O          -0.1934  -17.8459   18.6761 O.3     1  UNL1       -0.3806
     21 H          -0.3841  -18.5219   18.0071 H       1  UNL1        0.2105
     22 C         -12.1150  -18.3824   24.1132 C.3     1  UNL1        0.0003
     23 C         -13.2068  -17.8010   23.2648 C.3     1  UNL1        0.0000
     24 C         -13.0919  -17.8321   21.7695 C.3     1  UNL1        0.0000
     25 C         -12.4780  -16.6739   21.0403 C.3     1  UNL1        0.0000
     26 C         -10.8184  -18.2533   19.8151 C.3     1  UNL1        0.0000
     27 C         -11.2295  -16.8726   20.2330 C.3     1  UNL1        0.0000
@<TRIPOS>BOND
     1    26    27    1
     2    27    25    1
     3    25    24    1
     4    24    23    1
     5    23    22    1
     6     1    22    1
     7     1     2    1
     8     2     3    1
     9     3     4    1
    10     4     5   ar
    11     5     6   ar
    12    11     6    1
    13    11    12    1
    14    12    13    1
    15    13    14    1
    16    14    15    1
    17    14    19    1
    18    19    20    1
    19    14    16    1
    20     6     7   ar
    21     7     8   ar
    22     8     9   ar
    23     9    10    1
    24    10     1    1
    25     9     4   ar
    26    16    11    1
    27    15    17    1
    28    15    18    1
    29    20    21    1
@<TRIPOS>MOLECULE
*****
 27 29 0 0 0
SMALL
GASTEIGER

@<TRIPOS>ATOM
      1 C          -4.5002  -19.4068   20.2932 C.3     1  UNL1        0.0047
      2 C          -4.5467  -19.0024   21.7369 C.3     1  UNL1        0.0050
      3 C          -5.8664  -18.7418   22.4006 C.3     1  UNL1        0.0260
      4 C          -7.1395  -18.8856   21.6207 C.ar    1  UNL1       -0.0264
      5 C          -8.4592  -18.6250   22.2844 C.ar    1  UNL1       -0.0089
      6 C          -9.7323  -18.7688   21.5045 C.ar    1  UNL1       -0.0228
      7 C          -9.6859  -19.1732   20.0607 C.ar    1  UNL1       -0.0046
      8 C          -8.3662  -19.4338   19.3970 C.ar    1  UNL1       -0.0049
      9 C          -7.0930  -19.2900   20.1770 C.ar    1  UNL1       -0.0262
     10 C          -5.7733  -19.5506   19.5133 C.3     1  UNL1        0.0260
     11 C         -11.0520  -18.5082   22.1682 C.3     1  UNL1        0.0237
     12 C         -12.2599  -17.8993   21.5201 C.3     1  UNL1        0.0058
     13 C         -13.3500  -17.8255   22.5479 C.3     1  UNL1        0.0170
     14 C         -12.8157  -18.3889   23.8313 C.3     1  UNL1        0.0666
     15 N         -12.5674  -18.8858   25.2247 N.3     1  UNL1       -0.3212
     16 C         -11.3955  -18.8109   23.5967 C.3     1  UNL1        0.0210
     17 H         -13.4099  -18.7600   25.7857 H       1  UNL1        0.1188
     18 H         -11.7996  -18.3596   25.6416 H       1  UNL1        0.1188
     19 C         -14.1839  -18.0709   24.3572 C.3     1  UNL1        0.1511
     20 O         -14.5912  -18.5423   25.7218 O.3     1  UNL1       -0.3806
     21 H         -14.6356  -19.5113   25.7292 H       1  UNL1        0.2105
     22 C          -3.1805  -19.6673   19.6295 C.3     1  UNL1        0.0003
     23 C          -2.4436  -18.5458   18.9594 C.3     1  UNL1        0.0000
     24 C          -1.0330  -18.2301   19.3601 C.3     1  UNL1        0.0000
     25 C          -0.7689  -17.3687   20.5594 C.3     1  UNL1        0.0000
     26 C          -2.4243  -16.5578   22.3903 C.3     1  UNL1        0.0000
     27 C          -1.8117  -16.3988   21.0304 C.3     1  UNL1        0.0000
@<TRIPOS>BOND
     1    26    27    1
     2    27    25    1
     3    25    24    1
     4    24    23    1
     5    23    22    1
     6     1    22    1
     7     1     2    1
     8     2     3    1
     9     3     4    1
    10     4     5   ar
    11     5     6   ar
    12    11     6    1
    13    11    12    1
    14    12    13    1
    15    13    14    1
    16    14    15    1
    17    14    19    1
    18    19    20    1
    19    14    16    1
    20     6     7   ar
    21     7     8   ar
    22     8     9   ar
    23     9    10    1
    24    10     1    1
    25     9     4   ar
    26    16    11    1
    27    15    17    1
    28    15    18    1
    29    20    21    1
@<TRIPOS>MOLECULE
*****
 27 29 0 0 0
SMALL
GASTEIGER

@<TRIPOS>ATOM
      1 C         -11.1271  -18.8212   23.9413 C.3     1  UNL1        0.0047
      2 C         -10.8498  -20.0914   23.1931 C.3     1  UNL1        0.0050
      3 C          -9.5078  -20.3114   22.5603 C.3     1  UNL1        0.0260
      4 C          -8.4430  -19.2612   22.6757 C.ar    1  UNL1       -0.0264
      5 C          -7.1009  -19.4812   22.0430 C.ar    1  UNL1       -0.0089
      6 C          -6.0361  -18.4311   22.1584 C.ar    1  UNL1       -0.0228
      7 C          -6.3133  -17.1609   22.9066 C.ar    1  UNL1       -0.0046
      8 C          -7.6554  -16.9409   23.5394 C.ar    1  UNL1       -0.0049
      9 C          -8.7202  -17.9911   23.4239 C.ar    1  UNL1       -0.0262
     10 C         -10.0623  -17.7711   24.0567 C.3     1  UNL1        0.0260
     11 C          -4.6940  -18.6511   21.5256 C.3     1  UNL1        0.0237
     12 C          -4.4470  -19.1572   20.1354 C.3     1  UNL1        0.0058
     13 C          -2.9636  -19.2225   19.9225 C.3     1  UNL1        0.0170
     14 C          -2.2938  -18.7567   21.1812 C.3     1  UNL1        0.0666
     15 N          -1.3596  -18.3468   22.2810 N.3     1  UNL1       -0.3212
     16 C          -3.3632  -18.4035   22.1721 C.3     1  UNL1        0.0210
     17 H          -0.3955  -18.4539   21.9657 H       1  UNL1        0.1188
     18 H          -1.5174  -18.9360   23.0985 H       1  UNL1        0.1188
     19 C          -1.0291  -19.0242   20.4204 C.3     1  UNL1        0.1511
     20 O           0.1799  -18.1664   20.6499 O.3     1  UNL1       -0.3806
     21 H          -0.0029  -17.2627   20.3485 H       1  UNL1        0.2105
     22 C         -12.4692  -18.6012   24.5740 C.3     1  UNL1        0.0003
     23 C         -13.5441  -17.8759   23.8200 C.3     1  UNL1        0.0000
     24 C         -13.3860  -17.6178   22.3509 C.3     1  UNL1        0.0000
     25 C         -12.6370  -16.4070   21.8785 C.3     1  UNL1        0.0000
     26 C         -11.2777  -17.8844   20.2294 C.3     1  UNL1        0.0000
     27 C         -11.5403  -16.5516   20.8653 C.3     1  UNL1        0.0000
@<TRIPOS>BOND
     1    26    27    1
     2    27    25    1
     3    25    24    1
     4    24    23    1
     5    23    22    1
     6     1    22    1
     7     1     2    1
     8     2     3    1
     9     3     4    1
    10     4     5   ar
    11     5     6   ar
    12    11     6    1
    13    11    12    1
    14    12    13    1
    15    13    14    1
    16    14    15    1
    17    14    19    1
    18    19    20    1
    19    14    16    1
    20     6     7   ar
    21     7     8   ar
    22     8     9   ar
    23     9    10    1
    24    10     1    1
    25     9     4   ar
    26    16    11    1
    27    15    17    1
    28    15    18    1
    29    20    21    1
@<TRIPOS>MOLECULE
*****
 27 29 0 0 0
SMALL
GASTEIGER

@<TRIPOS>ATOM
      1 C         -10.3590  -19.4287   20.8256 C.3     1  UNL1        0.0047
      2 C          -9.8516  -19.7080   19.4420 C.3     1  UNL1        0.0050
      3 C          -8.3819  -19.6306   19.1522 C.3     1  UNL1        0.0260
      4 C          -7.4195  -19.2739   20.2461 C.ar    1  UNL1       -0.0264
      5 C          -5.9498  -19.1966   19.9563 C.ar    1  UNL1       -0.0089
      6 C          -4.9875  -18.8399   21.0502 C.ar    1  UNL1       -0.0228
      7 C          -5.4948  -18.5606   22.4339 C.ar    1  UNL1       -0.0046
      8 C          -6.9645  -18.6379   22.7237 C.ar    1  UNL1       -0.0049
      9 C          -7.9269  -18.9946   21.6297 C.ar    1  UNL1       -0.0262
     10 C          -9.3966  -19.0720   21.9195 C.3     1  UNL1        0.0260
     11 C          -3.5178  -18.7625   20.7604 C.3     1  UNL1        0.0237
     12 C          -2.4144  -19.2089   21.6732 C.3     1  UNL1        0.0058
     13 C          -1.1081  -18.9475   20.9839 C.3     1  UNL1        0.0170
     14 C          -1.4041  -18.3395   19.6450 C.3     1  UNL1        0.0666
     15 N          -1.3881  -17.7286   18.2750 N.3     1  UNL1       -0.3212
     16 C          -2.8934  -18.2251   19.5068 C.3     1  UNL1        0.0210
     17 H          -0.4234  -17.6227   17.9612 H       1  UNL1        0.1188
     18 H          -1.8382  -16.8138   18.3054 H       1  UNL1        0.1188
     19 C           0.0884  -18.3261   19.4968 C.3     1  UNL1        0.1511
     20 O           0.9425  -17.7061   20.5629 O.3     1  UNL1       -0.3806
     21 H           0.7742  -16.7515   20.5975 H       1  UNL1        0.2105
     22 C         -11.8287  -19.5060   21.1154 C.3     1  UNL1        0.0003
     23 C         -12.4067  -18.7427   22.2700 C.3     1  UNL1        0.0000
     24 C         -12.9125  -17.3452   22.0671 C.3     1  UNL1        0.0000
     25 C         -11.9670  -16.1844   22.1602 C.3     1  UNL1        0.0000
     26 C         -11.4936  -16.0211   19.6108 C.3     1  UNL1        0.0000
     27 C         -11.0252  -15.8918   21.0299 C.3     1  UNL1        0.0000
@<TRIPOS>BOND
     1    26    27    1
     2    27    25    1
     3    25    24    1
     4    24    23    1
     5    23    22    1
     6     1    22    1
     7     1     2    1
     8     2     3    1
     9     3     4    1
    10     4     5   ar
    11     5     6   ar
    12    11     6    1
    13    11    12    1
    14    12    13    1
    15    13    14    1
    16    14    15    1
    17    14    19    1
    18    19    20    1
    19    14    16    1
    20     6     7   ar
    21     7     8   ar
    22     8     9   ar
    23     9    10    1
    24    10     1    1
    25     9     4   ar
    26    16    11    1
    27    15    17    1
    28    15    18    1
    29    20    21    1
@<TRIPOS>MOLECULE
*****
 27 29 0 0 0
SMALL
GASTEIGER

@<TRIPOS>ATOM
      1 C          -4.0170  -17.1431   23.0004 C.3     1  UNL1        0.0047
      2 C          -4.6590  -15.9892   23.7119 C.3     1  UNL1        0.0050
      3 C          -6.1494  -15.9441   23.8753 C.3     1  UNL1        0.0260
      4 C          -6.9978  -17.0529   23.3271 C.ar    1  UNL1       -0.0264
      5 C          -8.4882  -17.0078   23.4905 C.ar    1  UNL1       -0.0089
      6 C          -9.3367  -18.1167   22.9424 C.ar    1  UNL1       -0.0228
      7 C          -8.6948  -19.2707   22.2308 C.ar    1  UNL1       -0.0046
      8 C          -7.2044  -19.3158   22.0674 C.ar    1  UNL1       -0.0049
      9 C          -6.3559  -18.2069   22.6156 C.ar    1  UNL1       -0.0262
     10 C          -4.8655  -18.2520   22.4523 C.3     1  UNL1        0.0260
     11 C         -10.8271  -18.0715   23.1057 C.3     1  UNL1        0.0237
     12 C         -11.8158  -17.6422   22.0626 C.3     1  UNL1        0.0058
     13 C         -13.1903  -17.7531   22.6531 C.3     1  UNL1        0.0170
     14 C         -13.0510  -18.2511   24.0611 C.3     1  UNL1        0.0666
     15 N         -13.2246  -18.7288   25.4725 N.3     1  UNL1       -0.3212
     16 C         -11.5905  -18.4479   24.3410 C.3     1  UNL1        0.0210
     17 H         -14.2171  -18.7425   25.7072 H       1  UNL1        0.1188
     18 H         -12.7337  -18.0992   26.1073 H       1  UNL1        0.1188
     19 C         -14.5477  -18.1542   24.0764 C.3     1  UNL1        0.1511
     20 O         -15.3309  -18.8145   25.1723 O.3     1  UNL1       -0.3806
     21 H         -15.2312  -19.7771   25.1061 H       1  UNL1        0.2105
     22 C          -2.5266  -17.1883   22.8370 C.3     1  UNL1        0.0003
     23 C          -1.8684  -16.4056   21.7398 C.3     1  UNL1        0.0000
     24 C          -1.3804  -17.1069   20.5069 C.3     1  UNL1        0.0000
     25 C          -2.3441  -17.4558   19.4115 C.3     1  UNL1        0.0000
     26 C          -3.7024  -19.6614   19.6125 C.3     1  UNL1        0.0000
     27 C          -2.5562  -18.8904   19.0280 C.3     1  UNL1        0.0000
@<TRIPOS>BOND
     1    26    27    1
     2    27    25    1
     3    25    24    1
     4    24    23    1
     5    23    22    1
     6     1    22    1
     7     1     2    1
     8     2     3    1
     9     3     4    1
    10     4     5   ar
    11     5     6   ar
    12    11     6    1
    13    11    12    1
    14    12    13    1
    15    13    14    1
    16    14    15    1
    17    14    19    1
    18    19    20    1
    19    14    16    1
    20     6     7   ar
    21     7     8   ar
    22     8     9   ar
    23     9    10    1
    24    10     1    1
    25     9     4   ar
    26    16    11    1
    27    15    17    1
    28    15    18    1
    29    20    21    1
@<TRIPOS>MOLECULE
*****
 27 29 0 0 0
SMALL
GASTEIGER

@<TRIPOS>ATOM
      1 C         -11.0550  -17.6215   21.8070 C.3     1  UNL1        0.0047
      2 C         -10.7436  -18.5577   20.6773 C.3     1  UNL1        0.0050
      3 C          -9.3211  -18.9328   20.3844 C.3     1  UNL1        0.0260
      4 C          -8.2100  -18.3716   21.2213 C.ar    1  UNL1       -0.0264
      5 C          -6.7874  -18.7466   20.9284 C.ar    1  UNL1       -0.0089
      6 C          -5.6763  -18.1854   21.7653 C.ar    1  UNL1       -0.0228
      7 C          -5.9877  -17.2491   22.8951 C.ar    1  UNL1       -0.0046
      8 C          -7.4102  -16.8741   23.1880 C.ar    1  UNL1       -0.0049
      9 C          -8.5214  -17.4353   22.3510 C.ar    1  UNL1       -0.0262
     10 C          -9.9439  -17.0603   22.6439 C.3     1  UNL1        0.0260
     11 C          -4.2538  -18.5605   21.4724 C.3     1  UNL1        0.0237
     12 C          -3.5014  -19.7072   22.0797 C.3     1  UNL1        0.0058
     13 C          -2.1165  -19.7101   21.5034 C.3     1  UNL1        0.0170
     14 C          -2.0130  -18.5652   20.5399 C.3     1  UNL1        0.0666
     15 N          -1.6161  -17.5232   19.5364 N.3     1  UNL1       -0.3212
     16 C          -3.3339  -17.8546   20.5206 C.3     1  UNL1        0.0210
     17 H          -0.6479  -17.6748   19.2537 H       1  UNL1        0.1188
     18 H          -1.7074  -16.5970   19.9538 H       1  UNL1        0.1188
     19 C          -0.6092  -19.0578   20.3493 C.3     1  UNL1        0.1511
     20 O           0.5403  -18.0976   20.4318 O.3     1  UNL1       -0.3806
     21 H           0.4883  -17.4671   19.6965 H       1  UNL1        0.2105
     22 C         -12.4775  -17.2464   22.0999 C.3     1  UNL1        0.0003
     23 C         -13.3241  -18.1329   22.9644 C.3     1  UNL1        0.0000
     24 C         -13.0153  -18.2718   24.4257 C.3     1  UNL1        0.0000
     25 C         -11.7444  -18.9376   24.8637 C.3     1  UNL1        0.0000
     26 C          -9.7173  -20.4299   24.2205 C.3     1  UNL1        0.0000
     27 C         -11.1560  -20.0453   24.0411 C.3     1  UNL1        0.0000
@<TRIPOS>BOND
     1    26    27    1
     2    27    25    1
     3    25    24    1
     4    24    23    1
     5    23    22    1
     6     1    22    1
     7     1     2    1
     8     2     3    1
     9     3     4    1
    10     4     5   ar
    11     5     6   ar
    12    11     6    1
    13    11    12    1
    14    12    13    1
    15    13    14    1
    16    14    15    1
    17    14    19    1
    18    19    20    1
    19    14    16    1
    20     6     7   ar
    21     7     8   ar
    22     8     9   ar
    23     9    10    1
    24    10     1    1
    25     9     4   ar
    26    16    11    1
    27    15    17    1
    28    15    18    1
    29    20    21    1
