@<TRIPOS>MOLECULE
*****
 23 23 0 0 0
SMALL
GASTEIGER

@<TRIPOS>ATOM
      1 C         -10.2670  -19.6903   22.2240 C.ar    1  UNL1        0.1382
      2 C         -11.0225  -19.8587   20.9392 C.ar    1  UNL1        0.0369
      3 C         -10.3147  -19.6985   19.6264 C.ar    1  UNL1        0.0028
      4 C          -8.8515  -19.3699   19.5985 C.ar    1  UNL1       -0.0040
      5 C          -8.0960  -19.2014   20.8833 C.ar    1  UNL1       -0.0178
      6 C          -8.8037  -19.3616   22.1961 C.ar    1  UNL1        0.0327
      7 O         -10.9748  -19.8505   23.5368 O.3     1  UNL1       -0.4755
      8 C         -11.5848  -18.6572   24.2105 C.3     1  UNL1        0.2054
      9 C         -12.8210  -18.0256   23.6422 C.3     1  UNL1        0.0473
     10 C         -12.7037  -16.9419   22.6118 C.3     1  UNL1        0.0038
     11 C         -11.4116  -16.1973   22.4503 C.3     1  UNL1        0.0001
     12 C         -11.5819  -16.1707   19.8580 C.3     1  UNL1        0.0000
     13 C         -10.7507  -16.1248   21.1058 C.3     1  UNL1        0.0000
     14 C          -6.6327  -18.8727   20.8554 C.3     1  UNL1        0.0435
     15 C          -5.8105  -19.0041   22.1030 C.3     1  UNL1        0.0737
     16 N          -5.1655  -17.7921   22.7074 N.3     1  UNL1       -0.2895
     17 H          -5.6357  -17.6206   23.5962 H       1  UNL1        0.1237
     18 C          -3.6923  -17.7883   22.9891 C.3     1  UNL1        0.1552
     19 C          -2.7340  -17.2593   21.9636 C.2     1  UNL1        0.2419
     20 O          -2.5228  -15.7805   21.8268 O.2     1  UNL1       -0.2734
     21 N          -1.9868  -18.2089   21.0748 N.am    1  UNL1       -0.2749
     22 C          -1.0285  -17.6799   20.0492 C.3     1  UNL1        0.1149
     23 C          -2.1980  -19.6877   21.2115 C.3     1  UNL1        0.1149
@<TRIPOS>BOND
     1    12    13    1
     2    13    11    1
     3    11    10    1
     4    10     9    1
     5     9     8    1
     6     8     7    1
     7     7     1    1
     8     1     2   ar
     9     2     3   ar
    10     3     4   ar
    11     4     5   ar
    12     5    14    1
    13    14    15    1
    14    15    16    1
    15    16    18    1
    16    18    19    1
    17    19    20    2
    18    19    21   am
    19    21    22    1
    20    21    23    1
    21     5     6   ar
    22     6     1   ar
    23    16    17    1
@<TRIPOS>MOLECULE
*****
 23 23 0 0 0
SMALL
GASTEIGER

@<TRIPOS>ATOM
      1 C         -10.2030  -17.7038   23.5387 C.ar    1  UNL1        0.1382
      2 C         -10.9321  -18.6957   24.3958 C.ar    1  UNL1        0.0369
      3 C         -10.4291  -20.1046   24.5058 C.ar    1  UNL1        0.0028
      4 C          -9.1970  -20.5215   23.7587 C.ar    1  UNL1       -0.0040
      5 C          -8.4680  -19.5297   22.9016 C.ar    1  UNL1       -0.0178
      6 C          -8.9710  -18.1208   22.7916 C.ar    1  UNL1        0.0327
      7 O         -10.7060  -16.2950   23.4287 O.3     1  UNL1       -0.4755
      8 C         -11.8949  -15.9882   22.5671 C.3     1  UNL1        0.2054
      9 C         -11.8380  -16.2467   21.0907 C.3     1  UNL1        0.0473
     10 C         -11.9476  -17.6492   20.5701 C.3     1  UNL1        0.0038
     11 C         -10.9056  -18.1852   19.6335 C.3     1  UNL1        0.0001
     12 C          -9.2362  -20.0680   18.9873 C.3     1  UNL1        0.0000
     13 C         -10.4154  -19.5947   19.7843 C.3     1  UNL1        0.0000
     14 C          -7.2359  -19.9466   22.1545 C.3     1  UNL1        0.0435
     15 C          -6.4666  -18.9378   21.3542 C.3     1  UNL1        0.0737
     16 N          -4.9758  -18.8485   21.4941 N.3     1  UNL1       -0.2895
     17 H          -4.7257  -19.3814   22.3271 H       1  UNL1        0.1237
     18 C          -4.0882  -19.3342   20.3867 C.3     1  UNL1        0.1552
     19 C          -2.5978  -19.2318   20.5206 C.2     1  UNL1        0.2419
     20 O          -1.8656  -20.1382   21.4653 O.2     1  UNL1       -0.2734
     21 N          -1.8394  -18.2231   19.7098 N.am    1  UNL1       -0.2749
     22 C          -0.3489  -18.1208   19.8436 C.3     1  UNL1        0.1149
     23 C          -2.5715  -17.3168   18.7650 C.3     1  UNL1        0.1149
@<TRIPOS>BOND
     1    12    13    1
     2    13    11    1
     3    11    10    1
     4    10     9    1
     5     9     8    1
     6     8     7    1
     7     7     1    1
     8     1     2   ar
     9     2     3   ar
    10     3     4   ar
    11     4     5   ar
    12     5    14    1
    13    14    15    1
    14    15    16    1
    15    16    18    1
    16    18    19    1
    17    19    20    2
    18    19    21   am
    19    21    22    1
    20    21    23    1
    21     5     6   ar
    22     6     1   ar
    23    16    17    1
@<TRIPOS>MOLECULE
*****
 23 23 0 0 0
SMALL
GASTEIGER

@<TRIPOS>ATOM
      1 C          -9.9766  -18.1020   23.9897 C.ar    1  UNL1        0.1382
      2 C          -9.5718  -16.6607   23.8973 C.ar    1  UNL1        0.0369
      3 C          -8.3461  -16.2740   23.1239 C.ar    1  UNL1        0.0028
      4 C          -7.5252  -17.3287   22.4429 C.ar    1  UNL1       -0.0040
      5 C          -7.9300  -18.7700   22.5353 C.ar    1  UNL1       -0.0178
      6 C          -9.1557  -19.1567   23.3087 C.ar    1  UNL1        0.0327
      7 O         -11.2023  -18.4887   24.7631 O.3     1  UNL1       -0.4755
      8 C         -12.5312  -18.5676   24.0721 C.3     1  UNL1        0.2054
      9 C         -12.8999  -17.5470   23.0366 C.3     1  UNL1        0.0473
     10 C         -12.7223  -17.8584   21.5800 C.3     1  UNL1        0.0038
     11 C         -11.6251  -17.1967   20.8000 C.3     1  UNL1        0.0001
     12 C         -10.6448  -19.4821   20.0476 C.3     1  UNL1        0.0000
     13 C         -10.7894  -18.0022   19.8499 C.3     1  UNL1        0.0000
     14 C          -7.1091  -19.8248   21.8543 C.3     1  UNL1        0.0435
     15 C          -5.6582  -19.5762   21.5662 C.3     1  UNL1        0.0737
     16 N          -4.6663  -19.5364   22.6908 N.3     1  UNL1       -0.2895
     17 H          -4.2778  -20.4758   22.7741 H       1  UNL1        0.1237
     18 C          -3.5036  -18.5906   22.6322 C.3     1  UNL1        0.1552
     19 C          -2.3757  -18.8469   21.6773 C.2     1  UNL1        0.2419
     20 O          -2.0112  -20.2542   21.3075 O.2     1  UNL1       -0.2734
     21 N          -1.6121  -17.6960   21.0921 N.am    1  UNL1       -0.2749
     22 C          -0.4842  -17.9524   20.1371 C.3     1  UNL1        0.1149
     23 C          -1.9766  -16.2887   21.4619 C.3     1  UNL1        0.1149
@<TRIPOS>BOND
     1    12    13    1
     2    13    11    1
     3    11    10    1
     4    10     9    1
     5     9     8    1
     6     8     7    1
     7     7     1    1
     8     1     2   ar
     9     2     3   ar
    10     3     4   ar
    11     4     5   ar
    12     5    14    1
    13    14    15    1
    14    15    16    1
    15    16    18    1
    16    18    19    1
    17    19    20    2
    18    19    21   am
    19    21    22    1
    20    21    23    1
    21     5     6   ar
    22     6     1   ar
    23    16    17    1
@<TRIPOS>MOLECULE
*****
 23 23 0 0 0
SMALL
GASTEIGER

@<TRIPOS>ATOM
      1 C          -7.8370  -19.4758   20.4322 C.ar    1  UNL1        0.1382
      2 C          -8.8905  -19.4759   19.3645 C.ar    1  UNL1        0.0369
      3 C         -10.3374  -19.6040   19.7386 C.ar    1  UNL1        0.0028
      4 C         -10.7309  -19.7320   21.1803 C.ar    1  UNL1       -0.0040
      5 C          -9.6773  -19.7319   22.2480 C.ar    1  UNL1       -0.0178
      6 C          -8.2304  -19.6038   21.8740 C.ar    1  UNL1        0.0327
      7 O          -6.3900  -19.3477   20.0581 O.3     1  UNL1       -0.4755
      8 C          -5.3929  -20.3468   20.5654 C.3     1  UNL1        0.2054
      9 C          -3.9961  -20.3563   20.0188 C.3     1  UNL1        0.0473
     10 C          -2.8808  -19.7265   20.7997 C.3     1  UNL1        0.0038
     11 C          -3.0692  -18.3726   21.4173 C.3     1  UNL1        0.0001
     12 C          -4.2703  -17.2385   23.4226 C.3     1  UNL1        0.0000
     13 C          -3.2932  -18.2470   22.8952 C.3     1  UNL1        0.0000
     14 C         -10.0707  -19.8600   23.6899 C.3     1  UNL1        0.0435
     15 C         -10.3309  -18.6302   24.5084 C.3     1  UNL1        0.0737
     16 N          -9.3155  -17.5268   24.5478 N.3     1  UNL1       -0.2895
     17 H          -8.4619  -17.8971   24.1299 H       1  UNL1        0.1237
     18 C          -9.5999  -16.2211   23.8666 C.3     1  UNL1        0.1552
     19 C          -9.6671  -16.1552   22.3696 C.2     1  UNL1        0.2419
     20 O          -8.4030  -16.1348   21.5623 O.2     1  UNL1       -0.2734
     21 N         -10.9983  -16.1098   21.6798 N.am    1  UNL1       -0.2749
     22 C         -11.0655  -16.0439   20.1828 C.3     1  UNL1        0.1149
     23 C         -12.2624  -16.1303   22.4871 C.3     1  UNL1        0.1149
@<TRIPOS>BOND
     1    12    13    1
     2    13    11    1
     3    11    10    1
     4    10     9    1
     5     9     8    1
     6     8     7    1
     7     7     1    1
     8     1     2   ar
     9     2     3   ar
    10     3     4   ar
    11     4     5   ar
    12     5    14    1
    13    14    15    1
    14    15    16    1
    15    16    18    1
    16    18    19    1
    17    19    20    2
    18    19    21   am
    19    21    22    1
    20    21    23    1
    21     5     6   ar
    22     6     1   ar
    23    16    17    1
@<TRIPOS>MOLECULE
*****
 23 23 0 0 0
SMALL
GASTEIGER

@<TRIPOS>ATOM
      1 C          -8.0414  -19.4099   20.5801 C.ar    1  UNL1        0.1382
      2 C          -9.1604  -19.5075   19.5860 C.ar    1  UNL1        0.0369
      3 C         -10.5730  -19.6770   20.0610 C.ar    1  UNL1        0.0028
      4 C         -10.8667  -19.7490   21.5302 C.ar    1  UNL1       -0.0040
      5 C          -9.7478  -19.6513   22.5243 C.ar    1  UNL1       -0.0178
      6 C          -8.3351  -19.4818   22.0493 C.ar    1  UNL1        0.0327
      7 O          -6.6287  -19.2404   20.1051 O.3     1  UNL1       -0.4755
      8 C          -5.4966  -19.8285   20.8939 C.3     1  UNL1        0.2054
      9 C          -4.2257  -20.2232   20.2017 C.3     1  UNL1        0.0473
     10 C          -2.9008  -19.9254   20.8392 C.3     1  UNL1        0.0038
     11 C          -2.3233  -18.5434   20.7582 C.3     1  UNL1        0.0001
     12 C          -2.0718  -16.1676   21.7791 C.3     1  UNL1        0.0000
     13 C          -2.4291  -17.6163   21.9326 C.3     1  UNL1        0.0000
     14 C         -10.0415  -19.7233   23.9936 C.3     1  UNL1        0.0435
     15 C          -9.9720  -18.4827   24.8339 C.3     1  UNL1        0.0737
     16 N          -9.9307  -17.1341   24.1784 N.3     1  UNL1       -0.2895
     17 H         -10.8572  -16.7229   24.2922 H       1  UNL1        0.1237
     18 C          -8.9410  -16.1059   24.6399 C.3     1  UNL1        0.1552
     19 C          -7.6429  -15.9331   23.9084 C.2     1  UNL1        0.2419
     20 O          -7.5981  -16.0770   22.4160 O.2     1  UNL1       -0.2734
     21 N          -6.3896  -15.6163   24.6693 N.am    1  UNL1       -0.2749
     22 C          -5.0915  -15.4435   23.9378 C.3     1  UNL1        0.1149
     23 C          -6.4344  -15.4724   26.1617 C.3     1  UNL1        0.1149
@<TRIPOS>BOND
     1    12    13    1
     2    13    11    1
     3    11    10    1
     4    10     9    1
     5     9     8    1
     6     8     7    1
     7     7     1    1
     8     1     2   ar
     9     2     3   ar
    10     3     4   ar
    11     4     5   ar
    12     5    14    1
    13    14    15    1
    14    15    16    1
    15    16    18    1
    16    18    19    1
    17    19    20    2
    18    19    21   am
    19    21    22    1
    20    21    23    1
    21     5     6   ar
    22     6     1   ar
    23    16    17    1
@<TRIPOS>MOLECULE
*****
 23 23 0 0 0
SMALL
GASTEIGER

@<TRIPOS>ATOM
      1 C          -6.5985  -19.8751   21.1772 C.ar    1  UNL1        0.1382
      2 C          -5.9684  -20.8266   20.2038 C.ar    1  UNL1        0.0369
      3 C          -4.4814  -20.8228   20.0069 C.ar    1  UNL1        0.0028
      4 C          -3.6245  -19.8674   20.7833 C.ar    1  UNL1       -0.0040
      5 C          -4.2546  -18.9158   21.7566 C.ar    1  UNL1       -0.0178
      6 C          -5.7416  -18.9196   21.9536 C.ar    1  UNL1        0.0327
      7 O          -8.0855  -19.8789   21.3741 O.3     1  UNL1       -0.4755
      8 C          -8.6693  -19.4495   22.6874 C.3     1  UNL1        0.2054
      9 C          -9.9674  -20.0351   23.1585 C.3     1  UNL1        0.0473
     10 C         -11.2671  -19.4281   22.7197 C.3     1  UNL1        0.0038
     11 C         -12.0002  -18.4871   23.6291 C.3     1  UNL1        0.0001
     12 C         -12.3062  -16.1769   22.4805 C.3     1  UNL1        0.0000
     13 C         -12.8965  -17.4320   23.0517 C.3     1  UNL1        0.0000
     14 C          -3.3977  -17.9603   22.5331 C.3     1  UNL1        0.0435
     15 C          -3.9763  -17.2076   23.6943 C.3     1  UNL1        0.0737
     16 N          -4.6731  -15.8986   23.4675 N.3     1  UNL1       -0.2895
     17 H          -4.6105  -15.7010   22.4688 H       1  UNL1        0.1237
     18 C          -6.1145  -15.7399   23.8509 C.3     1  UNL1        0.1552
     19 C          -6.4860  -15.4807   25.2808 C.2     1  UNL1        0.2419
     20 O          -5.4269  -15.1065   26.2749 O.2     1  UNL1       -0.2734
     21 N          -7.9168  -15.5958   25.7166 N.am    1  UNL1       -0.2749
     22 C          -8.2883  -15.3366   27.1466 C.3     1  UNL1        0.1149
     23 C          -8.9759  -15.9700   24.7225 C.3     1  UNL1        0.1149
@<TRIPOS>BOND
     1    12    13    1
     2    13    11    1
     3    11    10    1
     4    10     9    1
     5     9     8    1
     6     8     7    1
     7     7     1    1
     8     1     2   ar
     9     2     3   ar
    10     3     4   ar
    11     4     5   ar
    12     5    14    1
    13    14    15    1
    14    15    16    1
    15    16    18    1
    16    18    19    1
    17    19    20    2
    18    19    21   am
    19    21    22    1
    20    21    23    1
    21     5     6   ar
    22     6     1   ar
    23    16    17    1
@<TRIPOS>MOLECULE
*****
 23 23 0 0 0
SMALL
GASTEIGER

@<TRIPOS>ATOM
      1 C          -6.5486  -18.8515   20.6594 C.ar    1  UNL1        0.1382
      2 C          -6.7740  -20.3039   20.9586 C.ar    1  UNL1        0.0369
      3 C          -5.7264  -21.3152   20.5985 C.ar    1  UNL1        0.0028
      4 C          -4.4533  -20.8741   19.9392 C.ar    1  UNL1       -0.0040
      5 C          -4.2279  -19.4217   19.6400 C.ar    1  UNL1       -0.0178
      6 C          -5.2755  -18.4104   20.0001 C.ar    1  UNL1        0.0327
      7 O          -7.5962  -17.8401   21.0195 O.3     1  UNL1       -0.4755
      8 C          -8.9566  -18.2936   21.4594 C.3     1  UNL1        0.2054
      9 C         -10.0064  -18.6164   20.4378 C.3     1  UNL1        0.0473
     10 C         -11.4011  -18.9524   20.8759 C.3     1  UNL1        0.0038
     11 C         -12.3495  -17.8571   21.2645 C.3     1  UNL1        0.0001
     12 C         -11.9277  -18.1647   23.8096 C.3     1  UNL1        0.0000
     13 C         -12.8242  -17.7443   22.6829 C.3     1  UNL1        0.0000
     14 C          -2.9548  -18.9805   18.9807 C.3     1  UNL1        0.0435
     15 C          -2.6024  -17.5234   18.9298 C.3     1  UNL1        0.0737
     16 N          -1.2642  -17.0577   19.4222 N.3     1  UNL1       -0.2895
     17 H          -0.9814  -16.2849   18.8196 H       1  UNL1        0.1237
     18 C          -1.1091  -16.5832   20.8366 C.3     1  UNL1        0.1552
     19 C          -2.2951  -16.5617   21.7547 C.2     1  UNL1        0.2419
     20 O          -3.0789  -15.2959   21.9379 O.2     1  UNL1       -0.2734
     21 N          -2.6973  -17.8059   22.4897 N.am    1  UNL1       -0.2749
     22 C          -3.8832  -17.7844   23.4079 C.3     1  UNL1        0.1149
     23 C          -1.9134  -19.0716   22.3066 C.3     1  UNL1        0.1149
@<TRIPOS>BOND
     1    12    13    1
     2    13    11    1
     3    11    10    1
     4    10     9    1
     5     9     8    1
     6     8     7    1
     7     7     1    1
     8     1     2   ar
     9     2     3   ar
    10     3     4   ar
    11     4     5   ar
    12     5    14    1
    13    14    15    1
    14    15    16    1
    15    16    18    1
    16    18    19    1
    17    19    20    2
    18    19    21   am
    19    21    22    1
    20    21    23    1
    21     5     6   ar
    22     6     1   ar
    23    16    17    1
@<TRIPOS>MOLECULE
*****
 23 23 0 0 0
SMALL
GASTEIGER

@<TRIPOS>ATOM
      1 C          -9.3817  -17.1422   23.7774 C.ar    1  UNL1        0.1382
      2 C         -10.7427  -17.6274   23.3748 C.ar    1  UNL1        0.0369
      3 C         -10.8827  -18.8843   22.5681 C.ar    1  UNL1        0.0028
      4 C          -9.6615  -19.6560   22.1641 C.ar    1  UNL1       -0.0040
      5 C          -8.3005  -19.1708   22.5667 C.ar    1  UNL1       -0.0178
      6 C          -8.1606  -17.9139   23.3733 C.ar    1  UNL1        0.0327
      7 O          -9.2418  -15.8853   24.5840 O.3     1  UNL1       -0.4755
      8 C          -7.9698  -15.0927   24.5230 C.3     1  UNL1        0.2054
      9 C          -6.9335  -15.2538   25.5954 C.3     1  UNL1        0.0473
     10 C          -5.5770  -15.7944   25.2524 C.3     1  UNL1        0.0038
     11 C          -5.0641  -15.6962   23.8462 C.3     1  UNL1        0.0001
     12 C          -4.1054  -18.0563   23.3358 C.3     1  UNL1        0.0000
     13 C          -3.9283  -16.5682   23.3995 C.3     1  UNL1        0.0000
     14 C          -7.0793  -19.9425   22.1626 C.3     1  UNL1        0.0435
     15 C          -6.4840  -19.7449   20.8001 C.3     1  UNL1        0.0737
     16 N          -5.0848  -20.2067   20.5188 N.3     1  UNL1       -0.2895
     17 H          -5.1620  -21.0577   19.9617 H       1  UNL1        0.1237
     18 C          -4.1273  -19.3036   19.7994 C.3     1  UNL1        0.1552
     19 C          -2.6846  -19.2623   20.2077 C.2     1  UNL1        0.2419
     20 O          -2.1819  -20.1832   21.2797 O.2     1  UNL1       -0.2734
     21 N          -1.7445  -18.3002   19.5439 N.am    1  UNL1       -0.2749
     22 C          -0.3017  -18.2589   19.9522 C.3     1  UNL1        0.1149
     23 C          -2.2472  -17.3793   18.4718 C.3     1  UNL1        0.1149
@<TRIPOS>BOND
     1    12    13    1
     2    13    11    1
     3    11    10    1
     4    10     9    1
     5     9     8    1
     6     8     7    1
     7     7     1    1
     8     1     2   ar
     9     2     3   ar
    10     3     4   ar
    11     4     5   ar
    12     5    14    1
    13    14    15    1
    14    15    16    1
    15    16    18    1
    16    18    19    1
    17    19    20    2
    18    19    21   am
    19    21    22    1
    20    21    23    1
    21     5     6   ar
    22     6     1   ar
    23    16    17    1
@<TRIPOS>MOLECULE
*****
 23 23 0 0 0
SMALL
GASTEIGER

@<TRIPOS>ATOM
      1 C         -10.3836  -17.1477   23.5479 C.ar    1  UNL1        0.1382
      2 C         -10.4939  -16.6789   22.1273 C.ar    1  UNL1        0.0369
      3 C          -9.3848  -15.8765   21.5141 C.ar    1  UNL1        0.0028
      4 C          -8.1654  -15.5429   22.3213 C.ar    1  UNL1       -0.0040
      5 C          -8.0551  -16.0116   23.7419 C.ar    1  UNL1       -0.0178
      6 C          -9.1642  -16.8140   24.3552 C.ar    1  UNL1        0.0327
      7 O         -11.4926  -17.9501   24.1612 O.3     1  UNL1       -0.4755
      8 C         -11.4932  -19.4450   24.0386 C.3     1  UNL1        0.2054
      9 C         -10.5061  -20.1239   23.1360 C.3     1  UNL1        0.0473
     10 C          -9.1148  -20.4041   23.6219 C.3     1  UNL1        0.0038
     11 C          -7.9369  -20.0796   22.7517 C.3     1  UNL1        0.0001
     12 C          -6.9698  -18.7811   20.7198 C.3     1  UNL1        0.0000
     13 C          -8.1421  -19.3729   21.4447 C.3     1  UNL1        0.0000
     14 C          -6.8357  -15.6780   24.5493 C.3     1  UNL1        0.0435
     15 C          -5.4884  -15.6374   23.8911 C.3     1  UNL1        0.0737
     16 N          -4.4727  -16.6985   24.1955 N.3     1  UNL1       -0.2895
     17 H          -4.8623  -17.2734   24.9425 H       1  UNL1        0.1237
     18 C          -4.0227  -17.6377   23.1160 C.3     1  UNL1        0.1552
     19 C          -2.9625  -17.2110   22.1446 C.2     1  UNL1        0.2419
     20 O          -2.6765  -15.7529   21.9391 O.2     1  UNL1       -0.2734
     21 N          -2.1881  -18.2424   21.3786 N.am    1  UNL1       -0.2749
     22 C          -1.1278  -17.8156   20.4072 C.3     1  UNL1        0.1149
     23 C          -2.4740  -19.7005   21.5841 C.3     1  UNL1        0.1149
@<TRIPOS>BOND
     1    12    13    1
     2    13    11    1
     3    11    10    1
     4    10     9    1
     5     9     8    1
     6     8     7    1
     7     7     1    1
     8     1     2   ar
     9     2     3   ar
    10     3     4   ar
    11     4     5   ar
    12     5    14    1
    13    14    15    1
    14    15    16    1
    15    16    18    1
    16    18    19    1
    17    19    20    2
    18    19    21   am
    19    21    22    1
    20    21    23    1
    21     5     6   ar
    22     6     1   ar
    23    16    17    1
