@<TRIPOS>MOLECULE
*****
 31 34 0 0 0
SMALL
GASTEIGER

@<TRIPOS>ATOM
      1 C         -10.5255  -19.7227   23.8625 C.3     1  UNL1        0.1528
      2 C          -9.4717  -19.7528   22.7954 C.ar    1  UNL1        0.2480
      3 N          -7.9919  -19.6422   23.0142 N.ar    1  UNL1       -0.1900
      4 C          -7.3183  -19.7198   21.6761 C.ar    1  UNL1        0.2034
      5 N          -8.3820  -19.8785   20.6304 N.ar    1  UNL1       -0.0560
      6 O          -9.7128  -19.8989   21.3221 O.2     1  UNL1       -0.3361
      7 C          -5.8408  -19.6509   21.4275 C.ar    1  UNL1        0.0423
      8 C          -5.2103  -20.5450   20.4013 C.ar    1  UNL1        0.0065
      9 C          -3.7327  -20.4761   20.1527 C.ar    1  UNL1        0.0401
     10 C          -2.8854  -19.5131   20.9303 C.ar    1  UNL1        0.1724
     11 C          -3.5158  -18.6189   21.9565 C.ar    1  UNL1        0.1725
     12 C          -4.9934  -18.6878   22.2052 C.ar    1  UNL1        0.0432
     13 O          -1.4078  -19.4442   20.6816 O.3     1  UNL1       -0.4684
     14 C          -0.8498  -18.3978   19.7631 C.3     1  UNL1        0.2526
     15 O          -2.6685  -17.6559   22.7341 O.3     1  UNL1       -0.4684
     16 C          -2.3298  -16.3157   22.1520 C.3     1  UNL1        0.2526
     17 S         -11.6274  -18.7071   23.8000 S.3     1  UNL1       -0.0653
     18 N         -10.9076  -16.7515   22.1259 N.ar    1  UNL1       -0.2724
     19 C         -11.4599  -16.1920   20.8485 C.ar    1  UNL1        0.1479
     20 C         -10.8756  -15.0602   20.0563 C.3     1  UNL1        0.0742
     21 N         -12.6991  -16.9631   20.5022 N.ar    1  UNL1       -0.1325
     22 N         -12.9127  -17.9991   21.5657 N.ar    1  UNL1       -0.1221
     23 C         -11.8055  -17.8683   22.5692 C.ar    1  UNL1        0.1973
     24 C          -7.2069  -15.3291   24.2547 C.ar    1  UNL1        0.1388
     25 C          -8.5116  -15.4086   24.9905 C.ar    1  UNL1        0.0384
     26 C          -9.7451  -15.8827   24.2809 C.ar    1  UNL1        0.0207
     27 C          -9.6740  -16.2774   22.8355 C.ar    1  UNL1        0.0671
     28 C          -8.3693  -16.1979   22.0998 C.ar    1  UNL1        0.0207
     29 C          -7.1358  -15.7238   22.8094 C.ar    1  UNL1        0.0384
     30 C          -5.5509  -15.5039   26.2490 C.3     1  UNL1        0.2525
     31 O          -5.9733  -14.8550   24.9643 O.3     1  UNL1       -0.4714
@<TRIPOS>BOND
     1    30    31    1
     2    31    24    1
     3    24    25   ar
     4    25    26   ar
     5    26    27   ar
     6    27    18    1
     7    18    19   ar
     8    19    20    1
     9    19    21   ar
    10    21    22   ar
    11    22    23   ar
    12    23    17    1
    13    17     1    1
    14     1     2    1
    15     2     3   ar
    16     3     4   ar
    17     4     7    1
    18     7     8   ar
    19     8     9   ar
    20     9    10   ar
    21    10    13    1
    22    13    14    1
    23    10    11   ar
    24    11    15    1
    25    15    16    1
    26    11    12   ar
    27     4     5   ar
    28     5     6   ar
    29    27    28   ar
    30    28    29   ar
    31    29    24   ar
    32    23    18   ar
    33     6     2   ar
    34    12     7   ar
@<TRIPOS>MOLECULE
*****
 31 34 0 0 0
SMALL
GASTEIGER

@<TRIPOS>ATOM
      1 C          -9.5189  -20.2186   23.2604 C.3     1  UNL1        0.1528
      2 C          -8.4478  -19.9246   22.2523 C.ar    1  UNL1        0.2480
      3 N          -6.9809  -19.7941   22.5371 N.ar    1  UNL1       -0.1900
      4 C          -6.2819  -19.4983   21.2432 C.ar    1  UNL1        0.2034
      5 N          -7.3170  -19.4459   20.1588 N.ar    1  UNL1       -0.0560
      6 O          -8.6555  -19.7094   20.7824 O.2     1  UNL1       -0.3361
      7 C          -4.8071  -19.2912   21.0651 C.ar    1  UNL1        0.0423
      8 C          -3.8883  -19.3851   22.2471 C.ar    1  UNL1        0.0065
      9 C          -2.4134  -19.1780   22.0690 C.ar    1  UNL1        0.0401
     10 C          -1.8572  -18.8769   20.7089 C.ar    1  UNL1        0.1724
     11 C          -2.7759  -18.7830   19.5268 C.ar    1  UNL1        0.1725
     12 C          -4.2508  -18.9901   19.7049 C.ar    1  UNL1        0.0432
     13 O          -0.3823  -18.6699   20.5308 O.3     1  UNL1       -0.4684
     14 C           0.1447  -17.3180   20.1503 C.3     1  UNL1        0.2526
     15 O          -2.2196  -18.4819   18.1667 O.3     1  UNL1       -0.4684
     16 C          -2.4823  -17.1510   17.5268 C.3     1  UNL1        0.2526
     17 S         -10.7558  -19.3715   23.3093 S.3     1  UNL1       -0.0653
     18 N         -10.3943  -17.0820   21.9779 N.ar    1  UNL1       -0.2724
     19 C         -10.9945  -16.4625   20.7508 C.ar    1  UNL1        0.1479
     20 C         -10.6297  -15.1296   20.1675 C.3     1  UNL1        0.0742
     21 N         -12.0237  -17.4100   20.2092 N.ar    1  UNL1       -0.1325
     22 N         -12.0595  -18.6150   21.1018 N.ar    1  UNL1       -0.1221
     23 C         -11.0525  -18.4123   22.1949 C.ar    1  UNL1        0.1973
     24 C          -7.1829  -15.2679   24.5560 C.ar    1  UNL1        0.1388
     25 C          -6.8549  -15.7405   23.1708 C.ar    1  UNL1        0.0384
     26 C          -7.9253  -16.3452   22.3114 C.ar    1  UNL1        0.0207
     27 C          -9.3238  -16.4773   22.8373 C.ar    1  UNL1        0.0671
     28 C          -9.6519  -16.0047   24.2226 C.ar    1  UNL1        0.0207
     29 C          -8.5815  -15.4000   25.0819 C.ar    1  UNL1        0.0384
     30 C          -5.1206  -15.5475   26.1112 C.3     1  UNL1        0.2525
     31 O          -6.1125  -14.6633   25.4154 O.3     1  UNL1       -0.4714
@<TRIPOS>BOND
     1    30    31    1
     2    31    24    1
     3    24    25   ar
     4    25    26   ar
     5    26    27   ar
     6    27    18    1
     7    18    19   ar
     8    19    20    1
     9    19    21   ar
    10    21    22   ar
    11    22    23   ar
    12    23    17    1
    13    17     1    1
    14     1     2    1
    15     2     3   ar
    16     3     4   ar
    17     4     7    1
    18     7     8   ar
    19     8     9   ar
    20     9    10   ar
    21    10    13    1
    22    13    14    1
    23    10    11   ar
    24    11    15    1
    25    15    16    1
    26    11    12   ar
    27     4     5   ar
    28     5     6   ar
    29    27    28   ar
    30    28    29   ar
    31    29    24   ar
    32    23    18   ar
    33     6     2   ar
    34    12     7   ar
@<TRIPOS>MOLECULE
*****
 31 34 0 0 0
SMALL
GASTEIGER

@<TRIPOS>ATOM
      1 C         -10.3137  -20.4188   24.0381 C.3     1  UNL1        0.1528
      2 C          -9.3316  -20.0674   22.9601 C.ar    1  UNL1        0.2480
      3 N          -7.8375  -20.1390   23.0710 N.ar    1  UNL1       -0.1900
      4 C          -7.2538  -19.6985   21.7613 C.ar    1  UNL1        0.2034
      5 N          -8.3873  -19.3545   20.8410 N.ar    1  UNL1       -0.0560
      6 O          -9.6715  -19.5825   21.5819 O.2     1  UNL1       -0.3361
      7 C          -5.7932  -19.6163   21.4301 C.ar    1  UNL1        0.0423
      8 C          -5.2203  -20.4796   20.3454 C.ar    1  UNL1        0.0065
      9 C          -3.7596  -20.3974   20.0142 C.ar    1  UNL1        0.0401
     10 C          -2.8718  -19.4520   20.7677 C.ar    1  UNL1        0.1724
     11 C          -3.4446  -18.5887   21.8524 C.ar    1  UNL1        0.1725
     12 C          -4.9052  -18.6708   22.1837 C.ar    1  UNL1        0.0432
     13 O          -1.4111  -19.3698   20.4365 O.3     1  UNL1       -0.4684
     14 C          -0.8897  -18.2218   19.6240 C.3     1  UNL1        0.2526
     15 O          -2.5567  -17.6433   22.6059 O.3     1  UNL1       -0.4684
     16 C          -2.3191  -16.2583   22.0812 C.3     1  UNL1        0.2526
     17 S         -10.7948  -19.3623   24.9879 S.3     1  UNL1       -0.0653
     18 N          -9.6271  -16.9924   24.5815 N.ar    1  UNL1       -0.2724
     19 C          -8.6567  -16.1430   25.3475 C.ar    1  UNL1        0.1479
     20 C          -8.1216  -14.8093   24.9172 C.3     1  UNL1        0.0742
     21 N          -8.3152  -16.8612   26.6193 N.ar    1  UNL1       -0.1325
     22 N          -9.0746  -18.1547   26.6394 N.ar    1  UNL1       -0.1221
     23 C          -9.8854  -18.2357   25.3800 C.ar    1  UNL1        0.1973
     24 C         -11.4444  -15.9874   20.5894 C.ar    1  UNL1        0.1388
     25 C          -9.9572  -15.9235   20.7738 C.ar    1  UNL1        0.0384
     26 C          -9.3514  -16.2586   22.1046 C.ar    1  UNL1        0.0207
     27 C         -10.2329  -16.6574   23.2508 C.ar    1  UNL1        0.0671
     28 C         -11.7201  -16.7212   23.0664 C.ar    1  UNL1        0.0207
     29 C         -12.3259  -16.3862   21.7356 C.ar    1  UNL1        0.0384
     30 C         -11.2602  -14.8723   18.2500 C.3     1  UNL1        0.2525
     31 O         -12.0502  -15.6523   19.2587 O.3     1  UNL1       -0.4714
@<TRIPOS>BOND
     1    30    31    1
     2    31    24    1
     3    24    25   ar
     4    25    26   ar
     5    26    27   ar
     6    27    18    1
     7    18    19   ar
     8    19    20    1
     9    19    21   ar
    10    21    22   ar
    11    22    23   ar
    12    23    17    1
    13    17     1    1
    14     1     2    1
    15     2     3   ar
    16     3     4   ar
    17     4     7    1
    18     7     8   ar
    19     8     9   ar
    20     9    10   ar
    21    10    13    1
    22    13    14    1
    23    10    11   ar
    24    11    15    1
    25    15    16    1
    26    11    12   ar
    27     4     5   ar
    28     5     6   ar
    29    27    28   ar
    30    28    29   ar
    31    29    24   ar
    32    23    18   ar
    33     6     2   ar
    34    12     7   ar
@<TRIPOS>MOLECULE
*****
 31 34 0 0 0
SMALL
GASTEIGER

@<TRIPOS>ATOM
      1 C          -3.9040  -16.5498   23.5173 C.3     1  UNL1        0.1528
      2 C          -5.3389  -16.2147   23.7981 C.ar    1  UNL1        0.2480
      3 N          -6.5310  -17.0251   23.3831 N.ar    1  UNL1       -0.1900
      4 C          -7.7625  -16.3217   23.8717 C.ar    1  UNL1        0.2034
      5 N          -7.3314  -15.0766   24.5887 N.ar    1  UNL1       -0.0560
      6 O          -5.8336  -15.0105   24.5432 O.2     1  UNL1       -0.3361
      7 C          -9.1766  -16.7824   23.6774 C.ar    1  UNL1        0.0423
      8 C          -9.7673  -17.8026   24.6050 C.ar    1  UNL1        0.0065
      9 C         -11.1815  -18.2633   24.4108 C.ar    1  UNL1        0.0401
     10 C         -12.0051  -17.7039   23.2889 C.ar    1  UNL1        0.1724
     11 C         -11.4145  -16.6838   22.3612 C.ar    1  UNL1        0.1725
     12 C         -10.0003  -16.2230   22.5555 C.ar    1  UNL1        0.0432
     13 O         -13.4193  -18.1647   23.0946 O.3     1  UNL1       -0.4684
     14 C         -14.3609  -18.2082   24.2615 C.3     1  UNL1        0.2526
     15 O         -12.2382  -16.1245   21.2393 O.3     1  UNL1       -0.4684
     16 C         -11.6374  -15.9673   19.8739 C.3     1  UNL1        0.2526
     17 S          -3.3731  -16.4608   22.1173 S.3     1  UNL1       -0.0653
     18 N          -3.5692  -18.8789   20.9951 N.ar    1  UNL1       -0.2724
     19 C          -2.5983  -19.8499   20.3914 C.ar    1  UNL1        0.1479
     20 C          -2.9389  -21.1876   19.8045 C.3     1  UNL1        0.0742
     21 N          -1.2269  -19.2483   20.4777 N.ar    1  UNL1       -0.1325
     22 N          -1.3502  -17.9055   21.1347 N.ar    1  UNL1       -0.1221
     23 C          -2.7978  -17.6772   21.4545 C.ar    1  UNL1        0.1973
     24 C          -8.0153  -19.4675   21.3635 C.ar    1  UNL1        0.1388
     25 C          -7.0919  -20.0731   22.3786 C.ar    1  UNL1        0.0384
     26 C          -5.6099  -19.8769   22.2558 C.ar    1  UNL1        0.0207
     27 C          -5.0512  -19.0751   21.1179 C.ar    1  UNL1        0.0671
     28 C          -5.9746  -18.4694   20.1028 C.ar    1  UNL1        0.0207
     29 C          -7.4567  -18.6656   20.2256 C.ar    1  UNL1        0.0384
     30 C         -10.3677  -19.5864   20.2670 C.3     1  UNL1        0.2525
     31 O          -9.4974  -19.6637   21.4862 O.3     1  UNL1       -0.4714
@<TRIPOS>BOND
     1    30    31    1
     2    31    24    1
     3    24    25   ar
     4    25    26   ar
     5    26    27   ar
     6    27    18    1
     7    18    19   ar
     8    19    20    1
     9    19    21   ar
    10    21    22   ar
    11    22    23   ar
    12    23    17    1
    13    17     1    1
    14     1     2    1
    15     2     3   ar
    16     3     4   ar
    17     4     7    1
    18     7     8   ar
    19     8     9   ar
    20     9    10   ar
    21    10    13    1
    22    13    14    1
    23    10    11   ar
    24    11    15    1
    25    15    16    1
    26    11    12   ar
    27     4     5   ar
    28     5     6   ar
    29    27    28   ar
    30    28    29   ar
    31    29    24   ar
    32    23    18   ar
    33     6     2   ar
    34    12     7   ar
@<TRIPOS>MOLECULE
*****
 31 34 0 0 0
SMALL
GASTEIGER

@<TRIPOS>ATOM
      1 C           4.2604   -3.2933   20.2930 C.3     1  UNL1        0.1528
      2 C           5.3238   -3.7611   21.2419 C.ar    1  UNL1        0.2480
      3 N           5.2542   -3.7090   22.7393 N.ar    1  UNL1       -0.1900
      4 C           6.5310   -4.2788   23.2828 C.ar    1  UNL1        0.2034
      5 N           7.3895   -4.6832   22.1211 N.ar    1  UNL1       -0.0560
      6 O           6.6434   -4.3632   20.8598 O.2     1  UNL1       -0.3361
      7 C           6.8866   -4.4196   24.7331 C.ar    1  UNL1        0.0423
      8 C           6.5355   -3.3287   25.7009 C.ar    1  UNL1        0.0065
      9 C           6.8912   -3.4694   27.1513 C.ar    1  UNL1        0.0401
     10 C           7.5980   -4.7012   27.6340 C.ar    1  UNL1        0.1724
     11 C           7.9492   -5.7922   26.6663 C.ar    1  UNL1        0.1725
     12 C           7.5935   -5.6515   25.2159 C.ar    1  UNL1        0.0432
     13 O           7.9537   -4.8420   29.0844 O.3     1  UNL1       -0.4684
     14 C           6.9616   -5.4249   30.0467 C.3     1  UNL1        0.2526
     15 O           8.6560   -7.0240   27.1491 O.3     1  UNL1       -0.4684
     16 C           8.1207   -8.3812   26.8003 C.3     1  UNL1        0.2526
     17 S           4.5507   -3.2082   18.8239 S.3     1  UNL1       -0.0653
     18 N           4.7819   -0.5927   18.3231 N.ar    1  UNL1       -0.2724
     19 C           5.8061    0.2717   17.6495 C.ar    1  UNL1        0.1479
     20 C           5.7281    1.7597   17.4769 C.3     1  UNL1        0.0742
     21 N           6.9222   -0.6131   17.1787 N.ar    1  UNL1       -0.1325
     22 N           6.5877   -2.0243   17.5613 N.ar    1  UNL1       -0.1221
     23 C           5.2650   -2.0117   18.2686 C.ar    1  UNL1        0.1973
     24 C           0.9356    0.8227   20.1812 C.ar    1  UNL1        0.1388
     25 C           2.1199    0.5169   21.0494 C.ar    1  UNL1        0.0384
     26 C           3.4021    0.0451   20.4300 C.ar    1  UNL1        0.0207
     27 C           3.4998   -0.1209   18.9425 C.ar    1  UNL1        0.0671
     28 C           2.3155    0.1849   18.0743 C.ar    1  UNL1        0.0207
     29 C           1.0334    0.6567   18.6936 C.ar    1  UNL1        0.0384
     30 C          -0.3499    2.5026   21.6895 C.3     1  UNL1        0.2525
     31 O          -0.3465    1.2945   20.8005 O.3     1  UNL1       -0.4714
@<TRIPOS>BOND
     1    30    31    1
     2    31    24    1
     3    24    25   ar
     4    25    26   ar
     5    26    27   ar
     6    27    18    1
     7    18    19   ar
     8    19    20    1
     9    19    21   ar
    10    21    22   ar
    11    22    23   ar
    12    23    17    1
    13    17     1    1
    14     1     2    1
    15     2     3   ar
    16     3     4   ar
    17     4     7    1
    18     7     8   ar
    19     8     9   ar
    20     9    10   ar
    21    10    13    1
    22    13    14    1
    23    10    11   ar
    24    11    15    1
    25    15    16    1
    26    11    12   ar
    27     4     5   ar
    28     5     6   ar
    29    27    28   ar
    30    28    29   ar
    31    29    24   ar
    32    23    18   ar
    33     6     2   ar
    34    12     7   ar
@<TRIPOS>MOLECULE
*****
 31 34 0 0 0
SMALL
GASTEIGER

@<TRIPOS>ATOM
      1 C           4.4092   -4.3499   20.0338 C.3     1  UNL1        0.1528
      2 C           4.7441   -3.8485   21.4072 C.ar    1  UNL1        0.2480
      3 N           4.0086   -2.7790   22.1590 N.ar    1  UNL1       -0.1900
      4 C           4.6834   -2.5979   23.4865 C.ar    1  UNL1        0.2034
      5 N           5.8359   -3.5556   23.5550 N.ar    1  UNL1       -0.0560
      6 O           5.8734   -4.3285   22.2700 O.2     1  UNL1       -0.3361
      7 C           4.2770   -1.6294   24.5572 C.ar    1  UNL1        0.0423
      8 C           4.8938   -1.7175   25.9217 C.ar    1  UNL1        0.0065
      9 C           4.4874   -0.7489   26.9926 C.ar    1  UNL1        0.0401
     10 C           3.4641    0.3078   26.6989 C.ar    1  UNL1        0.1724
     11 C           2.8473    0.3960   25.3345 C.ar    1  UNL1        0.1725
     12 C           3.2537   -0.5726   24.2636 C.ar    1  UNL1        0.0432
     13 O           3.0577    1.2764   27.7698 O.3     1  UNL1       -0.4684
     14 C           1.8170    1.0270   28.5750 C.3     1  UNL1        0.2526
     15 O           1.8240    1.4528   25.0409 O.3     1  UNL1       -0.4684
     16 C           0.3825    1.0744   24.8715 C.3     1  UNL1        0.2526
     17 S           3.8586   -3.4077   19.0048 S.3     1  UNL1       -0.0653
     18 N           4.4146   -0.8567   18.4315 N.ar    1  UNL1       -0.2724
     19 C           5.5557   -0.1429   17.7693 C.ar    1  UNL1        0.1479
     20 C           5.6603    1.3369   17.5477 C.3     1  UNL1        0.0742
     21 N           6.5738   -1.1687   17.3678 N.ar    1  UNL1       -0.1325
     22 N           6.0620   -2.5165   17.7817 N.ar    1  UNL1       -0.1221
     23 C           4.7276   -2.3237   18.4391 C.ar    1  UNL1        0.1973
     24 C           0.7043    1.0651   20.1016 C.ar    1  UNL1        0.1388
     25 C           0.8726    0.9235   18.6179 C.ar    1  UNL1        0.0384
     26 C           2.1094    0.2829   18.0612 C.ar    1  UNL1        0.0207
     27 C           3.1778   -0.2161   18.9882 C.ar    1  UNL1        0.0671
     28 C           3.0095   -0.0745   20.4719 C.ar    1  UNL1        0.0207
     29 C           1.7727    0.5662   21.0287 C.ar    1  UNL1        0.0384
     30 C          -0.4172    2.7840   21.6947 C.3     1  UNL1        0.2525
     31 O          -0.5325    1.7058   20.6584 O.3     1  UNL1       -0.4714
@<TRIPOS>BOND
     1    30    31    1
     2    31    24    1
     3    24    25   ar
     4    25    26   ar
     5    26    27   ar
     6    27    18    1
     7    18    19   ar
     8    19    20    1
     9    19    21   ar
    10    21    22   ar
    11    22    23   ar
    12    23    17    1
    13    17     1    1
    14     1     2    1
    15     2     3   ar
    16     3     4   ar
    17     4     7    1
    18     7     8   ar
    19     8     9   ar
    20     9    10   ar
    21    10    13    1
    22    13    14    1
    23    10    11   ar
    24    11    15    1
    25    15    16    1
    26    11    12   ar
    27     4     5   ar
    28     5     6   ar
    29    27    28   ar
    30    28    29   ar
    31    29    24   ar
    32    23    18   ar
    33     6     2   ar
    34    12     7   ar
@<TRIPOS>MOLECULE
*****
 31 34 0 0 0
SMALL
GASTEIGER

@<TRIPOS>ATOM
      1 C           6.5077    0.0227   22.1608 C.3     1  UNL1        0.1528
      2 C           5.1667    0.5587   22.5665 C.ar    1  UNL1        0.2480
      3 N           4.4778    0.3116   23.8758 N.ar    1  UNL1       -0.1900
      4 C           3.1645    1.0362   23.8525 C.ar    1  UNL1        0.2034
      5 N           3.0419    1.7310   22.5287 N.ar    1  UNL1       -0.0560
      6 O           4.2794    1.4360   21.7340 O.2     1  UNL1       -0.3361
      7 C           2.1517    1.0614   24.9586 C.ar    1  UNL1        0.0423
      8 C           0.6928    1.1954   24.6369 C.ar    1  UNL1        0.0065
      9 C          -0.3200    1.2207   25.7431 C.ar    1  UNL1        0.0401
     10 C           0.1262    1.1119   27.1710 C.ar    1  UNL1        0.1724
     11 C           1.5851    0.9779   27.4928 C.ar    1  UNL1        0.1725
     12 C           2.5979    0.9526   26.3866 C.ar    1  UNL1        0.0432
     13 O          -0.8866    1.1371   28.2772 O.3     1  UNL1       -0.4684
     14 C          -1.4234   -0.1489   28.8321 C.3     1  UNL1        0.2526
     15 O           2.0312    0.8691   28.9208 O.3     1  UNL1       -0.4684
     16 C           2.1625   -0.4792   29.5648 C.3     1  UNL1        0.2526
     17 S           6.6753   -0.6504   20.8310 S.3     1  UNL1       -0.0653
     18 N           4.8638   -2.4627   20.0700 N.ar    1  UNL1       -0.2724
     19 C           4.8036   -3.9614   20.0572 C.ar    1  UNL1        0.1479
     20 C           3.6539   -4.7935   19.5714 C.3     1  UNL1        0.0742
     21 N           6.0948   -4.4821   20.6155 N.ar    1  UNL1       -0.1325
     22 N           6.9531   -3.3052   20.9733 N.ar    1  UNL1       -0.1221
     23 C           6.1923   -2.0571   20.6361 C.ar    1  UNL1        0.1973
     24 C           1.6275    0.3269   18.6578 C.ar    1  UNL1        0.1388
     25 C           2.8470    0.1042   17.8132 C.ar    1  UNL1        0.0384
     26 C           3.9257   -0.8256   18.2840 C.ar    1  UNL1        0.0207
     27 C           3.7851   -1.5329   19.5992 C.ar    1  UNL1        0.0671
     28 C           2.5656   -1.3102   20.4438 C.ar    1  UNL1        0.0207
     29 C           1.4868   -0.3804   19.9730 C.ar    1  UNL1        0.0384
     30 C           0.2253    2.4908   18.9760 C.3     1  UNL1        0.2525
     31 O           0.5487    1.2567   18.1870 O.3     1  UNL1       -0.4714
@<TRIPOS>BOND
     1    30    31    1
     2    31    24    1
     3    24    25   ar
     4    25    26   ar
     5    26    27   ar
     6    27    18    1
     7    18    19   ar
     8    19    20    1
     9    19    21   ar
    10    21    22   ar
    11    22    23   ar
    12    23    17    1
    13    17     1    1
    14     1     2    1
    15     2     3   ar
    16     3     4   ar
    17     4     7    1
    18     7     8   ar
    19     8     9   ar
    20     9    10   ar
    21    10    13    1
    22    13    14    1
    23    10    11   ar
    24    11    15    1
    25    15    16    1
    26    11    12   ar
    27     4     5   ar
    28     5     6   ar
    29    27    28   ar
    30    28    29   ar
    31    29    24   ar
    32    23    18   ar
    33     6     2   ar
    34    12     7   ar
@<TRIPOS>MOLECULE
*****
 31 34 0 0 0
SMALL
GASTEIGER

@<TRIPOS>ATOM
      1 C           4.9621   -4.4208   19.6289 C.3     1  UNL1        0.1528
      2 C           5.2993   -3.9520   21.0133 C.ar    1  UNL1        0.2480
      3 N           4.4359   -3.0917   21.8876 N.ar    1  UNL1       -0.1900
      4 C           5.1621   -2.8693   23.1812 C.ar    1  UNL1        0.2034
      5 N           6.4743   -3.5922   23.1062 N.ar    1  UNL1       -0.0560
      6 O           6.5591   -4.2614   21.7664 O.2     1  UNL1       -0.3361
      7 C           4.6637   -2.0653   24.3451 C.ar    1  UNL1        0.0423
      8 C           3.6159   -1.0125   24.1358 C.ar    1  UNL1        0.0065
      9 C           3.1174   -0.2084   25.2998 C.ar    1  UNL1        0.0401
     10 C           3.6667   -0.4571   26.6733 C.ar    1  UNL1        0.1724
     11 C           4.7145   -1.5099   26.8827 C.ar    1  UNL1        0.1725
     12 C           5.2130   -2.3140   25.7187 C.ar    1  UNL1        0.0432
     13 O           3.1682    0.3470   27.8373 O.3     1  UNL1       -0.4684
     14 C           2.1041   -0.2123   28.7344 C.3     1  UNL1        0.2526
     15 O           5.2638   -1.7585   28.2562 O.3     1  UNL1       -0.4684
     16 C           6.3364   -2.7870   28.4601 C.3     1  UNL1        0.2526
     17 S           4.3446   -3.4716   18.6453 S.3     1  UNL1       -0.0653
     18 N           4.6647   -0.8425   18.2844 N.ar    1  UNL1       -0.2724
     19 C           5.7380    0.0244   17.6957 C.ar    1  UNL1        0.1479
     20 C           5.7061    1.5206   17.5943 C.3     1  UNL1        0.0742
     21 N           6.8488   -0.8677   17.2263 N.ar    1  UNL1       -0.1325
     22 N           6.4620   -2.2858   17.5248 N.ar    1  UNL1       -0.1221
     23 C           5.1122   -2.2703   18.1788 C.ar    1  UNL1        0.1973
     24 C           0.7838    0.5890   20.0563 C.ar    1  UNL1        0.1388
     25 C           1.7575   -0.1763   20.9025 C.ar    1  UNL1        0.0384
     26 C           3.0511   -0.6534   20.3119 C.ar    1  UNL1        0.0207
     27 C           3.3710   -0.3653   18.8751 C.ar    1  UNL1        0.0671
     28 C           2.3973    0.3999   18.0288 C.ar    1  UNL1        0.0207
     29 C           1.1037    0.8771   18.6194 C.ar    1  UNL1        0.0384
     30 C          -0.9166    2.5025   20.5005 C.3     1  UNL1        0.2525
     31 O          -0.5099    1.0661   20.6469 O.3     1  UNL1       -0.4714
@<TRIPOS>BOND
     1    30    31    1
     2    31    24    1
     3    24    25   ar
     4    25    26   ar
     5    26    27   ar
     6    27    18    1
     7    18    19   ar
     8    19    20    1
     9    19    21   ar
    10    21    22   ar
    11    22    23   ar
    12    23    17    1
    13    17     1    1
    14     1     2    1
    15     2     3   ar
    16     3     4   ar
    17     4     7    1
    18     7     8   ar
    19     8     9   ar
    20     9    10   ar
    21    10    13    1
    22    13    14    1
    23    10    11   ar
    24    11    15    1
    25    15    16    1
    26    11    12   ar
    27     4     5   ar
    28     5     6   ar
    29    27    28   ar
    30    28    29   ar
    31    29    24   ar
    32    23    18   ar
    33     6     2   ar
    34    12     7   ar
@<TRIPOS>MOLECULE
*****
 31 34 0 0 0
SMALL
GASTEIGER

@<TRIPOS>ATOM
      1 C           5.2699   -4.3357   19.4972 C.3     1  UNL1        0.1528
      2 C           6.0001   -3.9077   20.7355 C.ar    1  UNL1        0.2480
      3 N           5.6525   -4.2951   22.1423 N.ar    1  UNL1       -0.1900
      4 C           6.6438   -3.6440   23.0608 C.ar    1  UNL1        0.2034
      5 N           7.6040   -2.8542   22.2216 N.ar    1  UNL1       -0.0560
      6 O           7.2062   -3.0172   20.7845 O.2     1  UNL1       -0.3361
      7 C           6.6702   -3.7619   24.5559 C.ar    1  UNL1        0.0423
      8 C           7.3730   -4.9172   25.2049 C.ar    1  UNL1        0.0065
      9 C           7.3994   -5.0352   26.7000 C.ar    1  UNL1        0.0401
     10 C           6.7229   -3.9978   27.5462 C.ar    1  UNL1        0.1724
     11 C           6.0200   -2.8424   26.8973 C.ar    1  UNL1        0.1725
     12 C           5.9936   -2.7244   25.4022 C.ar    1  UNL1        0.0432
     13 O           6.7493   -4.1158   29.0413 O.3     1  UNL1       -0.4684
     14 C           6.7815   -5.4696   29.6863 C.3     1  UNL1        0.2526
     15 O           5.3435   -1.8051   27.7435 O.3     1  UNL1       -0.4684
     16 C           3.9338   -1.3922   27.4399 C.3     1  UNL1        0.2526
     17 S           4.5236   -3.3240   18.6791 S.3     1  UNL1       -0.0653
     18 N           4.7316   -0.6925   18.2585 N.ar    1  UNL1       -0.2724
     19 C           5.7536    0.2025   17.6224 C.ar    1  UNL1        0.1479
     20 C           5.6611    1.6940   17.4931 C.3     1  UNL1        0.0742
     21 N           6.8843   -0.6560   17.1381 N.ar    1  UNL1       -0.1325
     22 N           6.5612   -2.0815   17.4750 N.ar    1  UNL1       -0.1221
     23 C           5.2308   -2.1040   18.1675 C.ar    1  UNL1        0.1973
     24 C           0.8499    0.6260   20.1144 C.ar    1  UNL1        0.1388
     25 C           1.0635    0.7744   18.6371 C.ar    1  UNL1        0.0384
     26 C           2.3574    0.3349   18.0185 C.ar    1  UNL1        0.0207
     27 C           3.4377   -0.2530   18.8771 C.ar    1  UNL1        0.0671
     28 C           3.2241   -0.4014   20.3544 C.ar    1  UNL1        0.0207
     29 C           1.9302    0.0381   20.9730 C.ar    1  UNL1        0.0384
     30 C          -0.8689    2.5012   20.6429 C.3     1  UNL1        0.2525
     31 O          -0.4440    1.0655   20.7330 O.3     1  UNL1       -0.4714
@<TRIPOS>BOND
     1    30    31    1
     2    31    24    1
     3    24    25   ar
     4    25    26   ar
     5    26    27   ar
     6    27    18    1
     7    18    19   ar
     8    19    20    1
     9    19    21   ar
    10    21    22   ar
    11    22    23   ar
    12    23    17    1
    13    17     1    1
    14     1     2    1
    15     2     3   ar
    16     3     4   ar
    17     4     7    1
    18     7     8   ar
    19     8     9   ar
    20     9    10   ar
    21    10    13    1
    22    13    14    1
    23    10    11   ar
    24    11    15    1
    25    15    16    1
    26    11    12   ar
    27     4     5   ar
    28     5     6   ar
    29    27    28   ar
    30    28    29   ar
    31    29    24   ar
    32    23    18   ar
    33     6     2   ar
    34    12     7   ar
