@<TRIPOS>MOLECULE
*****
 30 32 0 0 0
SMALL
GASTEIGER

@<TRIPOS>ATOM
      1 C           7.5291   -5.2160   26.4198 C.ar    1  UNL1        0.0594
      2 C           7.8615   -6.0258   25.2017 C.ar    1  UNL1        0.0164
      3 C           7.5446   -5.4915   23.8365 C.ar    1  UNL1        0.0181
      4 C           6.8953   -4.1474   23.6892 C.ar    1  UNL1        0.0758
      5 C           6.5629   -3.3375   24.9072 C.ar    1  UNL1        0.1546
      6 F           5.9136   -1.9934   24.7599 F       1  UNL1       -0.2028
      7 C           6.8798   -3.8718   26.2725 C.ar    1  UNL1        0.0459
      8 N           6.5783   -3.6131   22.3238 N.pl3   1  UNL1       -0.3023
      9 C           5.1502   -3.4402   21.8990 C.3     1  UNL1        0.1124
     10 C           4.8333   -2.9060   20.5336 C.3     1  UNL1        0.1149
     11 N           5.9446   -2.5446   19.5931 N.am    1  UNL1       -0.2740
     12 C           5.6277   -2.0104   18.2278 C.2     1  UNL1        0.2557
     13 O           6.7390   -1.6491   17.2873 O.2     1  UNL1       -0.2722
     14 C           7.3728   -2.7176   20.0180 C.3     1  UNL1        0.1149
     15 C           7.6896   -3.2518   21.3833 C.3     1  UNL1        0.1124
     16 C           4.1996   -1.8375   17.8029 C.3     1  UNL1        0.2232
     17 O           3.8819   -1.3619   16.4162 O.3     1  UNL1       -0.3737
     18 H           4.1952   -0.4504   16.3073 H       1  UNL1        0.2110
     19 C           7.8794   -6.0598   30.1922 C.3     1  UNL1        0.2100
     20 C           7.2974   -5.2350   29.0827 C.3     1  UNL1        0.1468
     21 N           7.8460   -5.7502   27.7851 N.am    1  UNL1       -0.2212
     22 C           8.7672   -6.8934   28.0927 C.2     1  UNL1        0.4088
     23 O           9.5332   -7.7031   27.0889 O.2     1  UNL1       -0.2258
     24 O           8.7878   -7.0848   29.5803 O.3     1  UNL1       -0.4345
     25 C           7.6019   -5.8896   31.6564 C.3     1  UNL1        0.1352
     26 C           5.2805   -2.8625   32.7510 C.3     1  UNL1        0.0946
     27 C           6.4857   -3.6337   32.3008 C.2     1  UNL1        0.2231
     28 O           7.7801   -2.9202   32.0448 O.2     1  UNL1       -0.2751
     29 N           6.3966   -5.1184   32.1066 N.am    1  UNL1       -0.3011
     30 H           5.5471   -5.5867   32.2746 H       1  UNL1        0.1495
@<TRIPOS>BOND
     1    26    27    1
     2    27    28    2
     3    27    29   am
     4    29    25    1
     5    19    25    1
     6    19    20    1
     7    20    21    1
     8    21     1    1
     9     1     2   ar
    10     2     3   ar
    11     3     4   ar
    12     4     8    1
    13     8     9    1
    14     9    10    1
    15    10    11    1
    16    11    12   am
    17    12    13    2
    18    12    16    1
    19    16    17    1
    20    11    14    1
    21    14    15    1
    22     4     5   ar
    23     5     6    1
    24     5     7   ar
    25    21    22   am
    26    22    23    2
    27    22    24    1
    28    24    19    1
    29     7     1   ar
    30    15     8    1
    31    29    30    1
    32    17    18    1
@<TRIPOS>MOLECULE
*****
 30 32 0 0 0
SMALL
GASTEIGER

@<TRIPOS>ATOM
      1 C           5.7798   -0.8688   34.2360 C.ar    1  UNL1        0.0594
      2 C           4.7175   -1.8091   33.7490 C.ar    1  UNL1        0.0164
      3 C           5.0113   -2.7528   32.6207 C.ar    1  UNL1        0.0181
      4 C           6.3672   -2.7561   31.9794 C.ar    1  UNL1        0.0758
      5 C           7.4295   -1.8157   32.4664 C.ar    1  UNL1        0.1546
      6 F           8.7855   -1.8189   31.8250 F       1  UNL1       -0.2028
      7 C           7.1358   -0.8720   33.5947 C.ar    1  UNL1        0.0459
      8 N           6.6609   -3.6998   30.8510 N.pl3   1  UNL1       -0.3023
      9 C           7.1947   -5.0714   31.1400 C.3     1  UNL1        0.1124
     10 C           7.4884   -6.0152   30.0116 C.3     1  UNL1        0.1149
     11 N           7.2483   -5.5871   28.5942 N.am    1  UNL1       -0.2740
     12 C           7.5419   -6.5308   27.4658 C.2     1  UNL1        0.2557
     13 O           7.3018   -6.1028   26.0484 O.2     1  UNL1       -0.2722
     14 C           6.7145   -4.2154   28.3052 C.3     1  UNL1        0.1149
     15 C           6.4208   -3.2718   29.4335 C.3     1  UNL1        0.1124
     16 C           8.0757   -7.9024   27.7549 C.3     1  UNL1        0.2232
     17 O           7.3876   -9.1095   27.1896 O.3     1  UNL1       -0.3737
     18 H           6.5050   -9.1926   27.5833 H       1  UNL1        0.2110
     19 C           4.4021    1.7405   36.7579 C.3     1  UNL1        0.2100
     20 C           4.2908    0.9747   35.4729 C.3     1  UNL1        0.1468
     21 N           5.4861    0.0750   35.3645 N.am    1  UNL1       -0.2212
     22 C           6.3361    0.2846   36.5824 C.2     1  UNL1        0.4088
     23 O           7.6290   -0.4126   36.8860 O.2     1  UNL1       -0.2258
     24 O           5.6662    1.3139   37.4437 O.3     1  UNL1       -0.4345
     25 C           3.4215    2.7546   37.2677 C.3     1  UNL1        0.1352
     26 C           0.6048    0.9384   39.3932 C.3     1  UNL1        0.0946
     27 C           1.9563    1.3774   38.9128 C.2     1  UNL1        0.2231
     28 O           3.1941    0.8780   39.5972 O.2     1  UNL1       -0.2751
     29 N           2.0699    2.3157   37.7481 N.am    1  UNL1       -0.3011
     30 H           1.2575    2.6434   37.2989 H       1  UNL1        0.1495
@<TRIPOS>BOND
     1    26    27    1
     2    27    28    2
     3    27    29   am
     4    29    25    1
     5    19    25    1
     6    19    20    1
     7    20    21    1
     8    21     1    1
     9     1     2   ar
    10     2     3   ar
    11     3     4   ar
    12     4     8    1
    13     8     9    1
    14     9    10    1
    15    10    11    1
    16    11    12   am
    17    12    13    2
    18    12    16    1
    19    16    17    1
    20    11    14    1
    21    14    15    1
    22     4     5   ar
    23     5     6    1
    24     5     7   ar
    25    21    22   am
    26    22    23    2
    27    22    24    1
    28    24    19    1
    29     7     1   ar
    30    15     8    1
    31    29    30    1
    32    17    18    1
@<TRIPOS>MOLECULE
*****
 30 32 0 0 0
SMALL
GASTEIGER

@<TRIPOS>ATOM
      1 C           6.5155   -3.8194   27.1165 C.ar    1  UNL1        0.0594
      2 C           5.8953   -2.5256   26.6790 C.ar    1  UNL1        0.0164
      3 C           5.7277   -2.2305   25.2179 C.ar    1  UNL1        0.0181
      4 C           6.1803   -3.2293   24.1944 C.ar    1  UNL1        0.0758
      5 C           6.8005   -4.5231   24.6319 C.ar    1  UNL1        0.1546
      6 F           7.2530   -5.5218   23.6083 F       1  UNL1       -0.2028
      7 C           6.9681   -4.8181   26.0929 C.ar    1  UNL1        0.0459
      8 N           6.0126   -2.9342   22.7332 N.pl3   1  UNL1       -0.3023
      9 C           4.6495   -2.6450   22.1780 C.3     1  UNL1        0.1124
     10 C           4.4819   -2.3499   20.7169 C.3     1  UNL1        0.1149
     11 N           5.6774   -2.3440   19.8110 N.am    1  UNL1       -0.2740
     12 C           5.5098   -2.0489   18.3499 C.2     1  UNL1        0.2557
     13 O           6.7053   -2.0430   17.4440 O.2     1  UNL1       -0.2722
     14 C           7.0406   -2.6331   20.3662 C.3     1  UNL1        0.1149
     15 C           7.2082   -2.9282   21.8273 C.3     1  UNL1        0.1124
     16 C           4.1467   -1.7598   17.7947 C.3     1  UNL1        0.2232
     17 O           3.9898   -1.3769   16.3529 O.3     1  UNL1       -0.3737
     18 H           4.4135   -0.5181   16.1984 H       1  UNL1        0.2110
     19 C           6.6968   -3.8794   30.9933 C.3     1  UNL1        0.2100
     20 C           6.3865   -3.1729   29.7070 C.3     1  UNL1        0.1468
     21 N           6.6832   -4.1145   28.5777 N.am    1  UNL1       -0.2212
     22 C           7.1769   -5.4029   29.1660 C.2     1  UNL1        0.4088
     23 O           7.5898   -6.6225   28.3965 O.2     1  UNL1       -0.2258
     24 O           7.1854   -5.2576   30.6589 O.3     1  UNL1       -0.4345
     25 C           6.5453   -3.3080   32.3719 C.3     1  UNL1        0.1352
     26 C           3.9487   -0.4897   33.4040 C.3     1  UNL1        0.0946
     27 C           4.5753   -1.8396   33.2163 C.2     1  UNL1        0.2231
     28 O           3.8586   -3.0710   33.6853 O.2     1  UNL1       -0.2751
     29 N           5.9187   -1.9581   32.5596 N.am    1  UNL1       -0.3011
     30 H           6.3891   -1.1499   32.2518 H       1  UNL1        0.1495
@<TRIPOS>BOND
     1    26    27    1
     2    27    28    2
     3    27    29   am
     4    29    25    1
     5    19    25    1
     6    19    20    1
     7    20    21    1
     8    21     1    1
     9     1     2   ar
    10     2     3   ar
    11     3     4   ar
    12     4     8    1
    13     8     9    1
    14     9    10    1
    15    10    11    1
    16    11    12   am
    17    12    13    2
    18    12    16    1
    19    16    17    1
    20    11    14    1
    21    14    15    1
    22     4     5   ar
    23     5     6    1
    24     5     7   ar
    25    21    22   am
    26    22    23    2
    27    22    24    1
    28    24    19    1
    29     7     1   ar
    30    15     8    1
    31    29    30    1
    32    17    18    1
@<TRIPOS>MOLECULE
*****
 30 32 0 0 0
SMALL
GASTEIGER

@<TRIPOS>ATOM
      1 C           7.7251   -5.4152   25.8138 C.ar    1  UNL1        0.0594
      2 C           6.7510   -4.2748   25.7886 C.ar    1  UNL1        0.0164
      3 C           6.3839   -3.6307   24.4846 C.ar    1  UNL1        0.0181
      4 C           6.9910   -4.1269   23.2059 C.ar    1  UNL1        0.0758
      5 C           7.9652   -5.2672   23.2311 C.ar    1  UNL1        0.1546
      6 F           8.5723   -5.7634   21.9523 F       1  UNL1       -0.2028
      7 C           8.3322   -5.9114   24.5350 C.ar    1  UNL1        0.0459
      8 N           6.6239   -3.4827   21.9019 N.pl3   1  UNL1       -0.3023
      9 C           5.1830   -3.3679   21.5015 C.3     1  UNL1        0.1124
     10 C           4.8159   -2.7237   20.1975 C.3     1  UNL1        0.1149
     11 N           5.8898   -2.1943   19.2940 N.am    1  UNL1       -0.2740
     12 C           5.5228   -1.5501   17.9900 C.2     1  UNL1        0.2557
     13 O           6.5968   -1.0207   17.0865 O.2     1  UNL1       -0.2722
     14 C           7.3309   -2.3091   19.6944 C.3     1  UNL1        0.1149
     15 C           7.6979   -2.9533   20.9984 C.3     1  UNL1        0.1124
     16 C           4.0818   -1.4354   17.5896 C.3     1  UNL1        0.2232
     17 O           3.7123   -1.3312   16.1395 O.3     1  UNL1       -0.3737
     18 H           4.0479   -0.4953   15.7796 H       1  UNL1        0.2110
     19 C           8.8313   -6.3783   29.4075 C.3     1  UNL1        0.2100
     20 C           8.5899   -5.3502   28.3423 C.3     1  UNL1        0.1468
     21 N           8.0922   -6.0594   27.1178 N.am    1  UNL1       -0.2212
     22 C           8.0261   -7.5258   27.4262 C.2     1  UNL1        0.4088
     23 O           7.5813   -8.6056   26.4848 O.2     1  UNL1       -0.2258
     24 O           8.4829   -7.7229   28.8413 O.3     1  UNL1       -0.4345
     25 C           9.3331   -6.1090   30.7952 C.3     1  UNL1        0.1352
     26 C           8.2915   -2.5876   32.3002 C.3     1  UNL1        0.0946
     27 C           8.1980   -3.9976   31.7968 C.2     1  UNL1        0.2231
     28 O           6.8758   -4.7060   31.7918 O.2     1  UNL1       -0.2751
     29 N           9.4266   -4.6991   31.2985 N.am    1  UNL1       -0.3011
     30 H          10.2944   -4.2341   31.3018 H       1  UNL1        0.1495
@<TRIPOS>BOND
     1    26    27    1
     2    27    28    2
     3    27    29   am
     4    29    25    1
     5    19    25    1
     6    19    20    1
     7    20    21    1
     8    21     1    1
     9     1     2   ar
    10     2     3   ar
    11     3     4   ar
    12     4     8    1
    13     8     9    1
    14     9    10    1
    15    10    11    1
    16    11    12   am
    17    12    13    2
    18    12    16    1
    19    16    17    1
    20    11    14    1
    21    14    15    1
    22     4     5   ar
    23     5     6    1
    24     5     7   ar
    25    21    22   am
    26    22    23    2
    27    22    24    1
    28    24    19    1
    29     7     1   ar
    30    15     8    1
    31    29    30    1
    32    17    18    1
@<TRIPOS>MOLECULE
*****
 30 32 0 0 0
SMALL
GASTEIGER

@<TRIPOS>ATOM
      1 C           6.7658   -2.9219   32.0067 C.ar    1  UNL1        0.0594
      2 C           5.3371   -3.0530   32.4441 C.ar    1  UNL1        0.0164
      3 C           4.7759   -2.1089   33.4657 C.ar    1  UNL1        0.0181
      4 C           5.6434   -1.0337   34.0499 C.ar    1  UNL1        0.0758
      5 C           7.0722   -0.9026   33.6124 C.ar    1  UNL1        0.1546
      6 F           7.9397    0.1727   34.1966 F       1  UNL1       -0.2028
      7 C           7.6334   -1.8466   32.5908 C.ar    1  UNL1        0.0459
      8 N           5.0821   -0.0896   35.0715 N.pl3   1  UNL1       -0.3023
      9 C           4.0566    0.9282   34.6687 C.3     1  UNL1        0.1124
     10 C           3.4953    1.8723   35.6904 C.3     1  UNL1        0.1149
     11 N           3.9596    1.7986   37.1148 N.am    1  UNL1       -0.2740
     12 C           3.3984    2.7426   38.1364 C.2     1  UNL1        0.2557
     13 O           3.8627    2.6688   39.5608 O.2     1  UNL1       -0.2722
     14 C           4.9852    0.7807   37.5176 C.3     1  UNL1        0.1149
     15 C           5.5464   -0.1634   36.4959 C.3     1  UNL1        0.1124
     16 C           2.3729    3.7604   37.7336 C.3     1  UNL1        0.2232
     17 O           0.9128    3.4251   37.8106 O.3     1  UNL1       -0.3737
     18 H           0.7075    2.7257   37.1705 H       1  UNL1        0.2110
     19 C           8.4383   -4.7361   29.0105 C.3     1  UNL1        0.2100
     20 C           8.0574   -3.4783   29.7334 C.3     1  UNL1        0.1468
     21 N           7.3271   -3.8660   30.9850 N.am    1  UNL1       -0.2212
     22 C           7.2566   -5.3634   31.0356 C.2     1  UNL1        0.4088
     23 O           6.6125   -6.1798   32.1166 O.2     1  UNL1       -0.2258
     24 O           7.9434   -5.9013   29.8153 O.3     1  UNL1       -0.4345
     25 C           9.1833   -4.8151   27.7110 C.3     1  UNL1        0.1352
     26 C           7.8709   -7.6582   25.2728 C.3     1  UNL1        0.0946
     27 C           7.9165   -6.4000   26.0882 C.2     1  UNL1        0.2231
     28 O           6.7408   -5.4685   26.0963 O.2     1  UNL1       -0.2751
     29 N           9.1377   -6.0733   26.8955 N.am    1  UNL1       -0.3011
     30 H           9.9094   -6.6846   26.8903 H       1  UNL1        0.1495
@<TRIPOS>BOND
     1    26    27    1
     2    27    28    2
     3    27    29   am
     4    29    25    1
     5    19    25    1
     6    19    20    1
     7    20    21    1
     8    21     1    1
     9     1     2   ar
    10     2     3   ar
    11     3     4   ar
    12     4     8    1
    13     8     9    1
    14     9    10    1
    15    10    11    1
    16    11    12   am
    17    12    13    2
    18    12    16    1
    19    16    17    1
    20    11    14    1
    21    14    15    1
    22     4     5   ar
    23     5     6    1
    24     5     7   ar
    25    21    22   am
    26    22    23    2
    27    22    24    1
    28    24    19    1
    29     7     1   ar
    30    15     8    1
    31    29    30    1
    32    17    18    1
@<TRIPOS>MOLECULE
*****
 30 32 0 0 0
SMALL
GASTEIGER

@<TRIPOS>ATOM
      1 C           1.2710    1.0200   26.9146 C.ar    1  UNL1        0.0594
      2 C           2.6420    0.4724   26.6492 C.ar    1  UNL1        0.0164
      3 C           3.1256    0.3127   25.2383 C.ar    1  UNL1        0.0181
      4 C           2.2382    0.7006   24.0929 C.ar    1  UNL1        0.0758
      5 C           0.8672    1.2482   24.3583 C.ar    1  UNL1        0.1546
      6 F          -0.0202    1.6362   23.2128 F       1  UNL1       -0.2028
      7 C           0.3836    1.4079   25.7691 C.ar    1  UNL1        0.0459
      8 N           2.7218    0.5409   22.6819 N.pl3   1  UNL1       -0.3023
      9 C           2.5806   -0.7802   21.9857 C.3     1  UNL1        0.1124
     10 C           3.0643   -0.9399   20.5748 C.3     1  UNL1        0.1149
     11 N           3.6892    0.2215   19.8602 N.am    1  UNL1       -0.2740
     12 C           4.1728    0.0618   18.4493 C.2     1  UNL1        0.2557
     13 O           4.7977    1.2232   17.7347 O.2     1  UNL1       -0.2722
     14 C           3.8304    1.5426   20.5565 C.3     1  UNL1        0.1149
     15 C           3.3467    1.7023   21.9673 C.3     1  UNL1        0.1124
     16 C           4.0316   -1.2592   17.7531 C.3     1  UNL1        0.2232
     17 O           3.7939   -1.3053   16.2727 O.3     1  UNL1       -0.3737
     18 H           2.9253   -0.9227   16.0726 H       1  UNL1        0.2110
     19 C           0.5569    1.9596   30.6123 C.3     1  UNL1        0.2100
     20 C           1.3343    2.1377   29.3420 C.3     1  UNL1        0.1468
     21 N           0.7873    1.1797   28.3255 N.am    1  UNL1       -0.2212
     22 C          -0.3282    0.4095   28.9677 C.2     1  UNL1        0.4088
     23 O          -1.1560   -0.6556   28.3118 O.2     1  UNL1       -0.2258
     24 O          -0.4706    0.8915   30.3810 O.3     1  UNL1       -0.4345
     25 C           0.7696    2.7166   31.8897 C.3     1  UNL1        0.1352
     26 C           2.7595    2.1482   35.2760 C.3     1  UNL1        0.0946
     27 C           2.1421    2.8326   34.0926 C.2     1  UNL1        0.2231
     28 O           2.2800    4.3171   33.9284 O.2     1  UNL1       -0.2751
     29 N           1.3869    2.0323   33.0732 N.am    1  UNL1       -0.3011
     30 H           1.2964    1.0579   33.1809 H       1  UNL1        0.1495
@<TRIPOS>BOND
     1    26    27    1
     2    27    28    2
     3    27    29   am
     4    29    25    1
     5    19    25    1
     6    19    20    1
     7    20    21    1
     8    21     1    1
     9     1     2   ar
    10     2     3   ar
    11     3     4   ar
    12     4     8    1
    13     8     9    1
    14     9    10    1
    15    10    11    1
    16    11    12   am
    17    12    13    2
    18    12    16    1
    19    16    17    1
    20    11    14    1
    21    14    15    1
    22     4     5   ar
    23     5     6    1
    24     5     7   ar
    25    21    22   am
    26    22    23    2
    27    22    24    1
    28    24    19    1
    29     7     1   ar
    30    15     8    1
    31    29    30    1
    32    17    18    1
@<TRIPOS>MOLECULE
*****
 30 32 0 0 0
SMALL
GASTEIGER

@<TRIPOS>ATOM
      1 C          -0.9263    2.8248   26.8962 C.ar    1  UNL1        0.0594
      2 C           0.2825    3.5634   27.3891 C.ar    1  UNL1        0.0164
      3 C           1.1183    2.9830   28.4912 C.ar    1  UNL1        0.0181
      4 C           0.7452    1.6639   29.1002 C.ar    1  UNL1        0.0758
      5 C          -0.4636    0.9253   28.6072 C.ar    1  UNL1        0.1546
      6 F          -0.8367   -0.3937   29.2162 F       1  UNL1       -0.2028
      7 C          -1.2994    1.5058   27.5052 C.ar    1  UNL1        0.0459
      8 N           1.5811    1.0835   30.2023 N.pl3   1  UNL1       -0.3023
      9 C           2.1954   -0.2754   30.0415 C.3     1  UNL1        0.1124
     10 C           3.0313   -0.8559   31.1436 C.3     1  UNL1        0.1149
     11 N           3.2528   -0.0773   32.4064 N.am    1  UNL1       -0.2740
     12 C           4.0886   -0.6577   33.5084 C.2     1  UNL1        0.2557
     13 O           4.3102    0.1209   34.7713 O.2     1  UNL1       -0.2722
     14 C           2.6385    1.2817   32.5671 C.3     1  UNL1        0.1149
     15 C           1.8027    1.8621   31.4651 C.3     1  UNL1        0.1124
     16 C           4.7029   -2.0166   33.3476 C.3     1  UNL1        0.2232
     17 O           3.8534   -3.2450   33.4872 O.3     1  UNL1       -0.3737
     18 H           3.5368   -3.3171   34.4013 H       1  UNL1        0.2110
     19 C          -2.4752    4.2180   23.6211 C.3     1  UNL1        0.2100
     20 C          -1.3261    3.6163   24.3744 C.3     1  UNL1        0.1468
     21 N          -1.7622    3.4052   25.7941 N.am    1  UNL1       -0.2212
     22 C          -3.1808    3.8765   25.9181 C.2     1  UNL1        0.4088
     23 O          -4.0127    3.8501   27.1660 O.2     1  UNL1       -0.2258
     24 O          -3.6215    4.3788   24.5752 O.3     1  UNL1       -0.4345
     25 C          -2.4777    4.5930   22.1688 C.3     1  UNL1        0.1352
     26 C          -6.0665    4.4575   20.4800 C.3     1  UNL1        0.0946
     27 C          -4.7927    4.0182   21.1390 C.2     1  UNL1        0.2231
     28 O          -4.5600    2.5647   21.4274 O.2     1  UNL1       -0.2751
     29 N          -3.7515    5.0324   21.5097 N.am    1  UNL1       -0.3011
     30 H          -3.9042    5.9864   21.3205 H       1  UNL1        0.1495
@<TRIPOS>BOND
     1    26    27    1
     2    27    28    2
     3    27    29   am
     4    29    25    1
     5    19    25    1
     6    19    20    1
     7    20    21    1
     8    21     1    1
     9     1     2   ar
    10     2     3   ar
    11     3     4   ar
    12     4     8    1
    13     8     9    1
    14     9    10    1
    15    10    11    1
    16    11    12   am
    17    12    13    2
    18    12    16    1
    19    16    17    1
    20    11    14    1
    21    14    15    1
    22     4     5   ar
    23     5     6    1
    24     5     7   ar
    25    21    22   am
    26    22    23    2
    27    22    24    1
    28    24    19    1
    29     7     1   ar
    30    15     8    1
    31    29    30    1
    32    17    18    1
@<TRIPOS>MOLECULE
*****
 30 32 0 0 0
SMALL
GASTEIGER

@<TRIPOS>ATOM
      1 C           5.1920   -2.8863   22.2472 C.ar    1  UNL1        0.0594
      2 C           4.6078   -2.1533   23.4183 C.ar    1  UNL1        0.0164
      3 C           5.0983   -2.4442   24.8056 C.ar    1  UNL1        0.0181
      4 C           6.1730   -3.4681   25.0219 C.ar    1  UNL1        0.0758
      5 C           6.7572   -4.2011   23.8508 C.ar    1  UNL1        0.1546
      6 F           7.8318   -5.2249   24.0671 F       1  UNL1       -0.2028
      7 C           6.2667   -3.9102   22.4635 C.ar    1  UNL1        0.0459
      8 N           6.6635   -3.7590   26.4093 N.pl3   1  UNL1       -0.3023
      9 C           6.3661   -5.0834   27.0477 C.3     1  UNL1        0.1124
     10 C           6.8566   -5.3743   28.4351 C.3     1  UNL1        0.1149
     11 N           7.6445   -4.3407   29.1841 N.am    1  UNL1       -0.2740
     12 C           8.1350   -4.6315   30.5714 C.2     1  UNL1        0.2557
     13 O           8.9229   -3.5980   31.3204 O.2     1  UNL1       -0.2722
     14 C           7.9419   -3.0163   28.5457 C.3     1  UNL1        0.1149
     15 C           7.4514   -2.7254   27.1583 C.3     1  UNL1        0.1124
     16 C           7.8376   -5.9559   31.2098 C.3     1  UNL1        0.2232
     17 O           6.6528   -6.1015   32.1182 O.3     1  UNL1       -0.3737
     18 H           6.7879   -5.5642   32.9144 H       1  UNL1        0.2110
     19 C           4.0356   -1.4131   18.8474 C.3     1  UNL1        0.2100
     20 C           4.5571   -1.2359   20.2427 C.3     1  UNL1        0.1468
     21 N           4.7015   -2.5954   20.8598 N.am    1  UNL1       -0.2212
     22 C           4.2694   -3.6129   19.8460 C.2     1  UNL1        0.4088
     23 O           4.2518   -5.1000   20.0415 O.2     1  UNL1       -0.2258
     24 O           3.8578   -2.8823   18.6023 O.3     1  UNL1       -0.4345
     25 C           3.7434   -0.3143   17.8692 C.3     1  UNL1        0.1352
     26 C           1.7641    2.9272   19.0205 C.3     1  UNL1        0.0946
     27 C           2.0454    1.5389   18.5270 C.2     1  UNL1        0.2231
     28 O           0.9101    0.6154   18.1978 O.2     1  UNL1       -0.2751
     29 N           3.4620    1.0740   18.3626 N.am    1  UNL1       -0.3011
     30 H           4.2072    1.6801   18.5786 H       1  UNL1        0.1495
@<TRIPOS>BOND
     1    26    27    1
     2    27    28    2
     3    27    29   am
     4    29    25    1
     5    19    25    1
     6    19    20    1
     7    20    21    1
     8    21     1    1
     9     1     2   ar
    10     2     3   ar
    11     3     4   ar
    12     4     8    1
    13     8     9    1
    14     9    10    1
    15    10    11    1
    16    11    12   am
    17    12    13    2
    18    12    16    1
    19    16    17    1
    20    11    14    1
    21    14    15    1
    22     4     5   ar
    23     5     6    1
    24     5     7   ar
    25    21    22   am
    26    22    23    2
    27    22    24    1
    28    24    19    1
    29     7     1   ar
    30    15     8    1
    31    29    30    1
    32    17    18    1
@<TRIPOS>MOLECULE
*****
 30 32 0 0 0
SMALL
GASTEIGER

@<TRIPOS>ATOM
      1 C          -1.0391    2.7964   27.1741 C.ar    1  UNL1        0.0594
      2 C           0.0946    3.5938   27.7474 C.ar    1  UNL1        0.0164
      3 C           0.9717    2.9956   28.8070 C.ar    1  UNL1        0.0181
      4 C           0.7151    1.6001   29.2933 C.ar    1  UNL1        0.0758
      5 C          -0.4186    0.8026   28.7200 C.ar    1  UNL1        0.1546
      6 F          -0.6752   -0.5930   29.2062 F       1  UNL1       -0.2028
      7 C          -1.2957    1.4008   27.6604 C.ar    1  UNL1        0.0459
      8 N           1.5924    1.0019   30.3529 N.pl3   1  UNL1       -0.3023
      9 C           2.2304   -0.3373   30.1305 C.3     1  UNL1        0.1124
     10 C           3.1076   -0.9355   31.1902 C.3     1  UNL1        0.1149
     11 N           3.3467   -0.1944   32.4722 N.am    1  UNL1       -0.2740
     12 C           4.2239   -0.7925   33.5318 C.2     1  UNL1        0.2557
     13 O           4.4630   -0.0514   34.8138 O.2     1  UNL1       -0.2722
     14 C           2.7086    1.1448   32.6946 C.3     1  UNL1        0.1149
     15 C           1.8315    1.7429   31.6350 C.3     1  UNL1        0.1124
     16 C           4.8619   -2.1317   33.3094 C.3     1  UNL1        0.2232
     17 O           4.0496   -3.3838   33.4602 O.3     1  UNL1       -0.3737
     18 H           3.7797   -3.4844   34.3864 H       1  UNL1        0.2110
     19 C          -3.7497    4.5401   25.0113 C.3     1  UNL1        0.2100
     20 C          -3.2143    4.1103   26.3449 C.3     1  UNL1        0.1468
     21 N          -1.9163    3.3946   26.1145 N.am    1  UNL1       -0.2212
     22 C          -1.6496    3.3821   24.6384 C.2     1  UNL1        0.4088
     23 O          -0.4588    2.7692   23.9628 O.2     1  UNL1       -0.2258
     24 O          -2.7826    4.0900   23.9566 O.3     1  UNL1       -0.4345
     25 C          -5.0278    5.2886   24.7739 C.3     1  UNL1        0.1352
     26 C          -7.2519    6.2486   27.9175 C.3     1  UNL1        0.0946
     27 C          -6.1599    6.2844   26.8898 C.2     1  UNL1        0.2231
     28 O          -5.1078    7.3519   26.9502 O.2     1  UNL1       -0.2751
     29 N          -6.1199    5.2527   25.8017 N.am    1  UNL1       -0.3011
     30 H          -6.8104    4.5521   25.7620 H       1  UNL1        0.1495
@<TRIPOS>BOND
     1    26    27    1
     2    27    28    2
     3    27    29   am
     4    29    25    1
     5    19    25    1
     6    19    20    1
     7    20    21    1
     8    21     1    1
     9     1     2   ar
    10     2     3   ar
    11     3     4   ar
    12     4     8    1
    13     8     9    1
    14     9    10    1
    15    10    11    1
    16    11    12   am
    17    12    13    2
    18    12    16    1
    19    16    17    1
    20    11    14    1
    21    14    15    1
    22     4     5   ar
    23     5     6    1
    24     5     7   ar
    25    21    22   am
    26    22    23    2
    27    22    24    1
    28    24    19    1
    29     7     1   ar
    30    15     8    1
    31    29    30    1
    32    17    18    1
