@<TRIPOS>MOLECULE
*****
 25 27 0 0 0
SMALL
GASTEIGER

@<TRIPOS>ATOM
      1 C          -8.2559  -18.9067   20.6942 C.ar    1  UNL1        0.0549
      2 C          -8.7891  -19.3287   19.3572 C.ar    1  UNL1        0.0354
      3 C         -10.2274  -19.7304   19.2163 C.ar    1  UNL1        0.1016
      4 N         -11.1325  -19.7100   20.4123 N.ar    1  UNL1       -0.2289
      5 C         -10.5992  -19.2881   21.7493 C.ar    1  UNL1        0.1354
      6 C          -9.1609  -18.8864   21.8902 C.ar    1  UNL1        0.0491
      7 O          -6.3232  -20.7193   22.1011 O.2     1  UNL1       -0.2698
      8 C          -5.8512  -19.4113   21.5386 C.2     1  UNL1        0.2511
      9 N          -6.8175  -18.5050   20.8352 N.am    1  UNL1       -0.2802
     10 H          -6.5077  -17.6466   20.4660 H       1  UNL1        0.1552
     11 C          -4.4128  -19.0096   21.6796 C.ar    1  UNL1        0.0748
     12 C          -4.0232  -17.9513   22.6685 C.ar    1  UNL1        0.0628
     13 CL         -5.0718  -17.2945   23.5165 Cl      1  UNL1       -0.0821
     14 C          -2.5849  -17.5496   22.8095 C.ar    1  UNL1        0.0116
     15 C          -1.5362  -18.2063   21.9615 C.ar    1  UNL1        0.0017
     16 C          -1.9259  -19.2647   20.9726 C.ar    1  UNL1        0.0116
     17 C          -3.3642  -19.6663   20.8316 C.ar    1  UNL1        0.0628
     18 CL         -3.7539  -20.7248   19.8427 Cl      1  UNL1       -0.0821
     19 N         -11.5042  -19.2678   22.9453 N.am    1  UNL1       -0.2693
     20 C         -12.7099  -18.3755   22.9585 C.2     1  UNL1        0.2267
     21 O         -13.0106  -17.5035   21.7755 O.2     1  UNL1       -0.2748
     22 H         -11.3069  -19.8401   23.7217 H       1  UNL1        0.1563
     23 C         -13.6149  -18.3552   24.1545 C.3     1  UNL1        0.0769
     24 C         -14.9949  -18.2855   24.7382 C.3     1  UNL1        0.0096
     25 C         -13.8025  -18.3897   25.6423 C.3     1  UNL1        0.0096
@<TRIPOS>BOND
     1     7     8    2
     2     8     9   am
     3     9     1    1
     4     1     2   ar
     5     2     3   ar
     6     3     4   ar
     7     4     5   ar
     8     5    19    1
     9    19    20   am
    10    20    21    2
    11    20    23    1
    12    23    24    1
    13    24    25    1
    14     5     6   ar
    15     8    11    1
    16    11    12   ar
    17    12    13    1
    18    12    14   ar
    19    14    15   ar
    20    15    16   ar
    21    16    17   ar
    22    17    18    1
    23     6     1   ar
    24    17    11   ar
    25    25    23    1
    26     9    10    1
    27    19    22    1
@<TRIPOS>MOLECULE
*****
 25 27 0 0 0
SMALL
GASTEIGER

@<TRIPOS>ATOM
      1 C          -7.6336  -15.7843   24.5916 C.ar    1  UNL1        0.0549
      2 C          -7.3551  -15.5533   26.0472 C.ar    1  UNL1        0.0354
      3 C          -5.9406  -15.4205   26.5282 C.ar    1  UNL1        0.1016
      4 N          -4.8046  -15.5187   25.5536 N.ar    1  UNL1       -0.2289
      5 C          -5.0832  -15.7497   24.0979 C.ar    1  UNL1        0.1354
      6 C          -6.4977  -15.8825   23.6169 C.ar    1  UNL1        0.0491
      7 O          -8.4632  -18.2019   23.0209 O.2     1  UNL1       -0.2698
      8 C          -9.4630  -17.1258   23.3252 C.2     1  UNL1        0.2511
      9 N          -9.0482  -15.9170   24.1105 N.am    1  UNL1       -0.2802
     10 H          -9.7044  -15.2108   24.3102 H       1  UNL1        0.1552
     11 C         -10.8776  -17.2586   22.8441 C.ar    1  UNL1        0.0748
     12 C         -11.3216  -16.5305   21.6101 C.ar    1  UNL1        0.0628
     13 CL        -10.3511  -15.6695   20.8572 Cl      1  UNL1       -0.0821
     14 C         -12.7361  -16.6633   21.1291 C.ar    1  UNL1        0.0116
     15 C         -13.7066  -17.5242   21.8820 C.ar    1  UNL1        0.0017
     16 C         -13.2626  -18.2524   23.1159 C.ar    1  UNL1        0.0116
     17 C         -11.8481  -18.1196   23.5970 C.ar    1  UNL1        0.0628
     18 CL        -11.4041  -18.8477   24.8310 Cl      1  UNL1       -0.0821
     19 N          -3.9472  -15.8479   23.1233 N.am    1  UNL1       -0.2693
     20 C          -3.4179  -17.1926   22.7214 C.2     1  UNL1        0.2267
     21 O          -4.0246  -18.4392   23.2942 O.2     1  UNL1       -0.2748
     22 H          -3.5490  -15.0297   22.7474 H       1  UNL1        0.1563
     23 C          -2.2819  -17.2908   21.7468 C.3     1  UNL1        0.0769
     24 C          -1.3430  -18.1241   20.9258 C.3     1  UNL1        0.0096
     25 C          -1.2533  -16.6275   20.8796 C.3     1  UNL1        0.0096
@<TRIPOS>BOND
     1     7     8    2
     2     8     9   am
     3     9     1    1
     4     1     2   ar
     5     2     3   ar
     6     3     4   ar
     7     4     5   ar
     8     5    19    1
     9    19    20   am
    10    20    21    2
    11    20    23    1
    12    23    24    1
    13    24    25    1
    14     5     6   ar
    15     8    11    1
    16    11    12   ar
    17    12    13    1
    18    12    14   ar
    19    14    15   ar
    20    15    16   ar
    21    16    17   ar
    22    17    18    1
    23     6     1   ar
    24    17    11   ar
    25    25    23    1
    26     9    10    1
    27    19    22    1
@<TRIPOS>MOLECULE
*****
 25 27 0 0 0
SMALL
GASTEIGER

@<TRIPOS>ATOM
      1 C          -6.9776  -19.5090   21.2754 C.ar    1  UNL1        0.0549
      2 C          -6.9640  -20.9482   20.8528 C.ar    1  UNL1        0.0354
      3 C          -5.7525  -21.5204   20.1786 C.ar    1  UNL1        0.1016
      4 N          -4.5545  -20.6535   19.9270 N.ar    1  UNL1       -0.2289
      5 C          -4.5681  -19.2144   20.3496 C.ar    1  UNL1        0.1354
      6 C          -5.7796  -18.6421   21.0238 C.ar    1  UNL1        0.0491
      7 O          -9.6635  -19.7060   19.9535 O.2     1  UNL1       -0.2698
      8 C          -9.5321  -19.0352   21.2887 C.2     1  UNL1        0.2511
      9 N          -8.1892  -18.9367   21.9496 N.am    1  UNL1       -0.2802
     10 H          -8.1030  -18.4965   22.8260 H       1  UNL1        0.1552
     11 C         -10.7437  -18.4629   21.9629 C.ar    1  UNL1        0.0748
     12 C         -11.4817  -17.3185   21.3340 C.ar    1  UNL1        0.0628
     13 CL        -11.0081  -16.7463   20.0308 Cl      1  UNL1       -0.0821
     14 C         -12.6932  -16.7462   22.0083 C.ar    1  UNL1        0.0116
     15 C         -13.1668  -17.3185   23.3114 C.ar    1  UNL1        0.0017
     16 C         -12.4289  -18.4629   23.9404 C.ar    1  UNL1        0.0116
     17 C         -11.2173  -19.0352   23.2661 C.ar    1  UNL1        0.0628
     18 CL        -10.4793  -20.1797   23.8950 Cl      1  UNL1       -0.0821
     19 N          -3.3701  -18.3474   20.0980 N.am    1  UNL1       -0.2693
     20 C          -2.0175  -18.7781   20.5827 C.2     1  UNL1        0.2267
     21 O          -1.8629  -20.0758   21.3191 O.2     1  UNL1       -0.2748
     22 H          -3.4716  -17.4958   19.6147 H       1  UNL1        0.1563
     23 C          -0.8195  -17.9112   20.3311 C.3     1  UNL1        0.0769
     24 C          -0.2158  -16.5498   20.1522 C.3     1  UNL1        0.0096
     25 C           0.6516  -17.7711   20.0741 C.3     1  UNL1        0.0096
@<TRIPOS>BOND
     1     7     8    2
     2     8     9   am
     3     9     1    1
     4     1     2   ar
     5     2     3   ar
     6     3     4   ar
     7     4     5   ar
     8     5    19    1
     9    19    20   am
    10    20    21    2
    11    20    23    1
    12    23    24    1
    13    24    25    1
    14     5     6   ar
    15     8    11    1
    16    11    12   ar
    17    12    13    1
    18    12    14   ar
    19    14    15   ar
    20    15    16   ar
    21    16    17   ar
    22    17    18    1
    23     6     1   ar
    24    17    11   ar
    25    25    23    1
    26     9    10    1
    27    19    22    1
@<TRIPOS>MOLECULE
*****
 25 27 0 0 0
SMALL
GASTEIGER

@<TRIPOS>ATOM
      1 C          -6.8237  -19.4538   20.4938 C.ar    1  UNL1        0.0549
      2 C          -6.9657  -20.8909   20.0884 C.ar    1  UNL1        0.0354
      3 C          -5.7443  -21.7401   19.8960 C.ar    1  UNL1        0.1016
      4 N          -4.3809  -21.1521   20.1090 N.ar    1  UNL1       -0.2289
      5 C          -4.2389  -19.7150   20.5143 C.ar    1  UNL1        0.1354
      6 C          -5.4603  -18.8658   20.7067 C.ar    1  UNL1        0.0491
      7 O          -8.5498  -19.8360   22.9175 O.2     1  UNL1       -0.2698
      8 C          -8.9082  -18.7956   21.8981 C.2     1  UNL1        0.2511
      9 N          -8.0452  -18.6046   20.6862 N.am    1  UNL1       -0.2802
     10 H          -8.2804  -17.9218   20.0171 H       1  UNL1        0.1552
     11 C         -10.1296  -17.9464   22.0905 C.ar    1  UNL1        0.0748
     12 C         -10.0578  -16.7103   22.9371 C.ar    1  UNL1        0.0628
     13 CL         -8.7647  -16.3234   23.5914 Cl      1  UNL1       -0.0821
     14 C         -11.2792  -15.8611   23.1295 C.ar    1  UNL1        0.0116
     15 C         -12.5724  -16.2481   22.4753 C.ar    1  UNL1        0.0017
     16 C         -12.6441  -17.4842   21.6286 C.ar    1  UNL1        0.0116
     17 C         -11.4227  -18.3333   21.4362 C.ar    1  UNL1        0.0628
     18 CL        -11.4945  -19.5695   20.5895 Cl      1  UNL1       -0.0821
     19 N          -2.8755  -19.1270   20.7273 N.am    1  UNL1       -0.2693
     20 C          -2.4055  -17.9918   19.8668 C.2     1  UNL1        0.2267
     21 O          -3.2989  -17.4446   18.7933 O.2     1  UNL1       -0.2748
     22 H          -2.2891  -19.4861   21.4319 H       1  UNL1        0.1563
     23 C          -1.0421  -17.4038   20.0798 C.3     1  UNL1        0.0769
     24 C          -0.1731  -16.2360   20.4416 C.3     1  UNL1        0.0096
     25 C           0.4504  -17.5533   20.0869 C.3     1  UNL1        0.0096
@<TRIPOS>BOND
     1     7     8    2
     2     8     9   am
     3     9     1    1
     4     1     2   ar
     5     2     3   ar
     6     3     4   ar
     7     4     5   ar
     8     5    19    1
     9    19    20   am
    10    20    21    2
    11    20    23    1
    12    23    24    1
    13    24    25    1
    14     5     6   ar
    15     8    11    1
    16    11    12   ar
    17    12    13    1
    18    12    14   ar
    19    14    15   ar
    20    15    16   ar
    21    16    17   ar
    22    17    18    1
    23     6     1   ar
    24    17    11   ar
    25    25    23    1
    26     9    10    1
    27    19    22    1
@<TRIPOS>MOLECULE
*****
 25 27 0 0 0
SMALL
GASTEIGER

@<TRIPOS>ATOM
      1 C           0.6105    1.3836   19.3198 C.ar    1  UNL1        0.0549
      2 C           0.8010    2.4436   18.2758 C.ar    1  UNL1        0.0354
      3 C           0.0203    3.7220   18.3539 C.ar    1  UNL1        0.1016
      4 N          -0.9508    3.9405   19.4760 N.ar    1  UNL1       -0.2289
      5 C          -1.1412    2.8805   20.5201 C.ar    1  UNL1        0.1354
      6 C          -0.3606    1.6021   20.4420 C.ar    1  UNL1        0.0491
      7 O           3.5182    1.3540   20.0577 O.2     1  UNL1       -0.2698
      8 C           2.8450    0.0903   19.6107 C.2     1  UNL1        0.2511
      9 N           1.3912    0.1051   19.2418 N.am    1  UNL1       -0.2802
     10 H           0.9494   -0.7243   18.9484 H       1  UNL1        0.1552
     11 C           3.6257   -1.1882   19.5326 C.ar    1  UNL1        0.0748
     12 C           4.1759   -1.6518   18.2165 C.ar    1  UNL1        0.0628
     13 CL          3.9454   -0.8370   16.9784 Cl      1  UNL1       -0.0821
     14 C           4.9565   -2.9303   18.1385 C.ar    1  UNL1        0.0116
     15 C           5.1869   -3.7451   19.3766 C.ar    1  UNL1        0.0017
     16 C           4.6367   -3.2815   20.6928 C.ar    1  UNL1        0.0116
     17 C           3.8561   -2.0030   20.7708 C.ar    1  UNL1        0.0628
     18 CL          3.3059   -1.5393   22.0870 Cl      1  UNL1       -0.0821
     19 N          -2.1123    3.0990   21.6423 N.am    1  UNL1       -0.2693
     20 C          -3.5738    3.2642   21.3479 C.2     1  UNL1        0.2267
     21 O          -4.0643    3.2109   19.9313 O.2     1  UNL1       -0.2748
     22 H          -1.7904    3.1339   22.5720 H       1  UNL1        0.1563
     23 C          -4.5449    3.4826   22.4701 C.3     1  UNL1        0.0769
     24 C          -5.8939    3.9268   22.9526 C.3     1  UNL1        0.0096
     25 C          -4.8778    3.4168   23.9311 C.3     1  UNL1        0.0096
@<TRIPOS>BOND
     1     7     8    2
     2     8     9   am
     3     9     1    1
     4     1     2   ar
     5     2     3   ar
     6     3     4   ar
     7     4     5   ar
     8     5    19    1
     9    19    20   am
    10    20    21    2
    11    20    23    1
    12    23    24    1
    13    24    25    1
    14     5     6   ar
    15     8    11    1
    16    11    12   ar
    17    12    13    1
    18    12    14   ar
    19    14    15   ar
    20    15    16   ar
    21    16    17   ar
    22    17    18    1
    23     6     1   ar
    24    17    11   ar
    25    25    23    1
    26     9    10    1
    27    19    22    1
@<TRIPOS>MOLECULE
*****
 25 27 0 0 0
SMALL
GASTEIGER

@<TRIPOS>ATOM
      1 C           8.4539  -10.5756   27.8453 C.ar    1  UNL1        0.0549
      2 C           9.5354  -11.6149   27.8539 C.ar    1  UNL1        0.0354
      3 C           9.1975  -13.0465   28.1478 C.ar    1  UNL1        0.1016
      4 N           7.7781  -13.4388   28.4330 N.ar    1  UNL1       -0.2289
      5 C           6.6966  -12.3995   28.4244 C.ar    1  UNL1        0.1354
      6 C           7.0345  -10.9679   28.1306 C.ar    1  UNL1        0.0491
      7 O           6.4780   -8.8319   26.4117 O.2     1  UNL1       -0.2698
      8 C           7.8038   -8.2721   26.8347 C.2     1  UNL1        0.2511
      9 N           8.7917   -9.1440   27.5515 N.am    1  UNL1       -0.2802
     10 H           9.6619   -8.7766   27.8291 H       1  UNL1        0.1552
     11 C           8.1416   -6.8405   26.5408 C.ar    1  UNL1        0.0748
     12 C           8.0839   -5.8164   27.6353 C.ar    1  UNL1        0.0628
     13 CL          7.6884   -6.2239   29.0236 Cl      1  UNL1       -0.0821
     14 C           8.4218   -4.3848   27.3414 C.ar    1  UNL1        0.0116
     15 C           8.8173   -3.9773   25.9531 C.ar    1  UNL1        0.0017
     16 C           8.8750   -5.0014   24.8586 C.ar    1  UNL1        0.0116
     17 C           8.5371   -6.4330   25.1525 C.ar    1  UNL1        0.0628
     18 CL          8.5948   -7.4571   24.0580 Cl      1  UNL1       -0.0821
     19 N           5.2772  -12.7918   28.7097 N.am    1  UNL1       -0.2693
     20 C           4.4706  -13.5021   27.6633 C.2     1  UNL1        0.2267
     21 O           5.0835  -13.8201   26.3316 O.2     1  UNL1       -0.2748
     22 H           4.8749  -12.5831   29.5837 H       1  UNL1        0.1563
     23 C           3.0512  -13.8944   27.9486 C.3     1  UNL1        0.0769
     24 C           1.5969  -13.5372   28.0337 C.3     1  UNL1        0.0096
     25 C           2.0471  -14.9310   28.3575 C.3     1  UNL1        0.0096
@<TRIPOS>BOND
     1     7     8    2
     2     8     9   am
     3     9     1    1
     4     1     2   ar
     5     2     3   ar
     6     3     4   ar
     7     4     5   ar
     8     5    19    1
     9    19    20   am
    10    20    21    2
    11    20    23    1
    12    23    24    1
    13    24    25    1
    14     5     6   ar
    15     8    11    1
    16    11    12   ar
    17    12    13    1
    18    12    14   ar
    19    14    15   ar
    20    15    16   ar
    21    16    17   ar
    22    17    18    1
    23     6     1   ar
    24    17    11   ar
    25    25    23    1
    26     9    10    1
    27    19    22    1
@<TRIPOS>MOLECULE
*****
 25 27 0 0 0
SMALL
GASTEIGER

@<TRIPOS>ATOM
      1 C           6.8381   -4.7756   25.2430 C.ar    1  UNL1        0.0549
      2 C           7.8795   -5.6995   24.6845 C.ar    1  UNL1        0.0354
      3 C           8.1895   -5.6805   23.2171 C.ar    1  UNL1        0.1016
      4 N           7.4581   -4.7377   22.3081 N.ar    1  UNL1       -0.2289
      5 C           6.4167   -3.8139   22.8666 C.ar    1  UNL1        0.1354
      6 C           6.1067   -3.8328   24.3341 C.ar    1  UNL1        0.0491
      7 O           8.6731   -3.4064   27.1816 O.2     1  UNL1       -0.2698
      8 C           7.4456   -4.1099   27.6798 C.2     1  UNL1        0.2511
      9 N           6.5281   -4.7945   26.7106 N.am    1  UNL1       -0.2802
     10 H           5.7224   -5.2562   27.0376 H       1  UNL1        0.1552
     11 C           7.1356   -4.1288   29.1474 C.ar    1  UNL1        0.0748
     12 C           7.4132   -5.3607   29.9568 C.ar    1  UNL1        0.0628
     13 CL          8.0008   -6.5738   29.2987 Cl      1  UNL1       -0.0821
     14 C           7.1032   -5.3796   31.4242 C.ar    1  UNL1        0.0116
     15 C           6.5155   -4.1665   32.0823 C.ar    1  UNL1        0.0017
     16 C           6.2379   -2.9345   31.2729 C.ar    1  UNL1        0.0116
     17 C           6.5479   -2.9157   29.8054 C.ar    1  UNL1        0.0628
     18 CL          6.2703   -1.6837   28.9959 Cl      1  UNL1       -0.0821
     19 N           5.6853   -2.8711   21.9576 N.am    1  UNL1       -0.2693
     20 C           4.5673   -3.3769   21.0950 C.2     1  UNL1        0.2267
     21 O           4.1807   -4.8255   21.1413 O.2     1  UNL1       -0.2748
     22 H           5.9391   -1.9204   21.9273 H       1  UNL1        0.1563
     23 C           3.8359   -2.4341   20.1860 C.3     1  UNL1        0.0769
     24 C           2.6833   -1.5092   19.9291 C.3     1  UNL1        0.0096
     25 C           3.7217   -1.7261   18.8686 C.3     1  UNL1        0.0096
@<TRIPOS>BOND
     1     7     8    2
     2     8     9   am
     3     9     1    1
     4     1     2   ar
     5     2     3   ar
     6     3     4   ar
     7     4     5   ar
     8     5    19    1
     9    19    20   am
    10    20    21    2
    11    20    23    1
    12    23    24    1
    13    24    25    1
    14     5     6   ar
    15     8    11    1
    16    11    12   ar
    17    12    13    1
    18    12    14   ar
    19    14    15   ar
    20    15    16   ar
    21    16    17   ar
    22    17    18    1
    23     6     1   ar
    24    17    11   ar
    25    25    23    1
    26     9    10    1
    27    19    22    1
@<TRIPOS>MOLECULE
*****
 25 27 0 0 0
SMALL
GASTEIGER

@<TRIPOS>ATOM
      1 C           0.6328    1.3211   19.3289 C.ar    1  UNL1        0.0549
      2 C           0.7756    2.3428   18.2400 C.ar    1  UNL1        0.0354
      3 C          -0.0110    3.6185   18.3008 C.ar    1  UNL1        0.1016
      4 N          -0.9404    3.8726   19.4504 N.ar    1  UNL1       -0.2289
      5 C          -1.0832    2.8509   20.5393 C.ar    1  UNL1        0.1354
      6 C          -0.2966    1.5752   20.4786 C.ar    1  UNL1        0.0491
      7 O           3.5447    1.3184   20.0510 O.2     1  UNL1       -0.2698
      8 C           2.8753    0.0440   19.6293 C.2     1  UNL1        0.2511
      9 N           1.4194    0.0453   19.2683 N.am    1  UNL1       -0.2802
     10 H           0.9801   -0.7912   18.9915 H       1  UNL1        0.1552
     11 C           3.6619   -1.2319   19.5686 C.ar    1  UNL1        0.0748
     12 C           3.8876   -2.0339   20.8159 C.ar    1  UNL1        0.0628
     13 CL          3.3266   -1.5602   22.1239 Cl      1  UNL1       -0.0821
     14 C           4.6741   -3.3096   20.7551 C.ar    1  UNL1        0.0116
     15 C           5.2351   -3.7833   19.4471 C.ar    1  UNL1        0.0017
     16 C           5.0095   -2.9813   18.1998 C.ar    1  UNL1        0.0116
     17 C           4.2229   -1.7056   18.2606 C.ar    1  UNL1        0.0628
     18 CL          3.9972   -0.9035   17.0132 Cl      1  UNL1       -0.0821
     19 N          -2.0126    3.1050   21.6889 N.am    1  UNL1       -0.2693
     20 C          -3.4832    3.2679   21.4426 C.2     1  UNL1        0.2267
     21 O          -4.0245    3.1767   20.0466 O.2     1  UNL1       -0.2748
     22 H          -1.6574    3.1648   22.6052 H       1  UNL1        0.1563
     23 C          -4.4126    3.5219   22.5922 C.3     1  UNL1        0.0769
     24 C          -5.6470    4.1696   23.1461 C.3     1  UNL1        0.0096
     25 C          -4.7880    3.3143   24.0296 C.3     1  UNL1        0.0096
@<TRIPOS>BOND
     1     7     8    2
     2     8     9   am
     3     9     1    1
     4     1     2   ar
     5     2     3   ar
     6     3     4   ar
     7     4     5   ar
     8     5    19    1
     9    19    20   am
    10    20    21    2
    11    20    23    1
    12    23    24    1
    13    24    25    1
    14     5     6   ar
    15     8    11    1
    16    11    12   ar
    17    12    13    1
    18    12    14   ar
    19    14    15   ar
    20    15    16   ar
    21    16    17   ar
    22    17    18    1
    23     6     1   ar
    24    17    11   ar
    25    25    23    1
    26     9    10    1
    27    19    22    1
@<TRIPOS>MOLECULE
*****
 25 27 0 0 0
SMALL
GASTEIGER

@<TRIPOS>ATOM
      1 C           6.7132   -3.7214   22.7940 C.ar    1  UNL1        0.0549
      2 C           7.7924   -4.6065   22.2447 C.ar    1  UNL1        0.0354
      3 C           8.4630   -5.6114   23.1337 C.ar    1  UNL1        0.1016
      4 N           8.0544   -5.7312   24.5720 N.ar    1  UNL1       -0.2289
      5 C           6.9751   -4.8461   25.1213 C.ar    1  UNL1        0.1354
      6 C           6.3045   -3.8412   24.2322 C.ar    1  UNL1        0.0491
      7 O           4.3569   -4.5325   21.1236 O.2     1  UNL1       -0.2698
      8 C           4.8644   -3.1220   21.0698 C.2     1  UNL1        0.2511
      9 N           6.0425   -2.7164   21.9049 N.am    1  UNL1       -0.2802
     10 H           6.3756   -1.7907   21.8696 H       1  UNL1        0.1552
     11 C           4.1937   -2.1170   20.1807 C.ar    1  UNL1        0.0748
     12 C           4.4835   -2.1060   18.7091 C.ar    1  UNL1        0.0628
     13 CL          5.4439   -3.1000   18.1263 Cl      1  UNL1       -0.0821
     14 C           3.8128   -1.1011   17.8201 C.ar    1  UNL1        0.0116
     15 C           2.8524   -0.1071   18.4028 C.ar    1  UNL1        0.0017
     16 C           2.5626   -0.1181   19.8745 C.ar    1  UNL1        0.0116
     17 C           3.2333   -1.1230   20.7635 C.ar    1  UNL1        0.0628
     18 CL          2.9435   -1.1340   22.2352 Cl      1  UNL1       -0.0821
     19 N           6.5665   -4.9659   26.5595 N.am    1  UNL1       -0.2693
     20 C           7.5201   -4.5656   27.6460 C.2     1  UNL1        0.2267
     21 O           8.8824   -4.0454   27.2942 O.2     1  UNL1       -0.2748
     22 H           5.6724   -5.3072   26.7905 H       1  UNL1        0.1563
     23 C           7.1114   -4.6853   29.0843 C.3     1  UNL1        0.0769
     24 C           6.8293   -5.5345   30.2882 C.3     1  UNL1        0.0096
     25 C           6.6858   -4.0437   30.3715 C.3     1  UNL1        0.0096
@<TRIPOS>BOND
     1     7     8    2
     2     8     9   am
     3     9     1    1
     4     1     2   ar
     5     2     3   ar
     6     3     4   ar
     7     4     5   ar
     8     5    19    1
     9    19    20   am
    10    20    21    2
    11    20    23    1
    12    23    24    1
    13    24    25    1
    14     5     6   ar
    15     8    11    1
    16    11    12   ar
    17    12    13    1
    18    12    14   ar
    19    14    15   ar
    20    15    16   ar
    21    16    17   ar
    22    17    18    1
    23     6     1   ar
    24    17    11   ar
    25    25    23    1
    26     9    10    1
    27    19    22    1
