@<TRIPOS>MOLECULE
*****
 38 42 0 0 0
SMALL
GASTEIGER

@<TRIPOS>ATOM
      1 C           0.3844    1.9583   24.0740 C.ar    1  UNL1        0.0168
      2 C          -0.5084    2.7458   23.1614 C.ar    1  UNL1        0.1003
      3 N          -0.4371    2.5359   21.6779 N.ar    1  UNL1       -0.2249
      4 C           0.5269    1.5385   21.1070 C.ar    1  UNL1        0.1683
      5 N           0.5981    1.3286   19.6234 N.ar    1  UNL1       -0.2058
      6 C           1.5621    0.3312   19.0525 C.ar    1  UNL1        0.1865
      7 N           2.4548   -0.4563   19.9652 N.ar    1  UNL1       -0.2565
      8 C           2.3836   -0.2464   21.4487 C.ar    1  UNL1        0.2685
      9 O           3.0827   -0.8781   22.0036 O.2     1  UNL1       -0.2665
     10 C           1.4196    0.7510   22.0196 C.ar    1  UNL1        0.0897
     11 C           1.3484    0.9609   23.5031 C.ar    1  UNL1        0.0030
     12 C           3.4188   -1.4537   19.3943 C.ar    1  UNL1        0.0735
     13 C           4.6223   -0.9826   18.6328 C.ar    1  UNL1        0.0544
     14 C           5.5863   -1.9800   18.0619 C.ar    1  UNL1        0.1374
     15 O           6.7897   -1.5090   17.3004 O.3     1  UNL1       -0.5054
     16 C           5.3468   -3.4485   18.2524 C.ar    1  UNL1        0.0663
     17 C           4.1434   -3.9196   19.0139 C.ar    1  UNL1        0.1446
     18 F           3.9039   -5.3880   19.2045 F       1  UNL1       -0.2040
     19 C           3.1794   -2.9222   19.5848 C.ar    1  UNL1        0.0475
     20 H           6.9393   -0.5917   17.1813 H       1  UNL1        0.2922
     21 C          -1.3462    0.4906   28.7485 C.3     1  UNL1        0.0311
     22 C          -0.5522    1.4343   27.8948 C.ar    1  UNL1       -0.0210
     23 C           0.1707    2.5880   28.5247 C.ar    1  UNL1        0.0071
     24 C           0.9648    3.5317   27.6710 C.ar    1  UNL1        0.0574
     25 CL          1.6876    4.6853   28.3008 Cl      1  UNL1       -0.0823
     26 C           1.0360    3.3218   26.1874 C.ar    1  UNL1        0.0114
     27 C           0.3132    2.1682   25.5576 C.ar    1  UNL1        0.0018
     28 C          -0.4809    1.2245   26.4113 C.ar    1  UNL1       -0.0042
     29 C           2.2411    0.1734   24.4158 C.3     1  UNL1        0.0995
     30 N           3.5197    0.7761   24.9177 N.3     1  UNL1       -0.2666
     31 C           4.0325    1.6567   24.5209 C.3     1  UNL1        0.0899
     32 C           4.2308    0.1609   26.0864 C.3     1  UNL1        0.0882
     33 C           3.5602    0.1039   27.4269 C.3     1  UNL1        0.0702
     34 C           3.7025    1.1129   28.5276 C.3     1  UNL1        0.0186
     35 C           2.8598    0.6605   29.6831 C.3     1  UNL1        0.0185
     36 C           2.1968   -0.6283   29.2966 C.3     1  UNL1        0.0686
     37 N           2.6296   -0.9723   27.9022 N.3     1  UNL1       -0.2974
     38 H           1.8158   -1.0216   27.2894 H       1  UNL1        0.1232
@<TRIPOS>BOND
     1    21    22    1
     2    22    23   ar
     3    23    24   ar
     4    24    25    1
     5    24    26   ar
     6    26    27   ar
     7    27     1    1
     8     1     2   ar
     9     2     3   ar
    10     3     4   ar
    11     4     5   ar
    12     5     6   ar
    13     6     7   ar
    14     7    12    1
    15    12    13   ar
    16    13    14   ar
    17    14    15    1
    18    14    16   ar
    19    16    17   ar
    20    17    18    1
    21    17    19   ar
    22     7     8   ar
    23     8     9    2
    24     8    10   ar
    25    10    11   ar
    26    11    29    1
    27    29    30    1
    28    30    31    1
    29    30    32    1
    30    33    32    1
    31    33    34    1
    32    34    35    1
    33    35    36    1
    34    36    37    1
    35    27    28   ar
    36    28    22   ar
    37    11     1   ar
    38    37    33    1
    39    10     4   ar
    40    19    12   ar
    41    15    20    1
    42    37    38    1
@<TRIPOS>MOLECULE
*****
 38 42 0 0 0
SMALL
GASTEIGER

@<TRIPOS>ATOM
      1 C           2.3626    0.0617   20.5169 C.ar    1  UNL1        0.0168
      2 C           1.4867    1.0230   19.7694 C.ar    1  UNL1        0.1003
      3 N           0.5685    1.9408   20.5207 N.ar    1  UNL1       -0.2249
      4 C           0.5262    1.8974   22.0195 C.ar    1  UNL1        0.1683
      5 N          -0.3920    2.8153   22.7708 N.ar    1  UNL1       -0.2058
      6 C          -0.4343    2.7718   24.2696 C.ar    1  UNL1        0.1865
      7 N           0.4416    1.8105   25.0170 N.ar    1  UNL1       -0.2565
      8 C           1.3598    0.8926   24.2657 C.ar    1  UNL1        0.2685
      9 O           1.9443    0.2419   24.9220 O.2     1  UNL1       -0.2665
     10 C           1.4021    0.9361   22.7669 C.ar    1  UNL1        0.0897
     11 C           2.3203    0.0183   22.0156 C.ar    1  UNL1        0.0030
     12 C           0.3993    1.7670   26.5158 C.ar    1  UNL1        0.0735
     13 C           1.4233    2.5152   27.3170 C.ar    1  UNL1        0.0544
     14 C           1.3810    2.4717   28.8158 C.ar    1  UNL1        0.1374
     15 O           2.4048    3.2198   29.6170 O.3     1  UNL1       -0.5054
     16 C           0.3147    1.6801   29.5133 C.ar    1  UNL1        0.0663
     17 C          -0.7092    0.9320   28.7121 C.ar    1  UNL1        0.1446
     18 F          -1.7753    0.1405   29.4097 F       1  UNL1       -0.2040
     19 C          -0.6669    0.9755   27.2134 C.ar    1  UNL1        0.0475
     20 H           3.0709    3.7143   29.1812 H       1  UNL1        0.2922
     21 C           3.7417   -4.7382   19.0821 C.3     1  UNL1        0.0311
     22 C           3.9703   -3.2562   19.0482 C.ar    1  UNL1       -0.0210
     23 C           5.1172   -2.6920   18.2630 C.ar    1  UNL1        0.0071
     24 C           5.3458   -1.2099   18.2291 C.ar    1  UNL1        0.0574
     25 CL          6.4926   -0.6457   17.4440 Cl      1  UNL1       -0.0823
     26 C           4.4276   -0.2920   18.9804 C.ar    1  UNL1        0.0114
     27 C           3.2808   -0.8562   19.7656 C.ar    1  UNL1        0.0018
     28 C           3.0522   -2.3383   19.7995 C.ar    1  UNL1       -0.0042
     29 C           3.1962   -0.9431   22.7631 C.3     1  UNL1        0.0995
     30 N           4.5594   -0.5157   23.2204 N.3     1  UNL1       -0.2666
     31 C           5.1922    0.2553   22.7722 C.3     1  UNL1        0.0899
     32 C           5.1893   -1.1699   24.4142 C.3     1  UNL1        0.0882
     33 C           4.6571   -0.8930   25.7891 C.3     1  UNL1        0.0702
     34 C           5.0522    0.2524   26.6733 C.3     1  UNL1        0.0186
     35 C           4.2757    0.1404   27.9518 C.3     1  UNL1        0.0185
     36 C           3.4007   -1.0743   27.8577 C.3     1  UNL1        0.0686
     37 N           3.6365   -1.7130   26.5211 N.3     1  UNL1       -0.2974
     38 H           2.7658   -1.7363   25.9903 H       1  UNL1        0.1232
@<TRIPOS>BOND
     1    21    22    1
     2    22    23   ar
     3    23    24   ar
     4    24    25    1
     5    24    26   ar
     6    26    27   ar
     7    27     1    1
     8     1     2   ar
     9     2     3   ar
    10     3     4   ar
    11     4     5   ar
    12     5     6   ar
    13     6     7   ar
    14     7    12    1
    15    12    13   ar
    16    13    14   ar
    17    14    15    1
    18    14    16   ar
    19    16    17   ar
    20    17    18    1
    21    17    19   ar
    22     7     8   ar
    23     8     9    2
    24     8    10   ar
    25    10    11   ar
    26    11    29    1
    27    29    30    1
    28    30    31    1
    29    30    32    1
    30    33    32    1
    31    33    34    1
    32    34    35    1
    33    35    36    1
    34    36    37    1
    35    27    28   ar
    36    28    22   ar
    37    11     1   ar
    38    37    33    1
    39    10     4   ar
    40    19    12   ar
    41    15    20    1
    42    37    38    1
@<TRIPOS>MOLECULE
*****
 38 42 0 0 0
SMALL
GASTEIGER

@<TRIPOS>ATOM
      1 C           2.3987   -0.0181   20.4890 C.ar    1  UNL1        0.0168
      2 C           1.4911    0.9148   19.7434 C.ar    1  UNL1        0.1003
      3 N           0.5704    1.8277   20.4976 N.ar    1  UNL1       -0.2249
      4 C           0.5573    1.8076   21.9975 C.ar    1  UNL1        0.1683
      5 N          -0.3635    2.7206   22.7517 N.ar    1  UNL1       -0.2058
      6 C          -0.3767    2.7005   24.2515 C.ar    1  UNL1        0.1865
      7 N           0.5310    1.7675   24.9971 N.ar    1  UNL1       -0.2565
      8 C           1.4517    0.8547   24.2428 C.ar    1  UNL1        0.2685
      9 O           2.0605    0.2255   24.8979 O.2     1  UNL1       -0.2665
     10 C           1.4649    0.8747   22.7430 C.ar    1  UNL1        0.0897
     11 C           2.3856   -0.0381   21.9888 C.ar    1  UNL1        0.0030
     12 C           0.5179    1.7475   26.4969 C.ar    1  UNL1        0.0735
     13 C           1.5576    2.5072   27.2662 C.ar    1  UNL1        0.0544
     14 C           1.5445    2.4872   28.7660 C.ar    1  UNL1        0.1374
     15 O           2.5841    3.2468   29.5354 O.3     1  UNL1       -0.5054
     16 C           0.4916    1.7074   29.4965 C.ar    1  UNL1        0.0663
     17 C          -0.5481    0.9477   28.7271 C.ar    1  UNL1        0.1446
     18 F          -1.6009    0.1680   29.4576 F       1  UNL1       -0.2040
     19 C          -0.5350    0.9678   27.2273 C.ar    1  UNL1        0.0475
     20 H           3.2418    3.7339   29.0791 H       1  UNL1        0.2922
     21 C           3.8038   -4.8110   19.0560 C.3     1  UNL1        0.0311
     22 C           4.0220   -3.3275   19.0183 C.ar    1  UNL1       -0.0210
     23 C           5.1610   -2.7568   18.2264 C.ar    1  UNL1        0.0071
     24 C           5.3792   -1.2733   18.1886 C.ar    1  UNL1        0.0574
     25 CL          6.5182   -0.7026   17.3967 Cl      1  UNL1       -0.0823
     26 C           4.4584   -0.3603   18.9429 C.ar    1  UNL1        0.0114
     27 C           3.3195   -0.9310   19.7348 C.ar    1  UNL1        0.0018
     28 C           3.1013   -2.4146   19.7725 C.ar    1  UNL1       -0.0042
     29 C           3.2932   -0.9711   22.7344 C.3     1  UNL1        0.0995
     30 N           4.7298   -0.6013   22.9571 N.3     1  UNL1       -0.2666
     31 C           5.1729    0.3952   22.8772 C.3     1  UNL1        0.0899
     32 C           5.7265   -1.6574   23.3329 C.3     1  UNL1        0.0882
     33 C           6.4421   -2.4279   22.2632 C.3     1  UNL1        0.0702
     34 C           7.4567   -1.8744   21.3070 C.3     1  UNL1        0.0186
     35 C           7.9105   -2.9915   20.4147 C.3     1  UNL1        0.0185
     36 C           7.1763   -4.2354   20.8194 C.3     1  UNL1        0.0686
     37 N           6.2689   -3.8870   21.9619 N.3     1  UNL1       -0.2974
     38 H           6.5158   -4.4415   22.7816 H       1  UNL1        0.1232
@<TRIPOS>BOND
     1    21    22    1
     2    22    23   ar
     3    23    24   ar
     4    24    25    1
     5    24    26   ar
     6    26    27   ar
     7    27     1    1
     8     1     2   ar
     9     2     3   ar
    10     3     4   ar
    11     4     5   ar
    12     5     6   ar
    13     6     7   ar
    14     7    12    1
    15    12    13   ar
    16    13    14   ar
    17    14    15    1
    18    14    16   ar
    19    16    17   ar
    20    17    18    1
    21    17    19   ar
    22     7     8   ar
    23     8     9    2
    24     8    10   ar
    25    10    11   ar
    26    11    29    1
    27    29    30    1
    28    30    31    1
    29    30    32    1
    30    33    32    1
    31    33    34    1
    32    34    35    1
    33    35    36    1
    34    36    37    1
    35    27    28   ar
    36    28    22   ar
    37    11     1   ar
    38    37    33    1
    39    10     4   ar
    40    19    12   ar
    41    15    20    1
    42    37    38    1
@<TRIPOS>MOLECULE
*****
 38 42 0 0 0
SMALL
GASTEIGER

@<TRIPOS>ATOM
      1 C           0.4165    1.8918   24.5915 C.ar    1  UNL1        0.0168
      2 C          -0.5310    2.7158   23.7710 C.ar    1  UNL1        0.1003
      3 N          -0.4728    2.6565   22.2734 N.ar    1  UNL1       -0.2249
      4 C           0.5329    1.7733   21.5962 C.ar    1  UNL1        0.1683
      5 N           0.5910    1.7140   20.0985 N.ar    1  UNL1       -0.2058
      6 C           1.5967    0.8308   19.4213 C.ar    1  UNL1        0.1865
      7 N           2.5442    0.0069   20.2419 N.ar    1  UNL1       -0.2565
      8 C           2.4861    0.0662   21.7396 C.ar    1  UNL1        0.2685
      9 O           3.2263   -0.5784   22.2217 O.2     1  UNL1       -0.2665
     10 C           1.4804    0.9494   22.4167 C.ar    1  UNL1        0.0897
     11 C           1.4222    1.0086   23.9144 C.ar    1  UNL1        0.0030
     12 C           3.5499   -0.8763   19.5647 C.ar    1  UNL1        0.0735
     13 C           3.2779   -2.3437   19.4132 C.ar    1  UNL1        0.0544
     14 C           4.2836   -3.2269   18.7361 C.ar    1  UNL1        0.1374
     15 O           4.0116   -4.6942   18.5846 O.3     1  UNL1       -0.5054
     16 C           5.5613   -2.6427   18.2104 C.ar    1  UNL1        0.0663
     17 C           5.8333   -1.1754   18.3619 C.ar    1  UNL1        0.1446
     18 F           7.1110   -0.5913   17.8363 F       1  UNL1       -0.2040
     19 C           4.8276   -0.2922   19.0391 C.ar    1  UNL1        0.0475
     20 H           3.2135   -5.0591   18.9129 H       1  UNL1        0.2922
     21 C           1.9871    3.9945   29.0762 C.3     1  UNL1        0.0311
     22 C           1.1437    3.0024   28.3316 C.ar    1  UNL1       -0.0210
     23 C           0.2422    2.0696   29.0847 C.ar    1  UNL1        0.0071
     24 C          -0.6012    1.0775   28.3401 C.ar    1  UNL1        0.0574
     25 CL         -1.5027    0.1447   29.0931 Cl      1  UNL1       -0.0823
     26 C          -0.5431    1.0182   26.8423 C.ar    1  UNL1        0.0114
     27 C           0.3584    1.9511   26.0893 C.ar    1  UNL1        0.0018
     28 C           1.2018    2.9431   26.8339 C.ar    1  UNL1       -0.0042
     29 C           2.3698    0.1847   24.7350 C.3     1  UNL1        0.0995
     30 N           3.6410    0.7929   25.2488 N.3     1  UNL1       -0.2666
     31 C           4.1097    1.7214   24.9113 C.3     1  UNL1        0.0899
     32 C           4.4089    0.1130   26.3433 C.3     1  UNL1        0.0882
     33 C           3.8724    0.1070   27.7440 C.3     1  UNL1        0.0702
     34 C           2.8008   -0.7991   28.2739 C.3     1  UNL1        0.0186
     35 C           2.5793   -0.4600   29.7182 C.3     1  UNL1        0.0185
     36 C           3.5140    0.6556   30.0810 C.3     1  UNL1        0.0686
     37 N           4.3131    1.0061   28.8609 N.3     1  UNL1       -0.2974
     38 H           5.3065    0.8667   29.0459 H       1  UNL1        0.1232
@<TRIPOS>BOND
     1    21    22    1
     2    22    23   ar
     3    23    24   ar
     4    24    25    1
     5    24    26   ar
     6    26    27   ar
     7    27     1    1
     8     1     2   ar
     9     2     3   ar
    10     3     4   ar
    11     4     5   ar
    12     5     6   ar
    13     6     7   ar
    14     7    12    1
    15    12    13   ar
    16    13    14   ar
    17    14    15    1
    18    14    16   ar
    19    16    17   ar
    20    17    18    1
    21    17    19   ar
    22     7     8   ar
    23     8     9    2
    24     8    10   ar
    25    10    11   ar
    26    11    29    1
    27    29    30    1
    28    30    31    1
    29    30    32    1
    30    33    32    1
    31    33    34    1
    32    34    35    1
    33    35    36    1
    34    36    37    1
    35    27    28   ar
    36    28    22   ar
    37    11     1   ar
    38    37    33    1
    39    10     4   ar
    40    19    12   ar
    41    15    20    1
    42    37    38    1
@<TRIPOS>MOLECULE
*****
 38 42 0 0 0
SMALL
GASTEIGER

@<TRIPOS>ATOM
      1 C           6.9103   -3.9245   21.9730 C.ar    1  UNL1        0.0168
      2 C           8.1742   -4.6713   21.6651 C.ar    1  UNL1        0.1003
      3 N           9.0492   -5.1572   22.7823 N.ar    1  UNL1       -0.2249
      4 C           8.6604   -4.8964   24.2073 C.ar    1  UNL1        0.1683
      5 N           9.5355   -5.3823   25.3246 N.ar    1  UNL1       -0.2058
      6 C           9.1466   -5.1215   26.7496 C.ar    1  UNL1        0.1865
      7 N           7.8827   -4.3746   27.0574 N.ar    1  UNL1       -0.2565
      8 C           7.0076   -3.8887   25.9402 C.ar    1  UNL1        0.2685
      9 O           6.1180   -3.3599   26.2934 O.2     1  UNL1       -0.2665
     10 C           7.3965   -4.1496   24.5152 C.ar    1  UNL1        0.0897
     11 C           6.5214   -3.6637   23.3980 C.ar    1  UNL1        0.0030
     12 C           7.4938   -4.1138   28.4825 C.ar    1  UNL1        0.0735
     13 C           7.2103   -5.2623   29.4048 C.ar    1  UNL1        0.0544
     14 C           6.8214   -5.0014   30.8298 C.ar    1  UNL1        0.1374
     15 O           6.5379   -6.1498   31.7521 O.3     1  UNL1       -0.5054
     16 C           6.7161   -3.5920   31.3325 C.ar    1  UNL1        0.0663
     17 C           6.9997   -2.4436   30.4102 C.ar    1  UNL1        0.1446
     18 F           6.8944   -1.0343   30.9130 F       1  UNL1       -0.2040
     19 C           7.3885   -2.7045   28.9852 C.ar    1  UNL1        0.0475
     20 H           6.6036   -7.0302   31.4381 H       1  UNL1        0.2922
     21 C           2.7818   -4.5695   18.8843 C.3     1  UNL1        0.0311
     22 C           3.9709   -3.7611   19.3115 C.ar    1  UNL1       -0.0210
     23 C           4.2849   -2.4667   18.6214 C.ar    1  UNL1        0.0071
     24 C           5.4740   -1.6583   19.0486 C.ar    1  UNL1        0.0574
     25 CL          5.7881   -0.3640   18.3586 Cl      1  UNL1       -0.0823
     26 C           6.3492   -2.1443   20.1658 C.ar    1  UNL1        0.0114
     27 C           6.0352   -3.4386   20.8558 C.ar    1  UNL1        0.0018
     28 C           4.8460   -4.2470   20.4286 C.ar    1  UNL1       -0.0042
     29 C           5.2575   -2.9168   23.7059 C.3     1  UNL1        0.0995
     30 N           5.2727   -1.4193   23.7897 N.3     1  UNL1       -0.2666
     31 C           6.1423   -0.7635   23.6922 C.3     1  UNL1        0.0899
     32 C           3.9968   -0.6686   24.0315 C.3     1  UNL1        0.0882
     33 C           3.0895   -0.3420   22.8825 C.3     1  UNL1        0.0702
     34 C           2.8704   -1.1886   21.6638 C.3     1  UNL1        0.0186
     35 C           1.8875   -0.4814   20.7786 C.3     1  UNL1        0.0185
     36 C           1.4990    0.8023   21.4502 C.3     1  UNL1        0.0686
     37 N           2.2419    0.8884   22.7505 N.3     1  UNL1       -0.2974
     38 H           1.5797    0.9374   23.5248 H       1  UNL1        0.1232
@<TRIPOS>BOND
     1    21    22    1
     2    22    23   ar
     3    23    24   ar
     4    24    25    1
     5    24    26   ar
     6    26    27   ar
     7    27     1    1
     8     1     2   ar
     9     2     3   ar
    10     3     4   ar
    11     4     5   ar
    12     5     6   ar
    13     6     7   ar
    14     7    12    1
    15    12    13   ar
    16    13    14   ar
    17    14    15    1
    18    14    16   ar
    19    16    17   ar
    20    17    18    1
    21    17    19   ar
    22     7     8   ar
    23     8     9    2
    24     8    10   ar
    25    10    11   ar
    26    11    29    1
    27    29    30    1
    28    30    31    1
    29    30    32    1
    30    33    32    1
    31    33    34    1
    32    34    35    1
    33    35    36    1
    34    36    37    1
    35    27    28   ar
    36    28    22   ar
    37    11     1   ar
    38    37    33    1
    39    10     4   ar
    40    19    12   ar
    41    15    20    1
    42    37    38    1
@<TRIPOS>MOLECULE
*****
 38 42 0 0 0
SMALL
GASTEIGER

@<TRIPOS>ATOM
      1 C           5.4310   -2.7674   23.2589 C.ar    1  UNL1        0.0168
      2 C           6.4111   -3.5228   24.1067 C.ar    1  UNL1        0.1003
      3 N           6.4375   -3.3114   25.5915 N.ar    1  UNL1       -0.2249
      4 C           5.4837   -2.3447   26.2285 C.ar    1  UNL1        0.1683
      5 N           5.5101   -2.1334   27.7133 N.ar    1  UNL1       -0.2058
      6 C           4.5563   -1.1667   28.3503 C.ar    1  UNL1        0.1865
      7 N           3.5761   -0.4113   27.5025 N.ar    1  UNL1       -0.2565
      8 C           3.5497   -0.6227   26.0177 C.ar    1  UNL1        0.2685
      9 O           2.7930   -0.0157   25.5131 O.2     1  UNL1       -0.2665
     10 C           4.5035   -1.5894   25.3807 C.ar    1  UNL1        0.0897
     11 C           4.4772   -1.8007   23.8959 C.ar    1  UNL1        0.0030
     12 C           2.6223    0.5553   28.1395 C.ar    1  UNL1        0.0735
     13 C           3.0296    1.9840   28.3474 C.ar    1  UNL1        0.0544
     14 C           2.0758    2.9507   28.9844 C.ar    1  UNL1        0.1374
     15 O           2.4830    4.3793   29.1923 O.3     1  UNL1       -0.5054
     16 C           0.7147    2.4887   29.4135 C.ar    1  UNL1        0.0663
     17 C           0.3075    1.0601   29.2056 C.ar    1  UNL1        0.1446
     18 F          -1.0536    0.5982   29.6348 F       1  UNL1       -0.2040
     19 C           1.2613    0.0934   28.5686 C.ar    1  UNL1        0.0475
     20 H           3.3332    4.6678   28.9242 H       1  UNL1        0.2922
     21 C           7.5539   -2.0422   18.5720 C.3     1  UNL1        0.0311
     22 C           6.4661   -2.6161   19.4306 C.ar    1  UNL1       -0.0210
     23 C           5.3519   -3.4014   18.8044 C.ar    1  UNL1        0.0071
     24 C           4.2641   -3.9753   19.6631 C.ar    1  UNL1        0.0574
     25 CL          3.1499   -4.7606   19.0370 Cl      1  UNL1       -0.0823
     26 C           4.2905   -3.7640   21.1480 C.ar    1  UNL1        0.0114
     27 C           5.4046   -2.9788   21.7741 C.ar    1  UNL1        0.0018
     28 C           6.4924   -2.4048   20.9154 C.ar    1  UNL1       -0.0042
     29 C           3.4970   -1.0454   23.0481 C.3     1  UNL1        0.0995
     30 N           3.9290    0.1990   22.3305 N.3     1  UNL1       -0.2666
     31 C           4.7971    0.8231   22.5597 C.3     1  UNL1        0.0899
     32 C           3.1355    0.7048   21.1624 C.3     1  UNL1        0.0882
     33 C           3.5814    0.3979   19.7634 C.3     1  UNL1        0.0702
     34 C           2.8858   -0.5135   18.7962 C.3     1  UNL1        0.0186
     35 C           3.6757   -0.5262   17.5211 C.3     1  UNL1        0.0185
     36 C           4.8596    0.3773   17.7003 C.3     1  UNL1        0.0686
     37 N           4.8013    0.9484   19.0861 N.3     1  UNL1       -0.2974
     38 H           4.7418    1.9656   19.0391 H       1  UNL1        0.1232
@<TRIPOS>BOND
     1    21    22    1
     2    22    23   ar
     3    23    24   ar
     4    24    25    1
     5    24    26   ar
     6    26    27   ar
     7    27     1    1
     8     1     2   ar
     9     2     3   ar
    10     3     4   ar
    11     4     5   ar
    12     5     6   ar
    13     6     7   ar
    14     7    12    1
    15    12    13   ar
    16    13    14   ar
    17    14    15    1
    18    14    16   ar
    19    16    17   ar
    20    17    18    1
    21    17    19   ar
    22     7     8   ar
    23     8     9    2
    24     8    10   ar
    25    10    11   ar
    26    11    29    1
    27    29    30    1
    28    30    31    1
    29    30    32    1
    30    33    32    1
    31    33    34    1
    32    34    35    1
    33    35    36    1
    34    36    37    1
    35    27    28   ar
    36    28    22   ar
    37    11     1   ar
    38    37    33    1
    39    10     4   ar
    40    19    12   ar
    41    15    20    1
    42    37    38    1
@<TRIPOS>MOLECULE
*****
 38 42 0 0 0
SMALL
GASTEIGER

@<TRIPOS>ATOM
      1 C          -9.5849  -16.4584   23.8907 C.ar    1  UNL1        0.0168
      2 C          -9.4100  -15.7703   25.2120 C.ar    1  UNL1        0.1003
      3 N          -8.0326  -15.5116   25.7463 N.ar    1  UNL1       -0.2249
      4 C          -6.8299  -15.9410   24.9593 C.ar    1  UNL1        0.1683
      5 N          -5.4524  -15.6822   25.4937 N.ar    1  UNL1       -0.2058
      6 C          -4.2498  -16.1116   24.7067 C.ar    1  UNL1        0.1865
      7 N          -4.4247  -16.7998   23.3853 N.ar    1  UNL1       -0.2565
      8 C          -5.8022  -17.0585   22.8510 C.ar    1  UNL1        0.2685
      9 O          -5.7964  -17.5652   21.8820 O.2     1  UNL1       -0.2665
     10 C          -7.0048  -16.6291   23.6380 C.ar    1  UNL1        0.0897
     11 C          -8.3823  -16.8878   23.1037 C.ar    1  UNL1        0.0030
     12 C          -3.2221  -17.2292   22.5984 C.ar    1  UNL1        0.0735
     13 C          -2.8973  -18.6872   22.4608 C.ar    1  UNL1        0.0544
     14 C          -1.6947  -19.1166   21.6738 C.ar    1  UNL1        0.1374
     15 O          -1.3698  -20.5745   21.5362 O.3     1  UNL1       -0.5054
     16 C          -0.8169  -18.0880   21.0244 C.ar    1  UNL1        0.0663
     17 C          -1.1417  -16.6301   21.1620 C.ar    1  UNL1        0.1446
     18 F          -0.2640  -15.6017   20.5127 F       1  UNL1       -0.2040
     19 C          -2.3443  -16.2007   21.9490 C.ar    1  UNL1        0.0475
     20 H          -1.9181  -21.2170   21.9418 H       1  UNL1        0.2922
     21 C         -14.3505  -18.4374   24.5019 C.3     1  UNL1        0.0311
     22 C         -13.3452  -17.7067   23.6620 C.ar    1  UNL1       -0.0210
     23 C         -13.7175  -17.2347   22.2876 C.ar    1  UNL1        0.0071
     24 C         -12.7123  -16.5040   21.4477 C.ar    1  UNL1        0.0574
     25 CL        -13.0845  -16.0321   20.0734 Cl      1  UNL1       -0.0823
     26 C         -11.3347  -16.2452   21.9820 C.ar    1  UNL1        0.0114
     27 C         -10.9625  -16.7172   23.3563 C.ar    1  UNL1        0.0018
     28 C         -11.9677  -17.4479   24.1963 C.ar    1  UNL1       -0.0042
     29 C          -8.5572  -17.5760   21.7824 C.3     1  UNL1        0.0995
     30 N          -8.6289  -19.0730   21.7201 N.3     1  UNL1       -0.2666
     31 C          -8.9817  -19.7482   22.5045 C.3     1  UNL1        0.0899
     32 C          -8.1865  -19.7941   20.4814 C.3     1  UNL1        0.0882
     33 C          -6.7284  -19.8691   20.1375 C.3     1  UNL1        0.0702
     34 C          -5.8233  -21.0394   20.3843 C.3     1  UNL1        0.0186
     35 C          -4.4549  -20.6805   19.8857 C.3     1  UNL1        0.0185
     36 C          -4.5143  -19.2882   19.3307 C.3     1  UNL1        0.0686
     37 N          -5.9194  -18.7867   19.4863 N.3     1  UNL1       -0.2974
     38 H          -6.3111  -18.5649   18.5711 H       1  UNL1        0.1232
@<TRIPOS>BOND
     1    21    22    1
     2    22    23   ar
     3    23    24   ar
     4    24    25    1
     5    24    26   ar
     6    26    27   ar
     7    27     1    1
     8     1     2   ar
     9     2     3   ar
    10     3     4   ar
    11     4     5   ar
    12     5     6   ar
    13     6     7   ar
    14     7    12    1
    15    12    13   ar
    16    13    14   ar
    17    14    15    1
    18    14    16   ar
    19    16    17   ar
    20    17    18    1
    21    17    19   ar
    22     7     8   ar
    23     8     9    2
    24     8    10   ar
    25    10    11   ar
    26    11    29    1
    27    29    30    1
    28    30    31    1
    29    30    32    1
    30    33    32    1
    31    33    34    1
    32    34    35    1
    33    35    36    1
    34    36    37    1
    35    27    28   ar
    36    28    22   ar
    37    11     1   ar
    38    37    33    1
    39    10     4   ar
    40    19    12   ar
    41    15    20    1
    42    37    38    1
@<TRIPOS>MOLECULE
*****
 38 42 0 0 0
SMALL
GASTEIGER

@<TRIPOS>ATOM
      1 C           6.8360   -4.1033   25.8445 C.ar    1  UNL1        0.0168
      2 C           6.9177   -5.5830   26.0761 C.ar    1  UNL1        0.1003
      3 N           6.9472   -6.1225   27.4754 N.ar    1  UNL1       -0.2249
      4 C           6.8952   -5.1823   28.6430 C.ar    1  UNL1        0.1683
      5 N           6.9248   -5.7219   30.0423 N.ar    1  UNL1       -0.2058
      6 C           6.8727   -4.7818   31.2100 C.ar    1  UNL1        0.1865
      7 N           6.7911   -3.3020   30.9783 N.ar    1  UNL1       -0.2565
      8 C           6.7615   -2.7624   29.5790 C.ar    1  UNL1        0.2685
      9 O           6.7013   -1.6712   29.5431 O.2     1  UNL1       -0.2665
     10 C           6.8136   -3.7026   28.4114 C.ar    1  UNL1        0.0897
     11 C           6.7840   -3.1631   27.0121 C.ar    1  UNL1        0.0030
     12 C           6.7390   -2.3618   32.1459 C.ar    1  UNL1        0.0735
     13 C           7.9964   -1.7110   32.6414 C.ar    1  UNL1        0.0544
     14 C           7.9444   -0.7708   33.8090 C.ar    1  UNL1        0.1374
     15 O           9.2017   -0.1200   34.3046 O.3     1  UNL1       -0.5054
     16 C           6.6349   -0.4814   34.4811 C.ar    1  UNL1        0.0663
     17 C           5.3776   -1.1322   33.9856 C.ar    1  UNL1        0.1446
     18 F           4.0682   -0.8427   34.6577 F       1  UNL1       -0.2040
     19 C           5.4297   -2.0723   32.8180 C.ar    1  UNL1        0.0475
     20 H          10.0197   -0.3008   33.8848 H       1  UNL1        0.2922
     21 C           4.1527   -2.6202   21.6492 C.3     1  UNL1        0.0311
     22 C           5.4648   -2.8221   22.3476 C.ar    1  UNL1       -0.0210
     23 C           6.7472   -2.4845   21.6466 C.ar    1  UNL1        0.0071
     24 C           8.0593   -2.6864   22.3450 C.ar    1  UNL1        0.0574
     25 CL          9.3418   -2.3488   21.6441 Cl      1  UNL1       -0.0823
     26 C           8.0889   -3.2260   23.7443 C.ar    1  UNL1        0.0114
     27 C           6.8065   -3.5636   24.4452 C.ar    1  UNL1        0.0018
     28 C           5.4944   -3.3617   23.7468 C.ar    1  UNL1       -0.0042
     29 C           6.7023   -1.6833   26.7804 C.3     1  UNL1        0.0995
     30 N           5.3818   -1.0451   26.4662 N.3     1  UNL1       -0.2666
     31 C           5.2136   -0.1263   25.8976 C.3     1  UNL1        0.0899
     32 C           4.1098   -1.6762   26.9497 C.3     1  UNL1        0.0882
     33 C           3.2086   -0.9258   27.8850 C.3     1  UNL1        0.0702
     34 C           3.4202   -0.7465   29.3591 C.3     1  UNL1        0.0186
     35 C           2.2799    0.0672   29.8956 C.3     1  UNL1        0.0185
     36 C           1.3636    0.3908   28.7529 C.3     1  UNL1        0.0686
     37 N           1.9376   -0.2229   27.5104 N.3     1  UNL1       -0.2974
     38 H           2.1342    0.5053   26.8237 H       1  UNL1        0.1232
@<TRIPOS>BOND
     1    21    22    1
     2    22    23   ar
     3    23    24   ar
     4    24    25    1
     5    24    26   ar
     6    26    27   ar
     7    27     1    1
     8     1     2   ar
     9     2     3   ar
    10     3     4   ar
    11     4     5   ar
    12     5     6   ar
    13     6     7   ar
    14     7    12    1
    15    12    13   ar
    16    13    14   ar
    17    14    15    1
    18    14    16   ar
    19    16    17   ar
    20    17    18    1
    21    17    19   ar
    22     7     8   ar
    23     8     9    2
    24     8    10   ar
    25    10    11   ar
    26    11    29    1
    27    29    30    1
    28    30    31    1
    29    30    32    1
    30    33    32    1
    31    33    34    1
    32    34    35    1
    33    35    36    1
    34    36    37    1
    35    27    28   ar
    36    28    22   ar
    37    11     1   ar
    38    37    33    1
    39    10     4   ar
    40    19    12   ar
    41    15    20    1
    42    37    38    1
@<TRIPOS>MOLECULE
*****
 38 42 0 0 0
SMALL
GASTEIGER

@<TRIPOS>ATOM
      1 C           0.3077    1.9301   24.2087 C.ar    1  UNL1        0.0168
      2 C          -0.7018    2.6162   23.3369 C.ar    1  UNL1        0.1003
      3 N          -0.6842    2.3962   21.8532 N.ar    1  UNL1       -0.2249
      4 C           0.3428    1.4902   21.2414 C.ar    1  UNL1        0.1683
      5 N           0.3603    1.2702   19.7577 N.ar    1  UNL1       -0.2058
      6 C           1.3874    0.3642   19.1459 C.ar    1  UNL1        0.1865
      7 N           2.3969   -0.3219   20.0179 N.ar    1  UNL1       -0.2565
      8 C           2.3793   -0.1019   21.5015 C.ar    1  UNL1        0.2685
      9 O           3.1634   -0.6561   22.0249 O.2     1  UNL1       -0.2665
     10 C           1.3523    0.8041   22.1133 C.ar    1  UNL1        0.0897
     11 C           1.3348    1.0241   23.5969 C.ar    1  UNL1        0.0030
     12 C           3.4239   -1.2280   19.4061 C.ar    1  UNL1        0.0735
     13 C           3.2681   -2.7163   19.5099 C.ar    1  UNL1        0.0544
     14 C           4.2951   -3.6224   18.8981 C.ar    1  UNL1        0.1374
     15 O           4.1394   -5.1106   19.0018 O.3     1  UNL1       -0.5054
     16 C           5.4780   -3.0401   18.1825 C.ar    1  UNL1        0.0663
     17 C           5.6337   -1.5518   18.0788 C.ar    1  UNL1        0.1446
     18 F           6.8165   -0.9696   17.3632 F       1  UNL1       -0.2040
     19 C           4.6067   -0.6458   18.6906 C.ar    1  UNL1        0.0475
     20 H           3.4005   -5.4743   19.4488 H       1  UNL1        0.2922
     21 C          -1.2390    0.4850   28.9542 C.3     1  UNL1        0.0311
     22 C          -0.4832    1.4275   28.0651 C.ar    1  UNL1       -0.0210
     23 C           0.2552    2.5900   28.6598 C.ar    1  UNL1        0.0071
     24 C           1.0110    3.5325   27.7708 C.ar    1  UNL1        0.0574
     25 CL          1.7494    4.6949   28.3654 Cl      1  UNL1       -0.0823
     26 C           1.0285    3.3125   26.2871 C.ar    1  UNL1        0.0114
     27 C           0.2902    2.1501   25.6925 C.ar    1  UNL1        0.0018
     28 C          -0.4656    1.2076   26.5815 C.ar    1  UNL1       -0.0042
     29 C           2.3443    0.3380   24.4689 C.3     1  UNL1        0.0995
     30 N           3.5932    1.0595   24.8808 N.3     1  UNL1       -0.2666
     31 C           4.3058    0.7539   25.6520 C.3     1  UNL1        0.0899
     32 C           3.9728    2.3455   24.2086 C.3     1  UNL1        0.0882
     33 C           4.6349    2.3215   22.8629 C.3     1  UNL1        0.0702
     34 C           5.8837    1.5701   22.5080 C.3     1  UNL1        0.0186
     35 C           6.1851    1.8288   21.0615 C.3     1  UNL1        0.0185
     36 C           5.1226    2.7400   20.5224 C.3     1  UNL1        0.0686
     37 N           4.1645    3.0445   21.6357 N.3     1  UNL1       -0.2974
     38 H           3.2287    2.7262   21.3838 H       1  UNL1        0.1232
@<TRIPOS>BOND
     1    21    22    1
     2    22    23   ar
     3    23    24   ar
     4    24    25    1
     5    24    26   ar
     6    26    27   ar
     7    27     1    1
     8     1     2   ar
     9     2     3   ar
    10     3     4   ar
    11     4     5   ar
    12     5     6   ar
    13     6     7   ar
    14     7    12    1
    15    12    13   ar
    16    13    14   ar
    17    14    15    1
    18    14    16   ar
    19    16    17   ar
    20    17    18    1
    21    17    19   ar
    22     7     8   ar
    23     8     9    2
    24     8    10   ar
    25    10    11   ar
    26    11    29    1
    27    29    30    1
    28    30    31    1
    29    30    32    1
    30    33    32    1
    31    33    34    1
    32    34    35    1
    33    35    36    1
    34    36    37    1
    35    27    28   ar
    36    28    22   ar
    37    11     1   ar
    38    37    33    1
    39    10     4   ar
    40    19    12   ar
    41    15    20    1
    42    37    38    1
