@<TRIPOS>MOLECULE
*****
 31 35 0 0 0
SMALL
GASTEIGER

@<TRIPOS>ATOM
      1 C          -1.1876    2.9934   26.3286 C.ar    1  UNL1        0.1035
      2 C          -2.2713    3.9764   26.6594 C.ar    1  UNL1        0.1197
      3 N          -2.7926    4.5422   25.3717 N.ar    1  UNL1       -0.2234
      4 C          -2.0311    3.9089   24.2452 C.ar    1  UNL1        0.1639
      5 C          -2.1129    4.0802   22.7572 C.ar    1  UNL1        0.0404
      6 C          -1.2026    3.2943   21.8607 C.ar    1  UNL1        0.0240
      7 C          -0.2107    2.3371   22.4521 C.ar    1  UNL1        0.1014
      8 N          -0.1289    2.1658   23.9401 N.ar    1  UNL1       -0.1638
      9 N          -1.0392    2.9517   24.8366 N.ar    1  UNL1       -0.2107
     10 C           1.1991    0.5912   29.2922 C.ar    1  UNL1        0.0684
     11 C           1.7908    1.8243   28.6764 C.ar    1  UNL1        0.0103
     12 C           0.9952    2.6251   27.6886 C.ar    1  UNL1        0.0022
     13 C          -0.3920    2.1927   27.3165 C.ar    1  UNL1        0.0193
     14 C          -0.9837    0.9595   27.9323 C.ar    1  UNL1        0.0022
     15 C          -0.1881    0.1587   28.9202 C.ar    1  UNL1        0.0103
     16 N           2.7904   -1.0102   31.2678 N.1     1  UNL1       -0.1908
     17 C           1.9948   -0.2095   30.2801 C.1     1  UNL1        0.1004
     18 C           0.6996    1.5512   21.5556 C.ar    1  UNL1        0.0194
     19 C           2.1606    1.8850   21.4914 C.ar    1  UNL1        0.0017
     20 C           3.0708    1.0991   20.5948 C.ar    1  UNL1        0.0046
     21 C           2.5201   -0.0206   19.7624 C.ar    1  UNL1        0.0536
     22 C           1.0591   -0.3544   19.8266 C.ar    1  UNL1        0.0046
     23 C           0.1489    0.4315   20.7232 C.ar    1  UNL1        0.0017
     24 C           3.4303   -0.8065   18.8658 C.2     1  UNL1        0.2492
     25 O           3.6229   -0.3868   17.4387 O.2     1  UNL1       -0.2699
     26 N           4.1478   -2.0121   19.3964 N.am    1  UNL1       -0.2709
     27 C           3.9552   -2.4318   20.8236 C.3     1  UNL1        0.1258
     28 C           4.6728   -3.6375   21.3541 C.3     1  UNL1        0.1637
     29 O           5.5830   -4.4234   20.4576 O.3     1  UNL1       -0.3501
     30 C           5.7756   -4.0037   19.0304 C.3     1  UNL1        0.1637
     31 C           5.0581   -2.7981   18.4999 C.3     1  UNL1        0.1258
@<TRIPOS>BOND
     1    16    17    3
     2    17    10    1
     3    10    11   ar
     4    11    12   ar
     5    12    13   ar
     6    13     1    1
     7     1     2   ar
     8     2     3   ar
     9     3     4   ar
    10     4     5   ar
    11     5     6   ar
    12     6     7   ar
    13     7    18    1
    14    18    19   ar
    15    19    20   ar
    16    20    21   ar
    17    21    24    1
    18    24    25    2
    19    24    26   am
    20    26    27    1
    21    27    28    1
    22    28    29    1
    23    29    30    1
    24    30    31    1
    25    21    22   ar
    26    22    23   ar
    27     7     8   ar
    28     8     9   ar
    29    13    14   ar
    30    14    15   ar
    31    15    10   ar
    32     9     1   ar
    33     9     4   ar
    34    23    18   ar
    35    31    26    1
@<TRIPOS>MOLECULE
*****
 31 35 0 0 0
SMALL
GASTEIGER

@<TRIPOS>ATOM
      1 C         -12.4918   -6.2099   18.5827 C.ar    1  UNL1        0.1035
      2 C         -11.0685   -6.6758   18.4981 C.ar    1  UNL1        0.1197
      3 N         -10.1800   -5.4713   18.5966 N.ar    1  UNL1       -0.2234
      4 C         -11.0541   -4.2610   18.7422 C.ar    1  UNL1        0.1639
      5 C         -10.7336   -2.8023   18.8814 C.ar    1  UNL1        0.0404
      6 C         -11.8419   -1.8001   19.0120 C.ar    1  UNL1        0.0240
      7 C         -13.2708   -2.2566   19.0034 C.ar    1  UNL1        0.1014
      8 N         -13.5912   -3.7153   18.8642 N.ar    1  UNL1       -0.1638
      9 N         -12.4829   -4.7175   18.7336 N.ar    1  UNL1       -0.2107
     10 C         -16.1469   -8.8294   18.4138 C.ar    1  UNL1        0.0684
     11 C         -14.9636   -9.1360   17.5444 C.ar    1  UNL1        0.0103
     12 C         -13.7453   -8.2628   17.6008 C.ar    1  UNL1        0.0022
     13 C         -13.7101   -7.0831   18.5264 C.ar    1  UNL1        0.0193
     14 C         -14.8935   -6.7764   19.3958 C.ar    1  UNL1        0.0022
     15 C         -16.1119   -7.6496   19.3394 C.ar    1  UNL1        0.0103
     16 N         -18.5835  -10.5758   18.3010 N.1     1  UNL1       -0.1908
     17 C         -17.3653   -9.7026   18.3574 C.1     1  UNL1        0.1004
     18 C         -14.3791   -1.2543   19.1341 C.ar    1  UNL1        0.0194
     19 C         -15.6991   -1.6672   19.7146 C.ar    1  UNL1        0.0017
     20 C         -16.8075   -0.6649   19.8452 C.ar    1  UNL1        0.0046
     21 C         -16.5958    0.7503   19.3953 C.ar    1  UNL1        0.0536
     22 C         -15.2757    1.1632   18.8148 C.ar    1  UNL1        0.0046
     23 C         -14.1674    0.1609   18.6842 C.ar    1  UNL1        0.0017
     24 C         -17.7040    1.7526   19.5259 C.2     1  UNL1        0.2492
     25 O         -18.4666    2.1901   18.3106 O.2     1  UNL1       -0.2699
     26 N         -18.0497    2.3173   20.8719 N.am    1  UNL1       -0.2709
     27 C         -17.2871    1.8797   22.0872 C.3     1  UNL1        0.1258
     28 C         -17.6328    2.4445   23.4332 C.3     1  UNL1        0.1637
     29 O         -18.7411    3.4468   23.5638 O.3     1  UNL1       -0.3501
     30 C         -19.5037    3.8843   22.3485 C.3     1  UNL1        0.1637
     31 C         -19.1580    3.3196   21.0025 C.3     1  UNL1        0.1258
@<TRIPOS>BOND
     1    16    17    3
     2    17    10    1
     3    10    11   ar
     4    11    12   ar
     5    12    13   ar
     6    13     1    1
     7     1     2   ar
     8     2     3   ar
     9     3     4   ar
    10     4     5   ar
    11     5     6   ar
    12     6     7   ar
    13     7    18    1
    14    18    19   ar
    15    19    20   ar
    16    20    21   ar
    17    21    24    1
    18    24    25    2
    19    24    26   am
    20    26    27    1
    21    27    28    1
    22    28    29    1
    23    29    30    1
    24    30    31    1
    25    21    22   ar
    26    22    23   ar
    27     7     8   ar
    28     8     9   ar
    29    13    14   ar
    30    14    15   ar
    31    15    10   ar
    32     9     1   ar
    33     9     4   ar
    34    23    18   ar
    35    31    26    1
@<TRIPOS>MOLECULE
*****
 31 35 0 0 0
SMALL
GASTEIGER

@<TRIPOS>ATOM
      1 C           0.5264    2.0119   19.3550 C.ar    1  UNL1        0.1035
      2 C          -0.0029    2.8203   18.2077 C.ar    1  UNL1        0.1197
      3 N          -0.9259    3.8642   18.7632 N.ar    1  UNL1       -0.2234
      4 C          -0.9670    3.7009   20.2537 C.ar    1  UNL1        0.1639
      5 C          -1.7058    4.4467   21.3251 C.ar    1  UNL1        0.0404
      6 C          -1.5470    4.0477   22.7623 C.ar    1  UNL1        0.0240
      7 C          -0.6493    2.9029   23.1281 C.ar    1  UNL1        0.1014
      8 N           0.0894    2.1571   22.0567 N.ar    1  UNL1       -0.1638
      9 N          -0.0694    2.5561   20.6195 N.ar    1  UNL1       -0.2107
     10 C           3.3979   -1.4400   19.0561 C.ar    1  UNL1        0.0684
     11 C           3.5331   -0.2694   18.1280 C.ar    1  UNL1        0.0103
     12 C           2.5759    0.8812   18.2277 C.ar    1  UNL1        0.0022
     13 C           1.4836    0.8613   19.2554 C.ar    1  UNL1        0.0193
     14 C           1.3483   -0.3094   20.1835 C.ar    1  UNL1        0.0022
     15 C           2.3055   -1.4600   20.0839 C.ar    1  UNL1        0.0103
     16 N           5.3120   -3.7413   18.8567 N.1     1  UNL1       -0.1908
     17 C           4.3550   -2.5906   18.9564 C.1     1  UNL1        0.1004
     18 C          -0.4905    2.5040   24.5653 C.ar    1  UNL1        0.0194
     19 C           0.7096    1.7140   24.9962 C.ar    1  UNL1        0.0017
     20 C           0.8684    1.3151   26.4335 C.ar    1  UNL1        0.0046
     21 C          -0.1729    1.7061   27.4398 C.ar    1  UNL1        0.0536
     22 C          -1.3731    2.4961   27.0089 C.ar    1  UNL1        0.0046
     23 C          -1.5318    2.8950   25.5717 C.ar    1  UNL1        0.0017
     24 C          -0.0142    1.3072   28.8770 C.2     1  UNL1        0.2492
     25 O          -0.4151   -0.0679   29.3224 O.2     1  UNL1       -0.2699
     26 N           0.5454    2.2834   29.8689 N.am    1  UNL1       -0.2709
     27 C           0.9463    3.6585   29.4235 C.3     1  UNL1        0.1258
     28 C           1.5060    4.6348   30.4154 C.3     1  UNL1        0.1637
     29 O           1.6647    4.2359   31.8526 O.3     1  UNL1       -0.3501
     30 C           1.2639    2.8608   32.2980 C.3     1  UNL1        0.1637
     31 C           0.7042    1.8845   31.3062 C.3     1  UNL1        0.1258
@<TRIPOS>BOND
     1    16    17    3
     2    17    10    1
     3    10    11   ar
     4    11    12   ar
     5    12    13   ar
     6    13     1    1
     7     1     2   ar
     8     2     3   ar
     9     3     4   ar
    10     4     5   ar
    11     5     6   ar
    12     6     7   ar
    13     7    18    1
    14    18    19   ar
    15    19    20   ar
    16    20    21   ar
    17    21    24    1
    18    24    25    2
    19    24    26   am
    20    26    27    1
    21    27    28    1
    22    28    29    1
    23    29    30    1
    24    30    31    1
    25    21    22   ar
    26    22    23   ar
    27     7     8   ar
    28     8     9   ar
    29    13    14   ar
    30    14    15   ar
    31    15    10   ar
    32     9     1   ar
    33     9     4   ar
    34    23    18   ar
    35    31    26    1
@<TRIPOS>MOLECULE
*****
 31 35 0 0 0
SMALL
GASTEIGER

@<TRIPOS>ATOM
      1 C          -1.9279    3.4732   23.9963 C.ar    1  UNL1        0.1035
      2 C          -3.0582    4.4577   24.0529 C.ar    1  UNL1        0.1197
      3 N          -3.3262    4.9364   22.6568 N.ar    1  UNL1       -0.2234
      4 C          -2.3616    4.2477   21.7374 C.ar    1  UNL1        0.1639
      5 C          -2.1586    4.3272   20.2533 C.ar    1  UNL1        0.0404
      6 C          -1.0914    3.5024   19.5972 C.ar    1  UNL1        0.0240
      7 C          -0.2272    2.5980   20.4250 C.ar    1  UNL1        0.1014
      8 N          -0.4302    2.5185   21.9090 N.ar    1  UNL1       -0.1638
      9 N          -1.4974    3.3433   22.5652 N.ar    1  UNL1       -0.2107
     10 C          -0.1421    1.2919   27.5038 C.ar    1  UNL1        0.0684
     11 C           0.4787    1.1616   26.1445 C.ar    1  UNL1        0.0103
     12 C          -0.1166    1.8887   24.9754 C.ar    1  UNL1        0.0022
     13 C          -1.3326    2.7461   25.1654 C.ar    1  UNL1        0.0193
     14 C          -1.9534    2.8764   26.5248 C.ar    1  UNL1        0.0022
     15 C          -1.3581    2.1493   27.6940 C.ar    1  UNL1        0.0103
     16 N           1.0484   -0.1623   29.8422 N.1     1  UNL1       -0.1908
     17 C           0.4532    0.5648   28.6730 C.1     1  UNL1        0.1004
     18 C           0.8401    1.7732   19.7687 C.ar    1  UNL1        0.0194
     19 C           1.8793    2.4348   18.9130 C.ar    1  UNL1        0.0017
     20 C           2.9466    1.6099   18.2567 C.ar    1  UNL1        0.0046
     21 C           2.9746    0.1235   18.4562 C.ar    1  UNL1        0.0536
     22 C           1.9353   -0.5380   19.3120 C.ar    1  UNL1        0.0046
     23 C           0.8681    0.2868   19.9683 C.ar    1  UNL1        0.0017
     24 C           4.0418   -0.7013   17.8000 C.2     1  UNL1        0.2492
     25 O           3.9105   -1.0865   16.3563 O.2     1  UNL1       -0.2699
     26 N           5.2404   -1.1409   18.5875 N.am    1  UNL1       -0.2709
     27 C           5.3717   -0.7557   20.0313 C.3     1  UNL1        0.1258
     28 C           6.5703   -1.1953   20.8188 C.3     1  UNL1        0.1637
     29 O           7.6375   -2.0202   20.1626 O.3     1  UNL1       -0.3501
     30 C           7.5062   -2.4054   18.7189 C.3     1  UNL1        0.1637
     31 C           6.3077   -1.9658   17.9313 C.3     1  UNL1        0.1258
@<TRIPOS>BOND
     1    16    17    3
     2    17    10    1
     3    10    11   ar
     4    11    12   ar
     5    12    13   ar
     6    13     1    1
     7     1     2   ar
     8     2     3   ar
     9     3     4   ar
    10     4     5   ar
    11     5     6   ar
    12     6     7   ar
    13     7    18    1
    14    18    19   ar
    15    19    20   ar
    16    20    21   ar
    17    21    24    1
    18    24    25    2
    19    24    26   am
    20    26    27    1
    21    27    28    1
    22    28    29    1
    23    29    30    1
    24    30    31    1
    25    21    22   ar
    26    22    23   ar
    27     7     8   ar
    28     8     9   ar
    29    13    14   ar
    30    14    15   ar
    31    15    10   ar
    32     9     1   ar
    33     9     4   ar
    34    23    18   ar
    35    31    26    1
@<TRIPOS>MOLECULE
*****
 31 35 0 0 0
SMALL
GASTEIGER

@<TRIPOS>ATOM
      1 C           4.0037   -1.1801   18.9190 C.ar    1  UNL1        0.1035
      2 C           4.4426   -1.6243   17.5552 C.ar    1  UNL1        0.1197
      3 N           5.6969   -2.4319   17.7122 N.ar    1  UNL1       -0.2234
      4 C           6.0331   -2.4868   19.1730 C.ar    1  UNL1        0.1639
      5 C           7.1569   -3.1414   19.9203 C.ar    1  UNL1        0.0404
      6 C           7.2342   -3.0222   21.4135 C.ar    1  UNL1        0.0240
      7 C           6.1877   -2.2485   22.1594 C.ar    1  UNL1        0.1014
      8 N           5.0639   -1.5940   21.4121 N.ar    1  UNL1       -0.1638
      9 N           4.9866   -1.7131   19.9188 N.ar    1  UNL1       -0.2107
     10 C           0.3750    1.3139   19.8479 C.ar    1  UNL1        0.0684
     11 C           1.4193    1.8317   18.9039 C.ar    1  UNL1        0.0103
     12 C           2.6289    1.0004   18.5943 C.ar    1  UNL1        0.0022
     13 C           2.7941   -0.3487   19.2286 C.ar    1  UNL1        0.0193
     14 C           1.7497   -0.8666   20.1727 C.ar    1  UNL1        0.0022
     15 C           0.5402   -0.0352   20.4823 C.ar    1  UNL1        0.0103
     16 N          -2.0440    2.9766   20.4673 N.1     1  UNL1       -0.1908
     17 C          -0.8346    2.1453   20.1575 C.1     1  UNL1        0.1004
     18 C           6.2651   -2.1294   23.6527 C.ar    1  UNL1        0.0194
     19 C           5.0108   -1.9595   24.4576 C.ar    1  UNL1        0.0017
     20 C           5.0882   -1.8404   25.9509 C.ar    1  UNL1        0.0046
     21 C           6.4199   -1.8911   26.6393 C.ar    1  UNL1        0.0536
     22 C           7.6743   -2.0610   25.8343 C.ar    1  UNL1        0.0046
     23 C           7.5969   -2.1801   24.3411 C.ar    1  UNL1        0.0017
     24 C           6.4974   -1.7720   28.1325 C.2     1  UNL1        0.2492
     25 O           6.4750   -0.4187   28.7791 O.2     1  UNL1       -0.2699
     26 N           6.5972   -3.0062   28.9791 N.am    1  UNL1       -0.2709
     27 C           6.6197   -4.3595   28.3325 C.3     1  UNL1        0.1258
     28 C           6.7195   -5.5937   29.1792 C.3     1  UNL1        0.1637
     29 O           6.7969   -5.4745   30.6724 O.3     1  UNL1       -0.3501
     30 C           6.7745   -4.1213   31.3190 C.3     1  UNL1        0.1637
     31 C           6.6747   -2.8871   30.4724 C.3     1  UNL1        0.1258
@<TRIPOS>BOND
     1    16    17    3
     2    17    10    1
     3    10    11   ar
     4    11    12   ar
     5    12    13   ar
     6    13     1    1
     7     1     2   ar
     8     2     3   ar
     9     3     4   ar
    10     4     5   ar
    11     5     6   ar
    12     6     7   ar
    13     7    18    1
    14    18    19   ar
    15    19    20   ar
    16    20    21   ar
    17    21    24    1
    18    24    25    2
    19    24    26   am
    20    26    27    1
    21    27    28    1
    22    28    29    1
    23    29    30    1
    24    30    31    1
    25    21    22   ar
    26    22    23   ar
    27     7     8   ar
    28     8     9   ar
    29    13    14   ar
    30    14    15   ar
    31    15    10   ar
    32     9     1   ar
    33     9     4   ar
    34    23    18   ar
    35    31    26    1
@<TRIPOS>MOLECULE
*****
 31 35 0 0 0
SMALL
GASTEIGER

@<TRIPOS>ATOM
      1 C          -0.9721    3.2670   24.6773 C.ar    1  UNL1        0.1035
      2 C          -1.9735    4.3011   24.2557 C.ar    1  UNL1        0.1197
      3 N          -2.0575    4.2816   22.7582 N.ar    1  UNL1       -0.2234
      4 C          -1.1079    3.2354   22.2543 C.ar    1  UNL1        0.1639
      5 C          -0.7675    2.7728   20.8686 C.ar    1  UNL1        0.0404
      6 C           0.2438    1.6831   20.6691 C.ar    1  UNL1        0.0240
      7 C           0.9146    1.0560   21.8552 C.ar    1  UNL1        0.1014
      8 N           0.5741    1.5187   23.2408 N.ar    1  UNL1       -0.1638
      9 N          -0.4372    2.6083   23.4404 N.ar    1  UNL1       -0.2107
     10 C           0.2183    2.3087   28.9099 C.ar    1  UNL1        0.0684
     11 C          -0.2621    1.2169   28.0004 C.ar    1  UNL1        0.0103
     12 C          -0.6589    1.5363   26.5896 C.ar    1  UNL1        0.0022
     13 C          -0.5753    2.9475   26.0882 C.ar    1  UNL1        0.0193
     14 C          -0.0948    4.0394   26.9977 C.ar    1  UNL1        0.0022
     15 C           0.3020    3.7199   28.4085 C.ar    1  UNL1        0.0103
     16 N           1.0121    1.6697   31.7315 N.1     1  UNL1       -0.1908
     17 C           0.6152    1.9892   30.3208 C.1     1  UNL1        0.1004
     18 C           1.9259   -0.0337   21.6556 C.ar    1  UNL1        0.0194
     19 C           2.1461   -0.6114   20.2889 C.ar    1  UNL1        0.0017
     20 C           3.1574   -1.7012   20.0893 C.ar    1  UNL1        0.0046
     21 C           3.9484   -2.2132   21.2564 C.ar    1  UNL1        0.0536
     22 C           3.7282   -1.6354   22.6231 C.ar    1  UNL1        0.0046
     23 C           2.7169   -0.5457   22.8226 C.ar    1  UNL1        0.0017
     24 C           4.9597   -3.3029   21.0568 C.2     1  UNL1        0.2492
     25 O           4.5212   -4.7371   21.0288 O.2     1  UNL1       -0.2699
     26 N           6.4095   -2.9583   20.8854 N.am    1  UNL1       -0.2709
     27 C           6.8480   -1.5241   20.9135 C.3     1  UNL1        0.1258
     28 C           8.2978   -1.1797   20.7420 C.3     1  UNL1        0.1637
     29 O           9.3091   -2.2694   20.5424 O.3     1  UNL1       -0.3501
     30 C           8.8706   -3.7036   20.5143 C.3     1  UNL1        0.1637
     31 C           7.4208   -4.0481   20.6858 C.3     1  UNL1        0.1258
@<TRIPOS>BOND
     1    16    17    3
     2    17    10    1
     3    10    11   ar
     4    11    12   ar
     5    12    13   ar
     6    13     1    1
     7     1     2   ar
     8     2     3   ar
     9     3     4   ar
    10     4     5   ar
    11     5     6   ar
    12     6     7   ar
    13     7    18    1
    14    18    19   ar
    15    19    20   ar
    16    20    21   ar
    17    21    24    1
    18    24    25    2
    19    24    26   am
    20    26    27    1
    21    27    28    1
    22    28    29    1
    23    29    30    1
    24    30    31    1
    25    21    22   ar
    26    22    23   ar
    27     7     8   ar
    28     8     9   ar
    29    13    14   ar
    30    14    15   ar
    31    15    10   ar
    32     9     1   ar
    33     9     4   ar
    34    23    18   ar
    35    31    26    1
@<TRIPOS>MOLECULE
*****
 31 35 0 0 0
SMALL
GASTEIGER

@<TRIPOS>ATOM
      1 C           3.8433   -2.1729   20.2987 C.ar    1  UNL1        0.1035
      2 C           4.3816   -3.3166   19.4910 C.ar    1  UNL1        0.1197
      3 N           5.2008   -4.1822   20.4019 N.ar    1  UNL1       -0.2234
      4 C           5.1689   -3.5735   21.7725 C.ar    1  UNL1        0.1639
      5 C           5.7954   -3.9895   23.0703 C.ar    1  UNL1        0.0404
      6 C           5.5829   -3.1637   24.3043 C.ar    1  UNL1        0.0240
      7 C           4.7439   -1.9219   24.2406 C.ar    1  UNL1        0.1014
      8 N           4.1174   -1.5059   22.9427 N.ar    1  UNL1       -0.1638
      9 N           4.3299   -2.3317   21.7087 N.ar    1  UNL1       -0.2107
     10 C           1.2279    1.1508   18.7617 C.ar    1  UNL1        0.0684
     11 C           2.6220    0.9877   18.2326 C.ar    1  UNL1        0.0103
     12 C           3.4937   -0.1202   18.7450 C.ar    1  UNL1        0.0022
     13 C           2.9715   -1.0650   19.7863 C.ar    1  UNL1        0.0193
     14 C           1.5774   -0.9019   20.3155 C.ar    1  UNL1        0.0022
     15 C           0.7056    0.2060   19.8031 C.ar    1  UNL1        0.0103
     16 N          -0.5156    3.3667   17.7370 N.1     1  UNL1       -0.1908
     17 C           0.3561    2.2588   18.2493 C.1     1  UNL1        0.1004
     18 C           4.5314   -1.0962   25.4747 C.ar    1  UNL1        0.0194
     19 C           4.2599    0.3742   25.3557 C.ar    1  UNL1        0.0017
     20 C           4.0474    1.2000   26.5898 C.ar    1  UNL1        0.0046
     21 C           4.1065    0.5553   27.9429 C.ar    1  UNL1        0.0536
     22 C           4.3781   -0.9152   28.0619 C.ar    1  UNL1        0.0046
     23 C           4.5905   -1.7409   26.8278 C.ar    1  UNL1        0.0017
     24 C           3.8940    1.3810   29.1770 C.2     1  UNL1        0.2492
     25 O           5.0509    2.0967   29.8090 O.2     1  UNL1       -0.2699
     26 N           2.5246    1.4910   29.7792 N.am    1  UNL1       -0.2709
     27 C           1.3677    0.7753   29.1473 C.3     1  UNL1        0.1258
     28 C          -0.0017    0.8853   29.7495 C.3     1  UNL1        0.1637
     29 O          -0.2142    1.7110   30.9836 O.3     1  UNL1       -0.3501
     30 C           0.9427    2.4267   31.6156 C.3     1  UNL1        0.1637
     31 C           2.3121    2.3167   31.0134 C.3     1  UNL1        0.1258
@<TRIPOS>BOND
     1    16    17    3
     2    17    10    1
     3    10    11   ar
     4    11    12   ar
     5    12    13   ar
     6    13     1    1
     7     1     2   ar
     8     2     3   ar
     9     3     4   ar
    10     4     5   ar
    11     5     6   ar
    12     6     7   ar
    13     7    18    1
    14    18    19   ar
    15    19    20   ar
    16    20    21   ar
    17    21    24    1
    18    24    25    2
    19    24    26   am
    20    26    27    1
    21    27    28    1
    22    28    29    1
    23    29    30    1
    24    30    31    1
    25    21    22   ar
    26    22    23   ar
    27     7     8   ar
    28     8     9   ar
    29    13    14   ar
    30    14    15   ar
    31    15    10   ar
    32     9     1   ar
    33     9     4   ar
    34    23    18   ar
    35    31    26    1
@<TRIPOS>MOLECULE
*****
 31 35 0 0 0
SMALL
GASTEIGER

@<TRIPOS>ATOM
      1 C           3.7608    0.7045   33.6325 C.ar    1  UNL1        0.1035
      2 C           3.9411    1.1528   35.0525 C.ar    1  UNL1        0.1197
      3 N           3.0422    2.3311   35.2842 N.ar    1  UNL1       -0.2234
      4 C           2.3064    2.6110   34.0074 C.ar    1  UNL1        0.1639
      5 C           1.2893    3.6513   33.6425 C.ar    1  UNL1        0.0404
      6 C           0.7164    3.6863   32.2567 C.ar    1  UNL1        0.0240
      7 C           1.1605    2.6810   31.2358 C.ar    1  UNL1        0.1014
      8 N           2.1776    1.6407   31.6008 N.ar    1  UNL1       -0.1638
      9 N           2.7505    1.6056   32.9866 N.ar    1  UNL1       -0.2107
     10 C           5.8791   -2.7394   31.6568 C.ar    1  UNL1        0.0684
     11 C           5.1022   -2.9621   32.9205 C.ar    1  UNL1        0.0103
     12 C           4.3962   -1.8141   33.5790 C.ar    1  UNL1        0.0022
     13 C           4.4669   -0.4435   32.9740 C.ar    1  UNL1        0.0193
     14 C           5.2438   -0.2207   31.7102 C.ar    1  UNL1        0.0022
     15 C           5.9498   -1.3687   31.0517 C.ar    1  UNL1        0.0103
     16 N           7.2912   -5.0352   30.3399 N.1     1  UNL1       -0.1908
     17 C           6.5851   -3.8873   30.9983 C.1     1  UNL1        0.1004
     18 C           0.5875    2.7161   29.8500 C.ar    1  UNL1        0.0194
     19 C           0.6425    3.9821   29.0475 C.ar    1  UNL1        0.0017
     20 C           0.0696    4.0172   27.6616 C.ar    1  UNL1        0.0046
     21 C          -0.5584    2.7862   27.0783 C.ar    1  UNL1        0.0536
     22 C          -0.6134    1.5201   27.8809 C.ar    1  UNL1        0.0046
     23 C          -0.0405    1.4851   29.2667 C.ar    1  UNL1        0.0017
     24 C          -1.1314    2.8212   25.6925 C.2     1  UNL1        0.2492
     25 O          -0.3148    2.3377   24.5309 O.2     1  UNL1       -0.2699
     26 N          -2.5210    3.3396   25.4684 N.am    1  UNL1       -0.2709
     27 C          -3.3376    3.8231   26.6301 C.3     1  UNL1        0.1258
     28 C          -4.7272    4.3416   26.4059 C.3     1  UNL1        0.1637
     29 O          -5.3002    4.3766   25.0201 O.3     1  UNL1       -0.3501
     30 C          -4.4836    3.8931   23.8585 C.3     1  UNL1        0.1637
     31 C          -3.0940    3.3747   24.0826 C.3     1  UNL1        0.1258
@<TRIPOS>BOND
     1    16    17    3
     2    17    10    1
     3    10    11   ar
     4    11    12   ar
     5    12    13   ar
     6    13     1    1
     7     1     2   ar
     8     2     3   ar
     9     3     4   ar
    10     4     5   ar
    11     5     6   ar
    12     6     7   ar
    13     7    18    1
    14    18    19   ar
    15    19    20   ar
    16    20    21   ar
    17    21    24    1
    18    24    25    2
    19    24    26   am
    20    26    27    1
    21    27    28    1
    22    28    29    1
    23    29    30    1
    24    30    31    1
    25    21    22   ar
    26    22    23   ar
    27     7     8   ar
    28     8     9   ar
    29    13    14   ar
    30    14    15   ar
    31    15    10   ar
    32     9     1   ar
    33     9     4   ar
    34    23    18   ar
    35    31    26    1
@<TRIPOS>MOLECULE
*****
 31 35 0 0 0
SMALL
GASTEIGER

@<TRIPOS>ATOM
      1 C          -1.4025    3.3885   22.9148 C.ar    1  UNL1        0.1035
      2 C          -2.4147    4.4218   22.5176 C.ar    1  UNL1        0.1197
      3 N          -2.3166    4.6205   21.0341 N.ar    1  UNL1       -0.2234
      4 C          -1.2438    3.7100   20.5144 C.ar    1  UNL1        0.1639
      5 C          -0.7084    3.4759   19.1329 C.ar    1  UNL1        0.0404
      6 C           0.3920    2.4804   18.9138 C.ar    1  UNL1        0.0240
      7 C           0.9570    1.7190   20.0762 C.ar    1  UNL1        0.1014
      8 N           0.4215    1.9531   21.4576 N.ar    1  UNL1       -0.1638
      9 N          -0.6788    2.9486   21.6767 N.ar    1  UNL1       -0.2107
     10 C          -0.6660    1.8741   27.0879 C.ar    1  UNL1        0.0684
     11 C          -1.7528    2.8765   26.8346 C.ar    1  UNL1        0.0103
     12 C          -1.9983    3.3813   25.4436 C.ar    1  UNL1        0.0022
     13 C          -1.1570    2.8838   24.3058 C.ar    1  UNL1        0.0193
     14 C          -0.0701    1.8814   24.5590 C.ar    1  UNL1        0.0022
     15 C           0.1754    1.3766   25.9501 C.ar    1  UNL1        0.0103
     16 N          -0.1749    0.8646   29.8698 N.1     1  UNL1       -0.1908
     17 C          -0.4205    1.3694   28.4789 C.1     1  UNL1        0.1004
     18 C           2.0574    0.7234   19.8570 C.ar    1  UNL1        0.0194
     19 C           3.3917    1.1806   19.3467 C.ar    1  UNL1        0.0017
     20 C           4.4922    0.1850   19.1275 C.ar    1  UNL1        0.0046
     21 C           4.2582   -1.2677   19.4187 C.ar    1  UNL1        0.0536
     22 C           2.9238   -1.7249   19.9291 C.ar    1  UNL1        0.0046
     23 C           1.8234   -0.7294   20.1482 C.ar    1  UNL1        0.0017
     24 C           5.3585   -2.2633   19.1996 C.2     1  UNL1        0.2492
     25 O           5.5719   -2.8580   17.8391 O.2     1  UNL1       -0.2699
     26 N           6.2455   -2.6641   20.3409 N.am    1  UNL1       -0.2709
     27 C           6.0321   -2.0694   21.7013 C.3     1  UNL1        0.1258
     28 C           6.9191   -2.4703   22.8426 C.3     1  UNL1        0.1637
     29 O           8.0194   -3.4659   22.6235 O.3     1  UNL1       -0.3501
     30 C           8.2328   -4.0606   21.2631 C.3     1  UNL1        0.1637
     31 C           7.3459   -3.6597   20.1218 C.3     1  UNL1        0.1258
@<TRIPOS>BOND
     1    16    17    3
     2    17    10    1
     3    10    11   ar
     4    11    12   ar
     5    12    13   ar
     6    13     1    1
     7     1     2   ar
     8     2     3   ar
     9     3     4   ar
    10     4     5   ar
    11     5     6   ar
    12     6     7   ar
    13     7    18    1
    14    18    19   ar
    15    19    20   ar
    16    20    21   ar
    17    21    24    1
    18    24    25    2
    19    24    26   am
    20    26    27    1
    21    27    28    1
    22    28    29    1
    23    29    30    1
    24    30    31    1
    25    21    22   ar
    26    22    23   ar
    27     7     8   ar
    28     8     9   ar
    29    13    14   ar
    30    14    15   ar
    31    15    10   ar
    32     9     1   ar
    33     9     4   ar
    34    23    18   ar
    35    31    26    1
