@<TRIPOS>MOLECULE
*****
 21 22 0 0 0
SMALL
GASTEIGER

@<TRIPOS>ATOM
      1 C          -6.9687  -15.5691   23.9416 C.ar    1  UNL1        0.1454
      2 C          -7.9617  -15.6467   25.0634 C.ar    1  UNL1        0.0519
      3 C          -7.4948  -15.5551   26.4859 C.ar    1  UNL1        0.0624
      4 C          -8.4878  -15.6328   27.6075 C.3     1  UNL1        0.0522
      5 N          -6.0351  -15.3858   26.7868 N.ar    1  UNL1       -0.2482
      6 C          -5.0422  -15.3081   25.6652 C.ar    1  UNL1        0.0985
      7 C          -5.5090  -15.3997   24.2426 C.ar    1  UNL1        0.0475
      8 O          -7.4355  -15.6607   22.5191 O.3     1  UNL1       -0.4506
      9 C          -7.8249  -18.0581   21.5965 C.ar    1  UNL1        0.1738
     10 C          -8.7610  -19.1549   21.1836 C.ar    1  UNL1        0.0514
     11 C         -10.2440  -18.9512   21.2802 C.ar    1  UNL1        0.0609
     12 CL        -11.1801  -20.0481   20.8672 Cl      1  UNL1       -0.0821
     13 C         -10.7908  -17.6508   21.7898 C.ar    1  UNL1        0.0147
     14 C          -9.8547  -16.5539   22.2027 C.ar    1  UNL1        0.0415
     15 C          -8.3717  -16.7576   22.1061 C.ar    1  UNL1        0.1790
     16 C          -5.7855  -19.2862   20.5562 C.3     1  UNL1        0.2526
     17 O          -6.3419  -18.2617   21.4999 O.3     1  UNL1       -0.4683
     18 C          -4.5161  -15.3221   23.1210 C.3     1  UNL1        0.1039
     19 N          -3.5709  -16.4607   22.8758 N.3     1  UNL1       -0.2664
     20 C          -3.8166  -17.7919   23.5222 C.3     1  UNL1        0.0899
     21 C          -2.3800  -16.2682   21.9844 C.3     1  UNL1        0.0899
@<TRIPOS>BOND
     1    16    17    1
     2    17     9    1
     3     9    10   ar
     4    10    11   ar
     5    11    12    1
     6    11    13   ar
     7    13    14   ar
     8    14    15   ar
     9    15     8    1
    10     8     1    1
    11     1     2   ar
    12     2     3   ar
    13     3     4    1
    14     3     5   ar
    15     5     6   ar
    16     6     7   ar
    17     7    18    1
    18    18    19    1
    19    19    20    1
    20    19    21    1
    21    15     9   ar
    22     7     1   ar
@<TRIPOS>MOLECULE
*****
 21 22 0 0 0
SMALL
GASTEIGER

@<TRIPOS>ATOM
      1 C          -8.0510  -18.1022   21.4021 C.ar    1  UNL1        0.1454
      2 C          -7.6459  -19.4062   20.7811 C.ar    1  UNL1        0.0519
      3 C          -6.3465  -20.0488   21.1663 C.ar    1  UNL1        0.0624
      4 C          -5.9415  -21.3527   20.5453 C.3     1  UNL1        0.0522
      5 N          -5.4520  -19.3875   22.1726 N.ar    1  UNL1       -0.2482
      6 C          -5.8570  -18.0835   22.7937 C.ar    1  UNL1        0.0985
      7 C          -7.1565  -17.4409   22.4084 C.ar    1  UNL1        0.0475
      8 O          -9.3504  -17.4596   21.0169 O.3     1  UNL1       -0.4506
      9 C         -11.9362  -17.4727   21.2694 C.ar    1  UNL1        0.1738
     10 C         -13.1579  -17.6871   22.1128 C.ar    1  UNL1        0.0514
     11 C         -13.0158  -18.1028   23.5470 C.ar    1  UNL1        0.0609
     12 CL        -14.2376  -18.3172   24.3904 Cl      1  UNL1       -0.0821
     13 C         -11.6518  -18.3042   24.1378 C.ar    1  UNL1        0.0147
     14 C         -10.4301  -18.0898   23.2945 C.ar    1  UNL1        0.0415
     15 C         -10.5723  -17.6740   21.8603 C.ar    1  UNL1        0.1790
     16 C         -11.6354  -15.6906   19.4030 C.3     1  UNL1        0.2526
     17 O         -12.0784  -17.0569   19.8352 O.3     1  UNL1       -0.4683
     18 C          -7.5615  -16.1370   23.0294 C.3     1  UNL1        0.1039
     19 N          -7.2551  -15.8664   24.4727 N.3     1  UNL1       -0.2664
     20 C          -8.3000  -16.1131   25.5203 C.3     1  UNL1        0.0899
     21 C          -5.9039  -15.3491   24.8683 C.3     1  UNL1        0.0899
@<TRIPOS>BOND
     1    16    17    1
     2    17     9    1
     3     9    10   ar
     4    10    11   ar
     5    11    12    1
     6    11    13   ar
     7    13    14   ar
     8    14    15   ar
     9    15     8    1
    10     8     1    1
    11     1     2   ar
    12     2     3   ar
    13     3     4    1
    14     3     5   ar
    15     5     6   ar
    16     6     7   ar
    17     7    18    1
    18    18    19    1
    19    19    20    1
    20    19    21    1
    21    15     9   ar
    22     7     1   ar
@<TRIPOS>MOLECULE
*****
 21 22 0 0 0
SMALL
GASTEIGER

@<TRIPOS>ATOM
      1 C          -7.2036  -17.6569   22.2355 C.ar    1  UNL1        0.1454
      2 C          -7.2599  -16.5493   23.2455 C.ar    1  UNL1        0.0519
      3 C          -6.0458  -16.2152   24.0606 C.ar    1  UNL1        0.0624
      4 C          -6.1021  -15.1076   25.0706 C.3     1  UNL1        0.0522
      5 N          -4.7755  -16.9887   23.8658 N.ar    1  UNL1       -0.2482
      6 C          -4.7192  -18.0962   22.8558 C.ar    1  UNL1        0.0985
      7 C          -5.9333  -18.4304   22.0406 C.ar    1  UNL1        0.0475
      8 O          -8.4177  -17.9910   21.4204 O.3     1  UNL1       -0.4506
      9 C         -10.8184  -17.0137   21.5980 C.ar    1  UNL1        0.1738
     10 C         -12.1753  -17.0098   22.2373 C.ar    1  UNL1        0.0514
     11 C         -12.4885  -17.9791   23.3384 C.ar    1  UNL1        0.0609
     12 CL        -13.8455  -17.9751   23.9777 Cl      1  UNL1       -0.0821
     13 C         -11.4447  -18.9523   23.8001 C.ar    1  UNL1        0.0147
     14 C         -10.0878  -18.9563   23.1608 C.ar    1  UNL1        0.0415
     15 C          -9.7747  -17.9870   22.0597 C.ar    1  UNL1        0.1790
     16 C         -11.5340  -15.7434   19.4476 C.3     1  UNL1        0.2526
     17 O         -10.5053  -16.0444   20.4969 O.3     1  UNL1       -0.4683
     18 C          -5.8770  -19.5380   21.0307 C.3     1  UNL1        0.1039
     19 N          -4.6829  -19.6746   20.1332 N.3     1  UNL1       -0.2664
     20 C          -4.1752  -18.4847   19.3740 C.3     1  UNL1        0.0899
     21 C          -3.9966  -21.0012   19.9949 C.3     1  UNL1        0.0899
@<TRIPOS>BOND
     1    16    17    1
     2    17     9    1
     3     9    10   ar
     4    10    11   ar
     5    11    12    1
     6    11    13   ar
     7    13    14   ar
     8    14    15   ar
     9    15     8    1
    10     8     1    1
    11     1     2   ar
    12     2     3   ar
    13     3     4    1
    14     3     5   ar
    15     5     6   ar
    16     6     7   ar
    17     7    18    1
    18    18    19    1
    19    19    20    1
    20    19    21    1
    21    15     9   ar
    22     7     1   ar
@<TRIPOS>MOLECULE
*****
 21 22 0 0 0
SMALL
GASTEIGER

@<TRIPOS>ATOM
      1 C          -8.9403  -17.2838   21.9073 C.ar    1  UNL1        0.1454
      2 C         -10.1327  -16.4723   21.4950 C.ar    1  UNL1        0.0519
      3 C         -11.4110  -17.1581   21.1136 C.ar    1  UNL1        0.0624
      4 C         -12.6033  -16.3467   20.7013 C.3     1  UNL1        0.0522
      5 N         -11.4971  -18.6553   21.1445 N.ar    1  UNL1       -0.2482
      6 C         -10.3049  -19.4667   21.5568 C.ar    1  UNL1        0.0985
      7 C          -9.0264  -18.7810   21.9382 C.ar    1  UNL1        0.0475
      8 O          -7.6620  -16.5980   22.2887 O.3     1  UNL1       -0.4506
      9 C          -6.0545  -15.8032   24.1687 C.ar    1  UNL1        0.1738
     10 C          -5.8262  -15.3784   25.5890 C.ar    1  UNL1        0.0514
     11 C          -6.9769  -15.3235   26.5497 C.ar    1  UNL1        0.0609
     12 CL         -6.7485  -14.8987   27.9701 Cl      1  UNL1       -0.0821
     13 C          -8.3559  -15.6935   26.0901 C.ar    1  UNL1        0.0147
     14 C          -8.5843  -16.1183   24.6697 C.ar    1  UNL1        0.0415
     15 C          -7.4336  -16.1732   23.7091 C.ar    1  UNL1        0.1790
     16 C          -3.9002  -16.9688   23.3026 C.3     1  UNL1        0.2526
     17 O          -4.9038  -15.8581   23.2081 O.3     1  UNL1       -0.4683
     18 C          -7.8342  -19.5924   22.3505 C.3     1  UNL1        0.1039
     19 N          -6.6453  -19.6939   21.4416 N.3     1  UNL1       -0.2664
     20 C          -6.8165  -19.5245   19.9610 C.3     1  UNL1        0.0899
     21 C          -5.2852  -19.9647   22.0131 C.3     1  UNL1        0.0899
@<TRIPOS>BOND
     1    16    17    1
     2    17     9    1
     3     9    10   ar
     4    10    11   ar
     5    11    12    1
     6    11    13   ar
     7    13    14   ar
     8    14    15   ar
     9    15     8    1
    10     8     1    1
    11     1     2   ar
    12     2     3   ar
    13     3     4    1
    14     3     5   ar
    15     5     6   ar
    16     6     7   ar
    17     7    18    1
    18    18    19    1
    19    19    20    1
    20    19    21    1
    21    15     9   ar
    22     7     1   ar
@<TRIPOS>MOLECULE
*****
 21 22 0 0 0
SMALL
GASTEIGER

@<TRIPOS>ATOM
      1 C          -7.9583  -19.1368   20.5249 C.ar    1  UNL1        0.1454
      2 C          -8.7428  -19.6693   19.3625 C.ar    1  UNL1        0.0519
      3 C          -8.2690  -20.8927   18.6353 C.ar    1  UNL1        0.0624
      4 C          -9.0534  -21.4251   17.4730 C.3     1  UNL1        0.0522
      5 N          -7.0107  -21.5836   19.0705 N.ar    1  UNL1       -0.2482
      6 C          -6.2262  -21.0512   20.2328 C.ar    1  UNL1        0.0985
      7 C          -6.7000  -19.8277   20.9601 C.ar    1  UNL1        0.0475
      8 O          -8.4321  -17.9134   21.2520 O.3     1  UNL1       -0.4506
      9 C         -10.8538  -16.9902   21.4343 C.ar    1  UNL1        0.1738
     10 C         -12.1963  -16.9882   22.1033 C.ar    1  UNL1        0.0514
     11 C         -12.4598  -17.9075   23.2589 C.ar    1  UNL1        0.0609
     12 CL        -13.8024  -17.9055   23.9279 Cl      1  UNL1       -0.0821
     13 C         -11.3808  -18.8288   23.7456 C.ar    1  UNL1        0.0147
     14 C         -10.0382  -18.8307   23.0766 C.ar    1  UNL1        0.0415
     15 C          -9.7747  -17.9114   21.9210 C.ar    1  UNL1        0.1790
     16 C         -11.6980  -15.7239   19.3287 C.3     1  UNL1        0.2526
     17 O         -10.5903  -16.0709   20.2787 O.3     1  UNL1       -0.4683
     18 C          -5.9156  -19.2953   22.1224 C.3     1  UNL1        0.1039
     19 N          -4.5625  -18.6879   21.8988 N.3     1  UNL1       -0.2664
     20 C          -3.8787  -17.9494   23.0112 C.3     1  UNL1        0.0899
     21 C          -3.8930  -18.8188   20.5629 C.3     1  UNL1        0.0899
@<TRIPOS>BOND
     1    16    17    1
     2    17     9    1
     3     9    10   ar
     4    10    11   ar
     5    11    12    1
     6    11    13   ar
     7    13    14   ar
     8    14    15   ar
     9    15     8    1
    10     8     1    1
    11     1     2   ar
    12     2     3   ar
    13     3     4    1
    14     3     5   ar
    15     5     6   ar
    16     6     7   ar
    17     7    18    1
    18    18    19    1
    19    19    20    1
    20    19    21    1
    21    15     9   ar
    22     7     1   ar
@<TRIPOS>MOLECULE
*****
 21 22 0 0 0
SMALL
GASTEIGER

@<TRIPOS>ATOM
      1 C          -7.1709  -19.1021   21.4768 C.ar    1  UNL1        0.1454
      2 C          -7.4973  -19.9030   20.2512 C.ar    1  UNL1        0.0519
      3 C          -8.7641  -19.6335   19.4945 C.ar    1  UNL1        0.0624
      4 C          -9.0904  -20.4345   18.2689 C.3     1  UNL1        0.0522
      5 N          -9.7045  -18.5631   19.9633 N.ar    1  UNL1       -0.2482
      6 C          -9.3782  -17.7622   21.1888 C.ar    1  UNL1        0.0985
      7 C          -8.1113  -18.0317   21.9456 C.ar    1  UNL1        0.0475
      8 O          -5.9042  -19.3716   22.2335 O.3     1  UNL1       -0.4506
      9 C          -3.6650  -18.0654   22.4078 C.ar    1  UNL1        0.1738
     10 C          -2.3423  -17.6707   21.8207 C.ar    1  UNL1        0.0514
     11 C          -1.9360  -18.1873   20.4724 C.ar    1  UNL1        0.0609
     12 CL         -0.6133  -17.7925   19.8854 Cl      1  UNL1       -0.0821
     13 C          -2.8524  -19.0987   19.7111 C.ar    1  UNL1        0.0147
     14 C          -4.1751  -19.4934   20.2981 C.ar    1  UNL1        0.0415
     15 C          -4.5814  -18.9768   21.6464 C.ar    1  UNL1        0.1790
     16 C          -4.6300  -16.1634   23.8913 C.3     1  UNL1        0.2526
     17 O          -4.0713  -17.5488   23.7561 O.3     1  UNL1       -0.4683
     18 C          -7.7850  -17.2307   23.1711 C.3     1  UNL1        0.1039
     19 N          -8.8258  -17.0244   24.2314 N.3     1  UNL1       -0.2664
     20 C          -9.6979  -18.1676   24.6588 C.3     1  UNL1        0.0899
     21 C          -8.9945  -15.6750   24.8642 C.3     1  UNL1        0.0899
@<TRIPOS>BOND
     1    16    17    1
     2    17     9    1
     3     9    10   ar
     4    10    11   ar
     5    11    12    1
     6    11    13   ar
     7    13    14   ar
     8    14    15   ar
     9    15     8    1
    10     8     1    1
    11     1     2   ar
    12     2     3   ar
    13     3     4    1
    14     3     5   ar
    15     5     6   ar
    16     6     7   ar
    17     7    18    1
    18    18    19    1
    19    19    20    1
    20    19    21    1
    21    15     9   ar
    22     7     1   ar
@<TRIPOS>MOLECULE
*****
 21 22 0 0 0
SMALL
GASTEIGER

@<TRIPOS>ATOM
      1 C          -9.1947  -18.0259   21.4995 C.ar    1  UNL1        0.1454
      2 C          -7.7323  -18.3379   21.6193 C.ar    1  UNL1        0.0519
      3 C          -7.0698  -19.2267   20.6089 C.ar    1  UNL1        0.0624
      4 C          -5.6075  -19.5386   20.7287 C.3     1  UNL1        0.0522
      5 N          -7.8696  -19.8035   19.4785 N.ar    1  UNL1       -0.2482
      6 C          -9.3318  -19.4916   19.3587 C.ar    1  UNL1        0.0985
      7 C          -9.9944  -18.6028   20.3692 C.ar    1  UNL1        0.0475
      8 O          -9.8572  -17.1371   22.5100 O.3     1  UNL1       -0.4506
      9 C          -9.3413  -17.3589   25.0467 C.ar    1  UNL1        0.1738
     10 C          -8.5851  -16.9116   26.2624 C.ar    1  UNL1        0.0514
     11 C          -7.5885  -15.7955   26.1573 C.ar    1  UNL1        0.0609
     12 CL         -6.8323  -15.3483   27.3732 Cl      1  UNL1       -0.0821
     13 C          -7.3481  -15.1266   24.8365 C.ar    1  UNL1        0.0147
     14 C          -8.1043  -15.5738   23.6207 C.ar    1  UNL1        0.0415
     15 C          -9.1009  -16.6899   23.7258 C.ar    1  UNL1        0.1790
     16 C          -9.9449  -19.8702   24.7661 C.3     1  UNL1        0.2526
     17 O         -10.3379  -18.4750   25.1518 O.3     1  UNL1       -0.4683
     18 C         -11.4567  -18.2908   20.2493 C.3     1  UNL1        0.1039
     19 N         -11.9329  -16.8729   20.3626 N.3     1  UNL1       -0.2664
     20 C         -12.8527  -16.4777   21.4797 C.3     1  UNL1        0.0899
     21 C         -11.4892  -15.8503   19.3590 C.3     1  UNL1        0.0899
@<TRIPOS>BOND
     1    16    17    1
     2    17     9    1
     3     9    10   ar
     4    10    11   ar
     5    11    12    1
     6    11    13   ar
     7    13    14   ar
     8    14    15   ar
     9    15     8    1
    10     8     1    1
    11     1     2   ar
    12     2     3   ar
    13     3     4    1
    14     3     5   ar
    15     5     6   ar
    16     6     7   ar
    17     7    18    1
    18    18    19    1
    19    19    20    1
    20    19    21    1
    21    15     9   ar
    22     7     1   ar
@<TRIPOS>MOLECULE
*****
 21 22 0 0 0
SMALL
GASTEIGER

@<TRIPOS>ATOM
      1 C          -6.6655  -17.6673   22.6781 C.ar    1  UNL1        0.1454
      2 C          -7.3353  -18.6818   21.7992 C.ar    1  UNL1        0.0519
      3 C          -8.6727  -18.3804   21.1905 C.ar    1  UNL1        0.0624
      4 C          -9.3424  -19.3948   20.3117 C.3     1  UNL1        0.0522
      5 N          -9.3403  -17.0646   21.4607 N.ar    1  UNL1       -0.2482
      6 C          -8.6706  -16.0502   22.3396 C.ar    1  UNL1        0.0985
      7 C          -7.3332  -16.3516   22.9483 C.ar    1  UNL1        0.0475
      8 O          -5.3281  -17.9687   23.2868 O.3     1  UNL1       -0.4506
      9 C          -3.5692  -18.8145   21.5718 C.ar    1  UNL1        0.1738
     10 C          -2.3163  -18.5902   20.7782 C.ar    1  UNL1        0.0514
     11 C          -1.5693  -17.2957   20.9059 C.ar    1  UNL1        0.0609
     12 CL         -0.3163  -17.0714   20.1122 Cl      1  UNL1       -0.0821
     13 C          -2.0752  -16.2256   21.8272 C.ar    1  UNL1        0.0147
     14 C          -3.3281  -16.4499   22.6208 C.ar    1  UNL1        0.0415
     15 C          -4.0751  -17.7444   22.4931 C.ar    1  UNL1        0.1790
     16 C          -4.6639  -20.6435   20.0864 C.3     1  UNL1        0.2526
     17 O          -4.3162  -20.1090   21.4441 O.3     1  UNL1       -0.4683
     18 C          -6.6634  -15.3372   23.8271 C.3     1  UNL1        0.1039
     19 N          -6.7019  -15.4947   25.3183 N.3     1  UNL1       -0.2664
     20 C          -8.0195  -15.5968   26.0280 C.3     1  UNL1        0.0899
     21 C          -5.4228  -15.5501   26.0999 C.3     1  UNL1        0.0899
@<TRIPOS>BOND
     1    16    17    1
     2    17     9    1
     3     9    10   ar
     4    10    11   ar
     5    11    12    1
     6    11    13   ar
     7    13    14   ar
     8    14    15   ar
     9    15     8    1
    10     8     1    1
    11     1     2   ar
    12     2     3   ar
    13     3     4    1
    14     3     5   ar
    15     5     6   ar
    16     6     7   ar
    17     7    18    1
    18    18    19    1
    19    19    20    1
    20    19    21    1
    21    15     9   ar
    22     7     1   ar
@<TRIPOS>MOLECULE
*****
 21 22 0 0 0
SMALL
GASTEIGER

@<TRIPOS>ATOM
      1 C         -10.6844  -18.1537   23.1378 C.ar    1  UNL1        0.1454
      2 C         -11.8171  -18.3078   24.1090 C.ar    1  UNL1        0.0519
      3 C         -13.2320  -18.1228   23.6466 C.ar    1  UNL1        0.0624
      4 C         -14.3646  -18.2769   24.6179 C.3     1  UNL1        0.0522
      5 N         -13.5142  -17.7835   22.2130 N.ar    1  UNL1       -0.2482
      6 C         -12.3816  -17.6293   21.2418 C.ar    1  UNL1        0.0985
      7 C         -10.9666  -17.8144   21.7042 C.ar    1  UNL1        0.0475
      8 O          -9.2695  -18.3387   23.6002 O.3     1  UNL1       -0.4506
      9 C          -7.7527  -16.3234   24.2231 C.ar    1  UNL1        0.1738
     10 C          -7.1752  -15.4031   25.2571 C.ar    1  UNL1        0.0514
     11 C          -7.5368  -15.5776   26.7024 C.ar    1  UNL1        0.0609
     12 CL         -6.9592  -14.6572   27.7365 Cl      1  UNL1       -0.0821
     13 C          -8.4760  -16.6725   27.1136 C.ar    1  UNL1        0.0147
     14 C          -9.0536  -17.5929   26.0795 C.ar    1  UNL1        0.0415
     15 C          -8.6919  -17.4183   24.6343 C.ar    1  UNL1        0.1790
     16 C          -7.9976  -15.0309   21.9827 C.3     1  UNL1        0.2526
     17 O          -7.3911  -16.1489   22.7778 O.3     1  UNL1       -0.4683
     18 C          -9.8340  -17.6602   20.7329 C.3     1  UNL1        0.1039
     19 N          -9.1333  -18.8743   20.1990 N.3     1  UNL1       -0.2664
     20 C          -9.8675  -19.8336   19.3098 C.3     1  UNL1        0.0899
     21 C          -7.6985  -19.1290   20.5543 C.3     1  UNL1        0.0899
@<TRIPOS>BOND
     1    16    17    1
     2    17     9    1
     3     9    10   ar
     4    10    11   ar
     5    11    12    1
     6    11    13   ar
     7    13    14   ar
     8    14    15   ar
     9    15     8    1
    10     8     1    1
    11     1     2   ar
    12     2     3   ar
    13     3     4    1
    14     3     5   ar
    15     5     6   ar
    16     6     7   ar
    17     7    18    1
    18    18    19    1
    19    19    20    1
    20    19    21    1
    21    15     9   ar
    22     7     1   ar
