@<TRIPOS>MOLECULE
*****
 34 38 0 0 0
SMALL
GASTEIGER

@<TRIPOS>ATOM
      1 N          -3.7149  -18.7712   19.3946 N.3     1  UNL1       -0.2726
      2 C          -3.0545  -20.1131   19.5099 C.3     1  UNL1        0.0721
      3 C          -4.0905  -21.1030   19.9534 C.3     1  UNL1        0.0190
      4 C          -5.3912  -20.3729   20.1122 C.3     1  UNL1        0.0202
      5 C          -6.1903  -21.5676   20.5413 C.3     1  UNL1        0.0062
      6 C          -6.8507  -20.2257   20.4260 C.3     1  UNL1        0.0259
      7 C          -5.1590  -18.9318   19.7669 C.3     1  UNL1        0.0724
      8 C          -8.0745  -19.3661   20.5406 C.ar    1  UNL1        0.0050
      9 C          -9.2138  -19.5516   19.5827 C.ar    1  UNL1       -0.0021
     10 C         -10.4376  -18.6919   19.6973 C.ar    1  UNL1        0.0037
     11 C         -10.5222  -17.6467   20.7698 C.ar    1  UNL1        0.0736
     12 C          -9.3829  -17.4612   21.7278 C.ar    1  UNL1        0.0332
     13 C          -8.1590  -18.3209   21.6132 C.ar    1  UNL1        0.1361
     14 F          -7.0198  -18.1353   22.5710 F       1  UNL1       -0.2045
     15 C         -11.7460  -16.7870   20.8844 C.3     1  UNL1        0.4186
     16 F         -12.9699  -15.9273   20.9991 F       1  UNL1       -0.1659
     17 F         -12.6090  -18.0138   20.8715 F       1  UNL1       -0.1659
     18 F         -10.8830  -15.5602   20.8974 F       1  UNL1       -0.1659
     19 C          -3.0481  -17.4931   18.9799 C.3     1  UNL1        0.0730
     20 C          -1.5847  -17.2918   19.2404 C.3     1  UNL1        0.0294
     21 C          -1.1160  -16.8714   20.6019 C.3     1  UNL1        0.0666
     22 S          -1.8703  -17.3081   21.8227 S.3     1  UNL1       -0.0756
     23 C          -4.0375  -18.1621   24.1081 C.3     1  UNL1        0.1340
     24 N          -3.9303  -16.8167   23.4536 N.ar    1  UNL1       -0.2884
     25 C          -2.9341  -16.4242   22.4031 C.ar    1  UNL1        0.1932
     26 N          -3.1885  -14.9925   22.0348 N.ar    1  UNL1       -0.1221
     27 N          -4.3420  -14.5002   22.8578 N.ar    1  UNL1       -0.1282
     28 C          -4.8004  -15.6276   23.7346 C.ar    1  UNL1        0.1683
     29 C          -5.9306  -15.5751   24.7196 C.ar    1  UNL1        0.0551
     30 C          -5.6443  -15.6018   26.1917 C.ar    1  UNL1        0.0062
     31 C          -6.7744  -15.5493   27.1767 C.ar    1  UNL1        0.0208
     32 C          -8.1909  -15.4701   26.6893 C.ar    1  UNL1        0.0989
     33 N          -8.4772  -15.4434   25.2171 N.ar    1  UNL1       -0.2422
     34 C          -7.3470  -15.4959   24.2322 C.ar    1  UNL1        0.1019
@<TRIPOS>BOND
     1    23    24    1
     2    24    25   ar
     3    25    22    1
     4    22    21    1
     5    21    20    1
     6    20    19    1
     7    19     1    1
     8     1     2    1
     9     2     3    1
    10     4     3    1
    11     4     5    1
    12     5     6    1
    13     6     8    1
    14     8     9   ar
    15     9    10   ar
    16    10    11   ar
    17    11    15    1
    18    15    16    1
    19    15    17    1
    20    15    18    1
    21    11    12   ar
    22    12    13   ar
    23    13    14    1
    24     4     7    1
    25    25    26   ar
    26    26    27   ar
    27    27    28   ar
    28    28    29    1
    29    29    30   ar
    30    30    31   ar
    31    31    32   ar
    32    32    33   ar
    33    33    34   ar
    34    28    24   ar
    35    34    29   ar
    36     7     1    1
    37     6     4    1
    38    13     8   ar
@<TRIPOS>MOLECULE
*****
 34 38 0 0 0
SMALL
GASTEIGER

@<TRIPOS>ATOM
      1 N          -2.8111  -17.7150   21.6456 N.3     1  UNL1       -0.2726
      2 C          -1.6624  -18.5507   21.1639 C.3     1  UNL1        0.0721
      3 C          -2.2249  -19.7497   20.4596 C.3     1  UNL1        0.0190
      4 C          -3.7212  -19.6550   20.5061 C.3     1  UNL1        0.0202
      5 C          -3.9822  -20.9295   19.7594 C.3     1  UNL1        0.0062
      6 C          -5.1309  -20.0938   20.2412 C.3     1  UNL1        0.0259
      7 C          -4.0835  -18.3975   21.2391 C.3     1  UNL1        0.0724
      8 C          -6.6080  -19.8646   20.3665 C.ar    1  UNL1        0.0050
      9 C          -7.4254  -19.5576   19.1468 C.ar    1  UNL1       -0.0021
     10 C          -8.9025  -19.3285   19.2720 C.ar    1  UNL1        0.0037
     11 C          -9.5621  -19.4063   20.6170 C.ar    1  UNL1        0.0736
     12 C          -8.7447  -19.7133   21.8366 C.ar    1  UNL1        0.0332
     13 C          -7.2676  -19.9425   21.7114 C.ar    1  UNL1        0.1361
     14 F          -6.4502  -20.2494   22.9310 F       1  UNL1       -0.2045
     15 C         -11.0392  -19.1771   20.7422 C.3     1  UNL1        0.4186
     16 F         -12.5163  -18.9479   20.8674 F       1  UNL1       -0.1659
     17 F         -11.1360  -20.3256   21.7022 F       1  UNL1       -0.1659
     18 F         -10.9424  -18.0286   19.7822 F       1  UNL1       -0.1659
     19 C          -2.7059  -16.4235   22.4013 C.3     1  UNL1        0.0730
     20 C          -3.9474  -15.6653   22.7670 C.3     1  UNL1        0.0294
     21 C          -4.6561  -15.9631   24.0551 C.3     1  UNL1        0.0666
     22 S          -5.9431  -15.2654   24.3817 S.3     1  UNL1       -0.0756
     23 C          -8.6504  -16.4302   25.7830 C.3     1  UNL1        0.1340
     24 N          -8.4512  -16.1875   24.3162 N.ar    1  UNL1       -0.2884
     25 C          -7.2068  -15.6521   23.6721 C.ar    1  UNL1        0.1932
     26 N          -7.4479  -15.5713   22.1938 N.ar    1  UNL1       -0.1221
     27 N          -8.8413  -16.0568   21.9242 N.ar    1  UNL1       -0.1282
     28 C          -9.4615  -16.4376   23.2359 C.ar    1  UNL1        0.1683
     29 C         -10.8483  -16.9743   23.4328 C.ar    1  UNL1        0.0551
     30 C         -12.0139  -16.3014   22.7706 C.ar    1  UNL1        0.0062
     31 C         -13.4007  -16.8381   22.9675 C.ar    1  UNL1        0.0208
     32 C         -13.6218  -18.0477   23.8266 C.ar    1  UNL1        0.0989
     33 N         -12.4562  -18.7206   24.4888 N.ar    1  UNL1       -0.2422
     34 C         -11.0694  -18.1839   24.2918 C.ar    1  UNL1        0.1019
@<TRIPOS>BOND
     1    23    24    1
     2    24    25   ar
     3    25    22    1
     4    22    21    1
     5    21    20    1
     6    20    19    1
     7    19     1    1
     8     1     2    1
     9     2     3    1
    10     4     3    1
    11     4     5    1
    12     5     6    1
    13     6     8    1
    14     8     9   ar
    15     9    10   ar
    16    10    11   ar
    17    11    15    1
    18    15    16    1
    19    15    17    1
    20    15    18    1
    21    11    12   ar
    22    12    13   ar
    23    13    14    1
    24     4     7    1
    25    25    26   ar
    26    26    27   ar
    27    27    28   ar
    28    28    29    1
    29    29    30   ar
    30    30    31   ar
    31    31    32   ar
    32    32    33   ar
    33    33    34   ar
    34    28    24   ar
    35    34    29   ar
    36     7     1    1
    37     6     4    1
    38    13     8   ar
@<TRIPOS>MOLECULE
*****
 34 38 0 0 0
SMALL
GASTEIGER

@<TRIPOS>ATOM
      1 N          -8.6274  -15.9589   23.6376 N.3     1  UNL1       -0.2726
      2 C          -8.9959  -15.4891   25.0136 C.3     1  UNL1        0.0721
      3 C          -7.7398  -15.4156   25.8302 C.3     1  UNL1        0.0190
      4 C          -6.5949  -15.8400   24.9588 C.3     1  UNL1        0.0202
      5 C          -5.5317  -15.6703   26.0032 C.3     1  UNL1        0.0062
      6 C          -5.1632  -16.1402   24.6272 C.3     1  UNL1        0.0259
      7 C          -7.1435  -16.1758   23.6037 C.3     1  UNL1        0.0724
      8 C          -4.1238  -16.5847   23.6412 C.ar    1  UNL1        0.0050
      9 C          -3.6323  -18.0018   23.6573 C.ar    1  UNL1       -0.0021
     10 C          -2.5929  -18.4464   22.6714 C.ar    1  UNL1        0.0037
     11 C          -2.0451  -17.4738   21.6694 C.ar    1  UNL1        0.0736
     12 C          -2.5366  -16.0567   21.6533 C.ar    1  UNL1        0.0332
     13 C          -3.5760  -15.6122   22.6392 C.ar    1  UNL1        0.1361
     14 F          -4.0675  -14.1952   22.6232 F       1  UNL1       -0.2045
     15 C          -1.0057  -17.9184   20.6835 C.3     1  UNL1        0.4186
     16 F           0.0337  -18.3629   19.6975 F       1  UNL1       -0.1659
     17 F          -1.3611  -19.3502   20.9545 F       1  UNL1       -0.1659
     18 F          -0.6504  -16.4865   20.4125 F       1  UNL1       -0.1659
     19 C          -9.5761  -16.1742   22.4959 C.3     1  UNL1        0.0730
     20 C         -11.0400  -16.3635   22.7627 C.3     1  UNL1        0.0294
     21 C         -11.5482  -17.6873   23.2518 C.3     1  UNL1        0.0666
     22 S         -11.5317  -18.8797   22.3418 S.3     1  UNL1       -0.0756
     23 C          -8.4467  -19.7404   22.9672 C.3     1  UNL1        0.1340
     24 N          -9.0188  -19.4301   21.6158 N.ar    1  UNL1       -0.2884
     25 C         -10.4368  -19.0344   21.3283 C.ar    1  UNL1        0.1932
     26 N         -10.5677  -18.8207   19.8494 N.ar    1  UNL1       -0.1221
     27 N          -9.2306  -19.0843   19.2228 N.ar    1  UNL1       -0.1282
     28 C          -8.2732  -19.4609   20.3145 C.ar    1  UNL1        0.1683
     29 C          -6.8247  -19.8074   20.1362 C.ar    1  UNL1        0.0551
     30 C          -5.8242  -18.7263   19.8534 C.ar    1  UNL1        0.0062
     31 C          -4.3757  -19.0728   19.6751 C.ar    1  UNL1        0.0208
     32 C          -3.9278  -20.5007   19.7795 C.ar    1  UNL1        0.0989
     33 N          -4.9284  -21.5818   20.0623 N.ar    1  UNL1       -0.2422
     34 C          -6.3769  -21.2352   20.2406 C.ar    1  UNL1        0.1019
@<TRIPOS>BOND
     1    23    24    1
     2    24    25   ar
     3    25    22    1
     4    22    21    1
     5    21    20    1
     6    20    19    1
     7    19     1    1
     8     1     2    1
     9     2     3    1
    10     4     3    1
    11     4     5    1
    12     5     6    1
    13     6     8    1
    14     8     9   ar
    15     9    10   ar
    16    10    11   ar
    17    11    15    1
    18    15    16    1
    19    15    17    1
    20    15    18    1
    21    11    12   ar
    22    12    13   ar
    23    13    14    1
    24     4     7    1
    25    25    26   ar
    26    26    27   ar
    27    27    28   ar
    28    28    29    1
    29    29    30   ar
    30    30    31   ar
    31    31    32   ar
    32    32    33   ar
    33    33    34   ar
    34    28    24   ar
    35    34    29   ar
    36     7     1    1
    37     6     4    1
    38    13     8   ar
@<TRIPOS>MOLECULE
*****
 34 38 0 0 0
SMALL
GASTEIGER

@<TRIPOS>ATOM
      1 N          -3.2457  -19.3818   20.6252 N.3     1  UNL1       -0.2726
      2 C          -1.9858  -18.9251   19.9513 C.3     1  UNL1        0.0721
      3 C          -1.5953  -17.6041   20.5450 C.3     1  UNL1        0.0190
      4 C          -2.6139  -17.2444   21.5858 C.3     1  UNL1        0.0202
      5 C          -1.9828  -15.9416   21.9790 C.3     1  UNL1        0.0062
      6 C          -3.2427  -16.3983   22.6529 C.3     1  UNL1        0.0259
      7 C          -3.6339  -18.3431   21.6353 C.3     1  UNL1        0.0724
      8 C          -4.3331  -16.1736   23.6581 C.ar    1  UNL1        0.0050
      9 C          -5.4304  -15.1929   23.3676 C.ar    1  UNL1       -0.0021
     10 C          -6.5209  -14.9682   24.3728 C.ar    1  UNL1        0.0037
     11 C          -6.5140  -15.7240   25.6684 C.ar    1  UNL1        0.0736
     12 C          -5.4167  -16.7047   25.9588 C.ar    1  UNL1        0.0332
     13 C          -4.3263  -16.9294   24.9537 C.ar    1  UNL1        0.1361
     14 F          -3.2291  -17.9100   25.2441 F       1  UNL1       -0.2045
     15 C          -7.6045  -15.4993   26.6736 C.3     1  UNL1        0.4186
     16 F          -8.6949  -15.2745   27.6788 F       1  UNL1       -0.1659
     17 F          -8.5721  -15.2212   25.5617 F       1  UNL1       -0.1659
     18 F          -6.6368  -15.7773   27.7855 F       1  UNL1       -0.1659
     19 C          -3.9873  -20.6539   20.3392 C.3     1  UNL1        0.0730
     20 C          -5.3586  -20.8669   20.9085 C.3     1  UNL1        0.0294
     21 C          -6.5703  -20.6088   20.0627 C.3     1  UNL1        0.0666
     22 S          -7.1396  -19.2242   19.9707 S.3     1  UNL1       -0.0756
     23 C         -10.3158  -19.7575   20.4972 C.3     1  UNL1        0.1340
     24 N          -9.4106  -18.9151   21.3463 N.ar    1  UNL1       -0.2884
     25 C          -7.9507  -18.6699   21.1042 C.ar    1  UNL1        0.1932
     26 N          -7.4442  -17.7732   22.1948 N.ar    1  UNL1       -0.1221
     27 N          -8.5910  -17.4642   23.1109 N.ar    1  UNL1       -0.1282
     28 C          -9.8064  -18.1698   22.5865 C.ar    1  UNL1        0.1683
     29 C         -11.1769  -18.1362   23.1954 C.ar    1  UNL1        0.0551
     30 C         -12.2822  -17.3856   22.5137 C.ar    1  UNL1        0.0062
     31 C         -13.6527  -17.3519   23.1225 C.ar    1  UNL1        0.0208
     32 C         -13.9177  -18.0691   24.4132 C.ar    1  UNL1        0.0989
     33 N         -12.8124  -18.8197   25.0948 N.ar    1  UNL1       -0.2422
     34 C         -11.4419  -18.8533   24.4859 C.ar    1  UNL1        0.1019
@<TRIPOS>BOND
     1    23    24    1
     2    24    25   ar
     3    25    22    1
     4    22    21    1
     5    21    20    1
     6    20    19    1
     7    19     1    1
     8     1     2    1
     9     2     3    1
    10     4     3    1
    11     4     5    1
    12     5     6    1
    13     6     8    1
    14     8     9   ar
    15     9    10   ar
    16    10    11   ar
    17    11    15    1
    18    15    16    1
    19    15    17    1
    20    15    18    1
    21    11    12   ar
    22    12    13   ar
    23    13    14    1
    24     4     7    1
    25    25    26   ar
    26    26    27   ar
    27    27    28   ar
    28    28    29    1
    29    29    30   ar
    30    30    31   ar
    31    31    32   ar
    32    32    33   ar
    33    33    34   ar
    34    28    24   ar
    35    34    29   ar
    36     7     1    1
    37     6     4    1
    38    13     8   ar
@<TRIPOS>MOLECULE
*****
 34 38 0 0 0
SMALL
GASTEIGER

@<TRIPOS>ATOM
      1 N          -5.0376  -16.2120   24.0182 N.3     1  UNL1       -0.2726
      2 C          -4.4636  -15.6666   25.2922 C.3     1  UNL1        0.0721
      3 C          -5.5942  -15.4473   26.2534 C.3     1  UNL1        0.0190
      4 C          -6.8668  -15.8571   25.5734 C.3     1  UNL1        0.0202
      5 C          -7.7708  -15.5382   26.7271 C.3     1  UNL1        0.0062
      6 C          -8.3448  -16.0836   25.4531 C.3     1  UNL1        0.0259
      7 C          -6.5229  -16.3297   24.1920 C.3     1  UNL1        0.0724
      8 C          -9.5294  -16.5291   24.6481 C.ar    1  UNL1        0.0050
      9 C         -10.0745  -15.6469   23.5644 C.ar    1  UNL1       -0.0021
     10 C         -11.2591  -16.0925   22.7594 C.ar    1  UNL1        0.0037
     11 C         -11.8987  -17.4203   23.0382 C.ar    1  UNL1        0.0736
     12 C         -11.3537  -18.3026   24.1219 C.ar    1  UNL1        0.0332
     13 C         -10.1690  -17.8570   24.9269 C.ar    1  UNL1        0.1361
     14 F          -9.6240  -18.7392   26.0106 F       1  UNL1       -0.2045
     15 C         -13.0834  -17.8659   22.2332 C.3     1  UNL1        0.4186
     16 F         -14.2681  -18.3115   21.4281 F       1  UNL1       -0.1659
     17 F         -13.7533  -18.3477   23.4858 F       1  UNL1       -0.1659
     18 F         -12.4134  -17.3841   20.9806 F       1  UNL1       -0.1659
     19 C          -4.2625  -16.5758   22.7866 C.3     1  UNL1        0.0730
     20 C          -2.7844  -16.8159   22.8744 C.3     1  UNL1        0.0294
     21 C          -2.2523  -18.2182   22.8966 C.3     1  UNL1        0.0666
     22 S          -2.4743  -19.1233   21.7212 S.3     1  UNL1       -0.0756
     23 C          -5.4904  -20.0612   22.5418 C.3     1  UNL1        0.1340
     24 N          -5.0918  -19.4006   21.2554 N.ar    1  UNL1       -0.2884
     25 C          -3.7055  -18.9695   20.8783 C.ar    1  UNL1        0.1932
     26 N          -3.7664  -18.3575   19.5101 N.ar    1  UNL1       -0.1221
     27 N          -5.1904  -18.4104   19.0417 N.ar    1  UNL1       -0.1282
     28 C          -6.0096  -19.0551   20.1203 C.ar    1  UNL1        0.1683
     29 C          -7.4871  -19.3095   20.0723 C.ar    1  UNL1        0.0551
     30 C          -8.1229  -19.8002   18.8054 C.ar    1  UNL1        0.0062
     31 C          -9.6004  -20.0547   18.7574 C.ar    1  UNL1        0.0208
     32 C         -10.4420  -19.8184   19.9764 C.ar    1  UNL1        0.0989
     33 N          -9.8063  -19.3277   21.2433 N.ar    1  UNL1       -0.2422
     34 C          -8.3287  -19.0733   21.2912 C.ar    1  UNL1        0.1019
@<TRIPOS>BOND
     1    23    24    1
     2    24    25   ar
     3    25    22    1
     4    22    21    1
     5    21    20    1
     6    20    19    1
     7    19     1    1
     8     1     2    1
     9     2     3    1
    10     4     3    1
    11     4     5    1
    12     5     6    1
    13     6     8    1
    14     8     9   ar
    15     9    10   ar
    16    10    11   ar
    17    11    15    1
    18    15    16    1
    19    15    17    1
    20    15    18    1
    21    11    12   ar
    22    12    13   ar
    23    13    14    1
    24     4     7    1
    25    25    26   ar
    26    26    27   ar
    27    27    28   ar
    28    28    29    1
    29    29    30   ar
    30    30    31   ar
    31    31    32   ar
    32    32    33   ar
    33    33    34   ar
    34    28    24   ar
    35    34    29   ar
    36     7     1    1
    37     6     4    1
    38    13     8   ar
@<TRIPOS>MOLECULE
*****
 34 38 0 0 0
SMALL
GASTEIGER

@<TRIPOS>ATOM
      1 N         -10.8322   -3.3368   16.5712 N.3     1  UNL1       -0.2726
      2 C          -9.3643   -3.5834   16.7565 C.3     1  UNL1        0.0721
      3 C          -9.1967   -4.9381   17.3782 C.3     1  UNL1        0.0190
      4 C         -10.5610   -5.5288   17.5772 C.3     1  UNL1        0.0202
      5 C         -10.0875   -6.8163   18.1839 C.3     1  UNL1        0.0062
      6 C         -11.5554   -6.5698   17.9987 C.3     1  UNL1        0.0259
      7 C         -11.5719   -4.5392   17.0785 C.3     1  UNL1        0.0724
      8 C         -12.9771   -7.0284   18.1350 C.ar    1  UNL1        0.0050
      9 C         -13.8173   -6.5377   19.2766 C.ar    1  UNL1       -0.0021
     10 C         -15.2389   -6.9963   19.4130 C.ar    1  UNL1        0.0037
     11 C         -15.8203   -7.9456   18.4077 C.ar    1  UNL1        0.0736
     12 C         -14.9801   -8.4364   17.2660 C.ar    1  UNL1        0.0332
     13 C         -13.5585   -7.9778   17.1297 C.ar    1  UNL1        0.1361
     14 F         -12.7184   -8.4685   15.9882 F       1  UNL1       -0.2045
     15 C         -17.2419   -8.4043   18.5440 C.3     1  UNL1        0.4186
     16 F         -18.6637   -8.8629   18.6804 F       1  UNL1       -0.1659
     17 F         -17.2204   -8.8927   17.1259 F       1  UNL1       -0.1659
     18 F         -17.2635   -7.9158   19.9621 F       1  UNL1       -0.1659
     19 C         -11.4518   -2.1043   15.9821 C.3     1  UNL1        0.0730
     20 C         -11.1916   -0.7639   16.6031 C.3     1  UNL1        0.0294
     21 C         -12.3352    0.1614   16.8969 C.3     1  UNL1        0.0666
     22 S         -13.0119    0.1161   18.2347 S.3     1  UNL1       -0.0756
     23 C         -16.0695   -0.7286   17.4681 C.3     1  UNL1        0.1340
     24 N         -15.1243   -1.5195   18.3233 N.ar    1  UNL1       -0.2884
     25 C         -13.7190   -1.1312   18.6757 C.ar    1  UNL1        0.1932
     26 N         -13.1447   -2.2092   19.5464 N.ar    1  UNL1       -0.1221
     27 N         -14.1951   -3.2637   19.7322 N.ar    1  UNL1       -0.1282
     28 C         -15.4187   -2.8375   18.9763 C.ar    1  UNL1        0.1683
     29 C         -16.7098   -3.5960   18.8887 C.ar    1  UNL1        0.0551
     30 C         -17.0258   -4.3998   17.6623 C.ar    1  UNL1        0.0062
     31 C         -18.3169   -5.1583   17.5748 C.ar    1  UNL1        0.0208
     32 C         -19.2920   -5.1131   18.7138 C.ar    1  UNL1        0.0989
     33 N         -18.9760   -4.3093   19.9402 N.ar    1  UNL1       -0.2422
     34 C         -17.6848   -3.5508   20.0276 C.ar    1  UNL1        0.1019
@<TRIPOS>BOND
     1    23    24    1
     2    24    25   ar
     3    25    22    1
     4    22    21    1
     5    21    20    1
     6    20    19    1
     7    19     1    1
     8     1     2    1
     9     2     3    1
    10     4     3    1
    11     4     5    1
    12     5     6    1
    13     6     8    1
    14     8     9   ar
    15     9    10   ar
    16    10    11   ar
    17    11    15    1
    18    15    16    1
    19    15    17    1
    20    15    18    1
    21    11    12   ar
    22    12    13   ar
    23    13    14    1
    24     4     7    1
    25    25    26   ar
    26    26    27   ar
    27    27    28   ar
    28    28    29    1
    29    29    30   ar
    30    30    31   ar
    31    31    32   ar
    32    32    33   ar
    33    33    34   ar
    34    28    24   ar
    35    34    29   ar
    36     7     1    1
    37     6     4    1
    38    13     8   ar
@<TRIPOS>MOLECULE
*****
 34 38 0 0 0
SMALL
GASTEIGER

@<TRIPOS>ATOM
      1 N           0.5114    2.1289   22.6805 N.3     1  UNL1       -0.2726
      2 C           0.6533    2.6472   24.0810 C.3     1  UNL1        0.0721
      3 C           1.6430    1.7782   24.7987 C.3     1  UNL1        0.0190
      4 C           2.1128    0.7228   23.8419 C.3     1  UNL1        0.0202
      5 C           3.0450    0.0447   24.8017 C.3     1  UNL1        0.0062
      6 C           2.9031   -0.4736   23.4013 C.3     1  UNL1        0.0259
      7 C           1.4134    0.9396   22.5328 C.3     1  UNL1        0.0724
      8 C           3.2774   -1.4635   22.3383 C.ar    1  UNL1        0.0050
      9 C           2.6976   -1.3397   20.9604 C.ar    1  UNL1       -0.0021
     10 C           3.0719   -2.3296   19.8975 C.ar    1  UNL1        0.0037
     11 C           4.0261   -3.4433   20.2124 C.ar    1  UNL1        0.0736
     12 C           4.6060   -3.5671   21.5903 C.ar    1  UNL1        0.0332
     13 C           4.2316   -2.5772   22.6532 C.ar    1  UNL1        0.1361
     14 F           4.8114   -2.7010   24.0310 F       1  UNL1       -0.2045
     15 C           4.4005   -4.4332   19.1494 C.3     1  UNL1        0.4186
     16 F           4.7748   -5.4232   18.0864 F       1  UNL1       -0.1659
     17 F           3.5017   -5.4534   19.7830 F       1  UNL1       -0.1659
     18 F           5.2992   -3.4130   18.5158 F       1  UNL1       -0.1659
     19 C          -0.3766    2.6998   21.6149 C.3     1  UNL1        0.0730
     20 C          -0.1335    4.0875   21.1000 C.3     1  UNL1        0.0294
     21 C          -0.2929    4.3838   19.6382 C.3     1  UNL1        0.0666
     22 S           0.8843    4.2654   18.7162 S.3     1  UNL1       -0.0756
     23 C           4.1067    3.7662   18.8455 C.3     1  UNL1        0.1340
     24 N           3.0605    2.7167   18.6126 N.ar    1  UNL1       -0.2884
     25 C           1.5794    2.9462   18.5531 C.ar    1  UNL1        0.1932
     26 N           0.9153    1.6248   18.3020 N.ar    1  UNL1       -0.1221
     27 N           1.9860    0.5787   18.2063 N.ar    1  UNL1       -0.1282
     28 C           3.3119    1.2535   18.3982 C.ar    1  UNL1        0.1683
     29 C           4.6535    0.5828   18.3791 C.ar    1  UNL1        0.0551
     30 C           5.4589    0.4806   19.6404 C.ar    1  UNL1        0.0062
     31 C           6.8005   -0.1900   19.6213 C.ar    1  UNL1        0.0208
     32 C           7.3366   -0.7585   18.3408 C.ar    1  UNL1        0.0989
     33 N           6.5312   -0.6563   17.0795 N.ar    1  UNL1       -0.2422
     34 C           5.1896    0.0144   17.0987 C.ar    1  UNL1        0.1019
@<TRIPOS>BOND
     1    23    24    1
     2    24    25   ar
     3    25    22    1
     4    22    21    1
     5    21    20    1
     6    20    19    1
     7    19     1    1
     8     1     2    1
     9     2     3    1
    10     4     3    1
    11     4     5    1
    12     5     6    1
    13     6     8    1
    14     8     9   ar
    15     9    10   ar
    16    10    11   ar
    17    11    15    1
    18    15    16    1
    19    15    17    1
    20    15    18    1
    21    11    12   ar
    22    12    13   ar
    23    13    14    1
    24     4     7    1
    25    25    26   ar
    26    26    27   ar
    27    27    28   ar
    28    28    29    1
    29    29    30   ar
    30    30    31   ar
    31    31    32   ar
    32    32    33   ar
    33    33    34   ar
    34    28    24   ar
    35    34    29   ar
    36     7     1    1
    37     6     4    1
    38    13     8   ar
@<TRIPOS>MOLECULE
*****
 34 38 0 0 0
SMALL
GASTEIGER

@<TRIPOS>ATOM
      1 N         -10.8422   -3.9091   16.7425 N.3     1  UNL1       -0.2726
      2 C          -9.4080   -4.2253   17.0477 C.3     1  UNL1        0.0721
      3 C          -9.3713   -5.5082   17.8243 C.3     1  UNL1        0.0190
      4 C         -10.7828   -5.9848   17.9990 C.3     1  UNL1        0.0202
      5 C         -10.4359   -7.2220   18.7728 C.3     1  UNL1        0.0062
      6 C         -11.8701   -6.9058   18.4676 C.3     1  UNL1        0.0259
      7 C         -11.6919   -4.9965   17.3304 C.3     1  UNL1        0.0724
      8 C         -13.3258   -7.2550   18.5619 C.ar    1  UNL1        0.0050
      9 C         -13.8847   -8.3714   17.7304 C.ar    1  UNL1       -0.0021
     10 C         -15.3404   -8.7206   17.8248 C.ar    1  UNL1        0.0037
     11 C         -16.2372   -7.9534   18.7505 C.ar    1  UNL1        0.0736
     12 C         -15.6783   -6.8370   19.5820 C.ar    1  UNL1        0.0332
     13 C         -14.2226   -6.4878   19.4877 C.ar    1  UNL1        0.1361
     14 F         -13.6638   -5.3715   20.3191 F       1  UNL1       -0.2045
     15 C         -17.6930   -8.3026   18.8449 C.3     1  UNL1        0.4186
     16 F         -19.1488   -8.6518   18.9392 F       1  UNL1       -0.1659
     17 F         -17.7987   -8.2657   17.3491 F       1  UNL1       -0.1659
     18 F         -17.5872   -8.3395   20.3406 F       1  UNL1       -0.1659
     19 C         -11.3394   -2.7151   15.9828 C.3     1  UNL1        0.0730
     20 C         -10.7171   -1.3693   16.2099 C.3     1  UNL1        0.0294
     21 C         -11.1743   -0.5151   17.3551 C.3     1  UNL1        0.0666
     22 S         -12.6000   -0.0544   17.4247 S.3     1  UNL1       -0.0756
     23 C         -15.7685    0.6554   17.7516 C.3     1  UNL1        0.1340
     24 N         -15.0348   -0.4476   18.4553 N.ar    1  UNL1       -0.2884
     25 C         -13.5785   -0.7739   18.3050 C.ar    1  UNL1        0.1932
     26 N         -13.2723   -1.9459   19.1897 N.ar    1  UNL1       -0.1221
     27 N         -14.5394   -2.3440   19.8867 N.ar    1  UNL1       -0.1282
     28 C         -15.6288   -1.4180   19.4329 C.ar    1  UNL1        0.1683
     29 C         -17.0606   -1.4558   19.8784 C.ar    1  UNL1        0.0551
     30 C         -17.8320   -2.7408   19.8157 C.ar    1  UNL1        0.0062
     31 C         -19.2638   -2.7785   20.2612 C.ar    1  UNL1        0.0208
     32 C         -19.9242   -1.5313   20.7694 C.ar    1  UNL1        0.0989
     33 N         -19.1529   -0.2463   20.8322 N.ar    1  UNL1       -0.2422
     34 C         -17.7210   -0.2086   20.3866 C.ar    1  UNL1        0.1019
@<TRIPOS>BOND
     1    23    24    1
     2    24    25   ar
     3    25    22    1
     4    22    21    1
     5    21    20    1
     6    20    19    1
     7    19     1    1
     8     1     2    1
     9     2     3    1
    10     4     3    1
    11     4     5    1
    12     5     6    1
    13     6     8    1
    14     8     9   ar
    15     9    10   ar
    16    10    11   ar
    17    11    15    1
    18    15    16    1
    19    15    17    1
    20    15    18    1
    21    11    12   ar
    22    12    13   ar
    23    13    14    1
    24     4     7    1
    25    25    26   ar
    26    26    27   ar
    27    27    28   ar
    28    28    29    1
    29    29    30   ar
    30    30    31   ar
    31    31    32   ar
    32    32    33   ar
    33    33    34   ar
    34    28    24   ar
    35    34    29   ar
    36     7     1    1
    37     6     4    1
    38    13     8   ar
@<TRIPOS>MOLECULE
*****
 34 38 0 0 0
SMALL
GASTEIGER

@<TRIPOS>ATOM
      1 N           7.9693   -5.4041   23.4627 N.3     1  UNL1       -0.2726
      2 C           8.5377   -6.6407   22.8320 C.3     1  UNL1        0.0721
      3 C           8.8347   -7.6240   23.9251 C.3     1  UNL1        0.0190
      4 C           8.4500   -6.9951   25.2314 C.3     1  UNL1        0.0202
      5 C           8.8447   -8.1608   26.0890 C.3     1  UNL1        0.0062
      6 C           8.2763   -6.9242   26.7197 C.3     1  UNL1        0.0259
      7 C           7.9151   -5.6231   24.9457 C.3     1  UNL1        0.0724
      8 C           7.8480   -6.1693   27.9431 C.ar    1  UNL1        0.0050
      9 C           6.8869   -5.0243   27.8196 C.ar    1  UNL1       -0.0021
     10 C           6.4585   -4.2694   29.0429 C.ar    1  UNL1        0.0037
     11 C           6.9912   -4.6596   30.3898 C.ar    1  UNL1        0.0736
     12 C           7.9523   -5.8046   30.5132 C.ar    1  UNL1        0.0332
     13 C           8.3806   -6.5595   29.2899 C.ar    1  UNL1        0.1361
     14 F           9.3416   -7.7045   29.4134 F       1  UNL1       -0.2045
     15 C           6.5628   -3.9047   31.6131 C.3     1  UNL1        0.4186
     16 F           6.1344   -3.1497   32.8365 F       1  UNL1       -0.1659
     17 F           6.5491   -5.1833   32.3973 F       1  UNL1       -0.1659
     18 F           6.5766   -2.6261   30.8290 F       1  UNL1       -0.1659
     19 C           7.5320   -4.1659   22.7378 C.3     1  UNL1        0.0730
     20 C           7.4625   -4.1591   21.2394 C.3     1  UNL1        0.0294
     21 C           8.5938   -3.5856   20.4387 C.3     1  UNL1        0.0666
     22 S           8.4021   -2.3066   19.6789 S.3     1  UNL1       -0.0756
     23 C           5.8707   -0.8210   21.1053 C.3     1  UNL1        0.1340
     24 N           5.9163   -1.3237   19.6928 N.ar    1  UNL1       -0.2884
     25 C           7.0799   -2.0066   19.0371 C.ar    1  UNL1        0.1932
     26 N           6.6891   -2.3368   17.6271 N.ar    1  UNL1       -0.1221
     27 N           5.2841   -1.8580   17.4112 N.ar    1  UNL1       -0.1282
     28 C           4.8064   -1.2319   18.6879 C.ar    1  UNL1        0.1683
     29 C           3.4560   -0.6212   18.9191 C.ar    1  UNL1        0.0551
     30 C           2.5077   -1.2467   19.8986 C.ar    1  UNL1        0.0062
     31 C           1.1573   -0.6360   20.1298 C.ar    1  UNL1        0.0208
     32 C           0.7552    0.6003   19.3814 C.ar    1  UNL1        0.0989
     33 N           1.7035    1.2258   18.4019 N.ar    1  UNL1       -0.2422
     34 C           3.0539    0.6151   18.1707 C.ar    1  UNL1        0.1019
@<TRIPOS>BOND
     1    23    24    1
     2    24    25   ar
     3    25    22    1
     4    22    21    1
     5    21    20    1
     6    20    19    1
     7    19     1    1
     8     1     2    1
     9     2     3    1
    10     4     3    1
    11     4     5    1
    12     5     6    1
    13     6     8    1
    14     8     9   ar
    15     9    10   ar
    16    10    11   ar
    17    11    15    1
    18    15    16    1
    19    15    17    1
    20    15    18    1
    21    11    12   ar
    22    12    13   ar
    23    13    14    1
    24     4     7    1
    25    25    26   ar
    26    26    27   ar
    27    27    28   ar
    28    28    29    1
    29    29    30   ar
    30    30    31   ar
    31    31    32   ar
    32    32    33   ar
    33    33    34   ar
    34    28    24   ar
    35    34    29   ar
    36     7     1    1
    37     6     4    1
    38    13     8   ar
