@<TRIPOS>MOLECULE
*****
 41 46 0 0 0
SMALL
GASTEIGER

@<TRIPOS>ATOM
      1 C           3.0537    1.5110   32.1291 C.3     1  UNL1        0.0319
      2 C           2.0766    0.8734   31.1865 C.3     1  UNL1        0.0205
      3 C           0.9063    1.6596   30.6744 C.3     1  UNL1        0.0546
      4 C           0.7131    3.0835   31.1049 C.3     1  UNL1        0.0162
      5 C           1.6902    3.7211   32.0476 C.3     1  UNL1        0.0108
      6 C           2.8605    2.9348   32.5597 C.3     1  UNL1        0.0808
      7 C           5.6825    1.6235   30.6881 C.3     1  UNL1        0.0307
      8 C           5.5384    0.7810   31.9207 C.ar    1  UNL1       -0.0258
      9 C           6.7086   -0.0053   32.4328 C.ar    1  UNL1       -0.0046
     10 C           6.5645   -0.8477   33.6655 C.ar    1  UNL1       -0.0003
     11 C           5.2501   -0.9040   34.3860 C.ar    1  UNL1       -0.0003
     12 C           4.0799   -0.1177   33.8739 C.ar    1  UNL1       -0.0046
     13 C           4.2240    0.7248   32.6413 C.ar    1  UNL1       -0.0259
     14 C           3.8377    3.5724   33.5024 C.2     1  UNL1        0.2255
     15 O           4.9690    4.3978   32.9649 O.2     1  UNL1       -0.2749
     16 N           3.6835    3.3846   34.9827 N.am    1  UNL1       -0.2781
     17 C           2.7138    2.6546   35.8638 C.3     1  UNL1        0.1031
     18 C           3.4655    3.1191   37.0760 C.3     1  UNL1        0.0742
     19 C           4.4353    3.8491   36.1947 C.3     1  UNL1        0.1031
     20 C           4.2172    3.5836   38.2880 C.ar    1  UNL1       -0.0158
     21 C           5.2811    2.7139   38.8896 C.ar    1  UNL1       -0.0039
     22 C           6.0328    3.1784   40.1017 C.ar    1  UNL1       -0.0003
     23 C           5.7208    4.5125   40.7121 C.ar    1  UNL1       -0.0000
     24 C           4.6569    5.3822   40.1105 C.ar    1  UNL1       -0.0003
     25 C           3.9051    4.9178   38.8984 C.ar    1  UNL1       -0.0039
     26 C           2.4957    2.3890   37.9572 C.ar    1  UNL1       -0.0158
     27 C           2.7575    0.9626   38.3403 C.ar    1  UNL1       -0.0039
     28 C           1.7877    0.2326   39.2215 C.ar    1  UNL1       -0.0003
     29 C           0.5560    0.9291   39.7195 C.ar    1  UNL1       -0.0000
     30 C           0.2942    2.3555   39.3364 C.ar    1  UNL1       -0.0003
     31 C           1.2641    3.0855   38.4552 C.ar    1  UNL1       -0.0039
     32 N          -0.0709    1.0220   29.7317 N.3     1  UNL1       -0.2948
     33 H          -0.8479    1.6745   29.6273 H       1  UNL1        0.1235
     34 C           0.3626    0.6398   28.3475 C.3     1  UNL1        0.0956
     35 C          -0.1480    1.4060   27.1633 C.ar    1  UNL1       -0.0063
     36 C          -1.2707    2.3864   27.3317 C.ar    1  UNL1       -0.0021
     37 C          -1.7813    3.1526   26.1475 C.ar    1  UNL1        0.0111
     38 C          -1.1691    2.9383   24.7949 C.ar    1  UNL1        0.0577
     39 CL         -1.6797    3.7045   23.6107 Cl      1  UNL1       -0.0822
     40 C          -0.0465    1.9579   24.6266 C.ar    1  UNL1        0.0111
     41 C           0.4641    1.1917   25.8108 C.ar    1  UNL1       -0.0021
@<TRIPOS>BOND
     1     7     8    1
     2     8     9   ar
     3     9    10   ar
     4    10    11   ar
     5    11    12   ar
     6    12    13   ar
     7     1    13    1
     8     1     2    1
     9     2     3    1
    10     3    32    1
    11    32    34    1
    12    34    35    1
    13    35    36   ar
    14    36    37   ar
    15    37    38   ar
    16    38    39    1
    17    38    40   ar
    18    40    41   ar
    19     3     4    1
    20     4     5    1
    21     5     6    1
    22     6    14    1
    23    14    15    2
    24    14    16   am
    25    16    17    1
    26    17    18    1
    27    18    20    1
    28    20    21   ar
    29    21    22   ar
    30    22    23   ar
    31    23    24   ar
    32    24    25   ar
    33    18    26    1
    34    26    27   ar
    35    27    28   ar
    36    28    29   ar
    37    29    30   ar
    38    30    31   ar
    39    18    19    1
    40    13     8   ar
    41     6     1    1
    42    19    16    1
    43    41    35   ar
    44    25    20   ar
    45    31    26   ar
    46    32    33    1
@<TRIPOS>MOLECULE
*****
 41 46 0 0 0
SMALL
GASTEIGER

@<TRIPOS>ATOM
      1 C           4.2354    0.8391   32.0570 C.3     1  UNL1        0.0319
      2 C           3.4353   -0.0101   31.1143 C.3     1  UNL1        0.0205
      3 C           2.0493    0.4075   30.7211 C.3     1  UNL1        0.0546
      4 C           1.4634    1.6744   31.2705 C.3     1  UNL1        0.0162
      5 C           2.2635    2.5236   32.2132 C.3     1  UNL1        0.0108
      6 C           3.6495    2.1059   32.6064 C.3     1  UNL1        0.0808
      7 C           4.6667   -0.7643   34.5556 C.3     1  UNL1        0.0307
      8 C           5.8370   -0.3803   33.6995 C.ar    1  UNL1       -0.0258
      9 C           7.2230   -0.7979   34.0927 C.ar    1  UNL1       -0.0046
     10 C           8.3933   -0.4138   33.2366 C.ar    1  UNL1       -0.0003
     11 C           8.1777    0.3879   31.9874 C.ar    1  UNL1       -0.0003
     12 C           6.7917    0.8055   31.5942 C.ar    1  UNL1       -0.0046
     13 C           5.6214    0.4214   32.4503 C.ar    1  UNL1       -0.0259
     14 C           4.4496    2.9551   33.5491 C.2     1  UNL1        0.2255
     15 O           5.5861    3.7852   33.0302 O.2     1  UNL1       -0.2749
     16 N           4.1132    2.9742   35.0108 N.am    1  UNL1       -0.2781
     17 C           3.0849    2.3022   35.8714 C.3     1  UNL1        0.1031
     18 C           3.6376    3.0012   37.0780 C.3     1  UNL1        0.0742
     19 C           4.6660    3.6733   36.2174 C.3     1  UNL1        0.1031
     20 C           4.1903    3.7003   38.2844 C.ar    1  UNL1       -0.0158
     21 C           3.8269    5.1303   38.5549 C.ar    1  UNL1       -0.0039
     22 C           4.3797    5.8293   39.7614 C.ar    1  UNL1       -0.0003
     23 C           5.2959    5.0985   40.6975 C.ar    1  UNL1       -0.0000
     24 C           5.6594    3.6686   40.4271 C.ar    1  UNL1       -0.0003
     25 C           5.1066    2.9694   39.2206 C.ar    1  UNL1       -0.0039
     26 C           2.6091    2.3291   37.9385 C.ar    1  UNL1       -0.0158
     27 C           2.8148    0.9119   38.3849 C.ar    1  UNL1       -0.0039
     28 C           1.7863    0.2399   39.2454 C.ar    1  UNL1       -0.0003
     29 C           0.5521    0.9851   39.6596 C.ar    1  UNL1       -0.0000
     30 C           0.3464    2.4023   39.2132 C.ar    1  UNL1       -0.0003
     31 C           1.3750    3.0743   38.3527 C.ar    1  UNL1       -0.0039
     32 N           1.2492   -0.4417   29.7784 N.3     1  UNL1       -0.2948
     33 H           0.9344   -1.2541   30.3089 H       1  UNL1        0.1235
     34 C           0.0390    0.1276   29.0993 C.3     1  UNL1        0.0956
     35 C           0.1895    0.9018   27.8234 C.ar    1  UNL1       -0.0063
     36 C           1.5092    0.9237   27.1107 C.ar    1  UNL1       -0.0021
     37 C           1.6598    1.6980   25.8348 C.ar    1  UNL1        0.0111
     38 C           0.4906    2.4504   25.2717 C.ar    1  UNL1        0.0577
     39 CL          0.6411    3.2247   23.9959 Cl      1  UNL1       -0.0822
     40 C          -0.8290    2.4285   25.9845 C.ar    1  UNL1        0.0111
     41 C          -0.9796    1.6542   27.2603 C.ar    1  UNL1       -0.0021
@<TRIPOS>BOND
     1     7     8    1
     2     8     9   ar
     3     9    10   ar
     4    10    11   ar
     5    11    12   ar
     6    12    13   ar
     7     1    13    1
     8     1     2    1
     9     2     3    1
    10     3    32    1
    11    32    34    1
    12    34    35    1
    13    35    36   ar
    14    36    37   ar
    15    37    38   ar
    16    38    39    1
    17    38    40   ar
    18    40    41   ar
    19     3     4    1
    20     4     5    1
    21     5     6    1
    22     6    14    1
    23    14    15    2
    24    14    16   am
    25    16    17    1
    26    17    18    1
    27    18    20    1
    28    20    21   ar
    29    21    22   ar
    30    22    23   ar
    31    23    24   ar
    32    24    25   ar
    33    18    26    1
    34    26    27   ar
    35    27    28   ar
    36    28    29   ar
    37    29    30   ar
    38    30    31   ar
    39    18    19    1
    40    13     8   ar
    41     6     1    1
    42    19    16    1
    43    41    35   ar
    44    25    20   ar
    45    31    26   ar
    46    32    33    1
@<TRIPOS>MOLECULE
*****
 41 46 0 0 0
SMALL
GASTEIGER

@<TRIPOS>ATOM
      1 C           5.9948   -1.5212   18.9621 C.3     1  UNL1        0.0319
      2 C           6.8989   -2.4571   19.7083 C.3     1  UNL1        0.0205
      3 C           6.4052   -3.8150   20.1109 C.3     1  UNL1        0.0546
      4 C           5.0073   -4.2371   19.7674 C.3     1  UNL1        0.0162
      5 C           4.1032   -3.3012   19.0212 C.3     1  UNL1        0.0108
      6 C           4.5970   -1.9432   18.6186 C.3     1  UNL1        0.0808
      7 C           6.1376    0.6851   20.9899 C.3     1  UNL1        0.0307
      8 C           6.5600    0.9399   19.5734 C.ar    1  UNL1       -0.0258
      9 C           7.0538    2.2979   19.1707 C.ar    1  UNL1       -0.0046
     10 C           7.4761    2.5527   17.7541 C.ar    1  UNL1       -0.0003
     11 C           7.4048    1.4496   16.7402 C.ar    1  UNL1       -0.0003
     12 C           6.9110    0.0917   17.1429 C.ar    1  UNL1       -0.0046
     13 C           6.4886   -0.1631   18.5595 C.ar    1  UNL1       -0.0259
     14 C           3.6930   -1.0073   17.8724 C.2     1  UNL1        0.2255
     15 O           3.5749   -1.1087   16.3806 O.2     1  UNL1       -0.2749
     16 N           2.9069    0.0300   18.6183 N.am    1  UNL1       -0.2781
     17 C           2.7684    0.4228   20.0592 C.3     1  UNL1        0.1031
     18 C           1.7953    1.4970   19.6729 C.3     1  UNL1        0.0742
     19 C           1.9339    1.1042   18.2319 C.3     1  UNL1        0.1031
     20 C           0.8223    2.5711   19.2865 C.ar    1  UNL1       -0.0158
     21 C           1.2655    3.7047   18.4099 C.ar    1  UNL1       -0.0039
     22 C           0.2924    4.7789   18.0235 C.ar    1  UNL1       -0.0003
     23 C          -1.1239    4.7195   18.5138 C.ar    1  UNL1       -0.0000
     24 C          -1.5672    3.5860   19.3905 C.ar    1  UNL1       -0.0003
     25 C          -0.5941    2.5118   19.7769 C.ar    1  UNL1       -0.0039
     26 C           1.6568    1.8898   21.1139 C.ar    1  UNL1       -0.0158
     27 C           0.7848    1.0839   22.0305 C.ar    1  UNL1       -0.0039
     28 C           0.6463    1.4767   23.4715 C.ar    1  UNL1       -0.0003
     29 C           1.3799    2.6754   23.9959 C.ar    1  UNL1       -0.0000
     30 C           2.2520    3.4813   23.0793 C.ar    1  UNL1       -0.0003
     31 C           2.3904    3.0885   21.6383 C.ar    1  UNL1       -0.0039
     32 N           7.3092   -4.7509   20.8570 N.3     1  UNL1       -0.2948
     33 H           8.1070   -4.9367   20.2493 H       1  UNL1        0.1235
     34 C           7.8653   -4.3518   22.1917 C.3     1  UNL1        0.0956
     35 C           7.9828   -5.3673   23.2894 C.ar    1  UNL1       -0.0063
     36 C           8.7858   -6.6158   23.0733 C.ar    1  UNL1       -0.0021
     37 C           8.9032   -7.6313   24.1710 C.ar    1  UNL1        0.0111
     38 C           8.2177   -7.3983   25.4848 C.ar    1  UNL1        0.0577
     39 CL          8.3352   -8.4139   26.5824 Cl      1  UNL1       -0.0822
     40 C           7.4148   -6.1499   25.7008 C.ar    1  UNL1        0.0111
     41 C           7.2973   -5.1344   24.6031 C.ar    1  UNL1       -0.0021
@<TRIPOS>BOND
     1     7     8    1
     2     8     9   ar
     3     9    10   ar
     4    10    11   ar
     5    11    12   ar
     6    12    13   ar
     7     1    13    1
     8     1     2    1
     9     2     3    1
    10     3    32    1
    11    32    34    1
    12    34    35    1
    13    35    36   ar
    14    36    37   ar
    15    37    38   ar
    16    38    39    1
    17    38    40   ar
    18    40    41   ar
    19     3     4    1
    20     4     5    1
    21     5     6    1
    22     6    14    1
    23    14    15    2
    24    14    16   am
    25    16    17    1
    26    17    18    1
    27    18    20    1
    28    20    21   ar
    29    21    22   ar
    30    22    23   ar
    31    23    24   ar
    32    24    25   ar
    33    18    26    1
    34    26    27   ar
    35    27    28   ar
    36    28    29   ar
    37    29    30   ar
    38    30    31   ar
    39    18    19    1
    40    13     8   ar
    41     6     1    1
    42    19    16    1
    43    41    35   ar
    44    25    20   ar
    45    31    26   ar
    46    32    33    1
@<TRIPOS>MOLECULE
*****
 41 46 0 0 0
SMALL
GASTEIGER

@<TRIPOS>ATOM
      1 C           1.2312    2.2192   27.6428 C.3     1  UNL1        0.0319
      2 C           1.8204    1.3088   28.6790 C.3     1  UNL1        0.0205
      3 C           1.0139    0.1648   29.2182 C.3     1  UNL1        0.0546
      4 C          -0.3820   -0.0688   28.7211 C.3     1  UNL1        0.0162
      5 C          -0.9713    0.8417   27.6848 C.3     1  UNL1        0.0108
      6 C          -0.1646    1.9857   27.1457 C.3     1  UNL1        0.0808
      7 C           0.9721    4.9458   28.8670 C.3     1  UNL1        0.0307
      8 C           1.9083    4.7265   27.7157 C.ar    1  UNL1       -0.0258
      9 C           2.7149    5.8704   27.1765 C.ar    1  UNL1       -0.0046
     10 C           3.6510    5.6511   26.0252 C.ar    1  UNL1       -0.0003
     11 C           3.7806    4.2879   25.4131 C.ar    1  UNL1       -0.0003
     12 C           2.9740    3.1440   25.9523 C.ar    1  UNL1       -0.0046
     13 C           2.0378    3.3633   27.1036 C.ar    1  UNL1       -0.0259
     14 C          -0.7539    2.8962   26.1094 C.2     1  UNL1        0.2255
     15 O          -1.6666    4.0123   26.5234 O.2     1  UNL1       -0.2749
     16 N          -0.4304    2.6906   24.6592 N.am    1  UNL1       -0.2781
     17 C           0.4114    1.7179   23.8878 C.3     1  UNL1        0.1031
     18 C           0.0269    2.3999   22.6082 C.3     1  UNL1        0.0742
     19 C          -0.8149    3.3726   23.3797 C.3     1  UNL1        0.1031
     20 C          -0.3575    3.0818   21.3288 C.ar    1  UNL1       -0.0158
     21 C           0.6652    3.8635   20.5588 C.ar    1  UNL1       -0.0039
     22 C           0.2807    4.5455   19.2793 C.ar    1  UNL1       -0.0003
     23 C          -1.1264    4.4457   18.7698 C.ar    1  UNL1       -0.0000
     24 C          -2.1493    3.6640   19.5397 C.ar    1  UNL1       -0.0003
     25 C          -1.7648    2.9820   20.8192 C.ar    1  UNL1       -0.0039
     26 C           0.8688    1.4271   21.8369 C.ar    1  UNL1       -0.0158
     27 C           2.3612    1.4429   21.9872 C.ar    1  UNL1       -0.0039
     28 C           3.2030    0.4701   21.2158 C.ar    1  UNL1       -0.0003
     29 C           2.5524   -0.5184   20.2941 C.ar    1  UNL1       -0.0000
     30 C           1.0601   -0.5342   20.1438 C.ar    1  UNL1       -0.0003
     31 C           0.2183    0.4386   20.9152 C.ar    1  UNL1       -0.0039
     32 N           1.6032   -0.7457   30.2544 N.3     1  UNL1       -0.2948
     33 H           1.3873   -1.6997   29.9652 H       1  UNL1        0.1235
     34 C           3.0749   -0.7026   30.5410 C.3     1  UNL1        0.0956
     35 C           3.5607   -0.6046   31.9567 C.ar    1  UNL1       -0.0063
     36 C           4.2064   -1.7896   32.6118 C.ar    1  UNL1       -0.0021
     37 C           4.6923   -1.6915   34.0276 C.ar    1  UNL1        0.0111
     38 C           4.5325   -0.4085   34.7882 C.ar    1  UNL1        0.0577
     39 CL          5.0184   -0.3105   36.2039 Cl      1  UNL1       -0.0822
     40 C           3.8869    0.7763   34.1331 C.ar    1  UNL1        0.0111
     41 C           3.4010    0.6783   32.7174 C.ar    1  UNL1       -0.0021
@<TRIPOS>BOND
     1     7     8    1
     2     8     9   ar
     3     9    10   ar
     4    10    11   ar
     5    11    12   ar
     6    12    13   ar
     7     1    13    1
     8     1     2    1
     9     2     3    1
    10     3    32    1
    11    32    34    1
    12    34    35    1
    13    35    36   ar
    14    36    37   ar
    15    37    38   ar
    16    38    39    1
    17    38    40   ar
    18    40    41   ar
    19     3     4    1
    20     4     5    1
    21     5     6    1
    22     6    14    1
    23    14    15    2
    24    14    16   am
    25    16    17    1
    26    17    18    1
    27    18    20    1
    28    20    21   ar
    29    21    22   ar
    30    22    23   ar
    31    23    24   ar
    32    24    25   ar
    33    18    26    1
    34    26    27   ar
    35    27    28   ar
    36    28    29   ar
    37    29    30   ar
    38    30    31   ar
    39    18    19    1
    40    13     8   ar
    41     6     1    1
    42    19    16    1
    43    41    35   ar
    44    25    20   ar
    45    31    26   ar
    46    32    33    1
@<TRIPOS>MOLECULE
*****
 41 46 0 0 0
SMALL
GASTEIGER

@<TRIPOS>ATOM
      1 C           2.7342    0.8525   26.9081 C.3     1  UNL1        0.0319
      2 C           2.8935    0.4836   25.4629 C.3     1  UNL1        0.0205
      3 C           4.2470    0.5413   24.8189 C.3     1  UNL1        0.0546
      4 C           5.4412    0.9680   25.6200 C.3     1  UNL1        0.0162
      5 C           5.2819    1.3369   27.0652 C.3     1  UNL1        0.0108
      6 C           3.9284    1.2791   27.7092 C.3     1  UNL1        0.0808
      7 C           0.7205    3.0084   26.3632 C.3     1  UNL1        0.0307
      8 C           0.3739    1.8726   27.2796 C.ar    1  UNL1       -0.0258
      9 C          -0.9796    1.8148   27.9236 C.ar    1  UNL1       -0.0046
     10 C          -1.3262    0.6790   28.8401 C.ar    1  UNL1       -0.0003
     11 C          -0.3194   -0.3989   29.1125 C.ar    1  UNL1       -0.0003
     12 C           1.0341   -0.3411   28.4685 C.ar    1  UNL1       -0.0046
     13 C           1.3807    0.7947   27.5521 C.ar    1  UNL1       -0.0259
     14 C           3.7691    1.6481   29.1544 C.2     1  UNL1        0.2255
     15 O           2.9161    2.8202   29.5396 O.2     1  UNL1       -0.2749
     16 N           4.4629    0.8448   30.2144 N.am    1  UNL1       -0.2781
     17 C           5.3667   -0.3522   30.2166 C.3     1  UNL1        0.1031
     18 C           5.4440   -0.2911   31.7134 C.3     1  UNL1        0.0742
     19 C           4.5402    0.9060   31.7111 C.3     1  UNL1        0.1031
     20 C           5.5213   -0.2300   33.2101 C.ar    1  UNL1       -0.0158
     21 C           6.7316    0.3554   33.8754 C.ar    1  UNL1       -0.0039
     22 C           6.8088    0.4166   35.3721 C.ar    1  UNL1       -0.0003
     23 C           5.6759   -0.1076   36.2036 C.ar    1  UNL1       -0.0000
     24 C           4.4656   -0.6930   35.5384 C.ar    1  UNL1       -0.0003
     25 C           4.3882   -0.7542   34.0417 C.ar    1  UNL1       -0.0039
     26 C           6.3479   -1.4882   31.7156 C.ar    1  UNL1       -0.0158
     27 C           5.7967   -2.8436   32.0458 C.ar    1  UNL1       -0.0039
     28 C           6.7006   -4.0407   32.0480 C.ar    1  UNL1       -0.0003
     29 C           8.1557   -3.8822   31.7199 C.ar    1  UNL1       -0.0000
     30 C           8.7069   -2.5268   31.3897 C.ar    1  UNL1       -0.0003
     31 C           7.8030   -1.3298   31.3875 C.ar    1  UNL1       -0.0039
     32 N           4.4063    0.1724   23.3737 N.3     1  UNL1       -0.2948
     33 H           5.2156   -0.4455   23.3150 H       1  UNL1        0.1235
     34 C           3.2864   -0.5105   22.6461 C.3     1  UNL1        0.0956
     35 C           3.5815   -1.6463   21.7118 C.ar    1  UNL1       -0.0063
     36 C           3.1269   -1.5802   20.2838 C.ar    1  UNL1       -0.0021
     37 C           3.4220   -2.7160   19.3495 C.ar    1  UNL1        0.0111
     38 C           4.1717   -3.9179   19.8432 C.ar    1  UNL1        0.0577
     39 CL          4.4668   -5.0537   18.9089 Cl      1  UNL1       -0.0822
     40 C           4.6262   -3.9839   21.2712 C.ar    1  UNL1        0.0111
     41 C           4.3311   -2.8481   22.2055 C.ar    1  UNL1       -0.0021
@<TRIPOS>BOND
     1     7     8    1
     2     8     9   ar
     3     9    10   ar
     4    10    11   ar
     5    11    12   ar
     6    12    13   ar
     7     1    13    1
     8     1     2    1
     9     2     3    1
    10     3    32    1
    11    32    34    1
    12    34    35    1
    13    35    36   ar
    14    36    37   ar
    15    37    38   ar
    16    38    39    1
    17    38    40   ar
    18    40    41   ar
    19     3     4    1
    20     4     5    1
    21     5     6    1
    22     6    14    1
    23    14    15    2
    24    14    16   am
    25    16    17    1
    26    17    18    1
    27    18    20    1
    28    20    21   ar
    29    21    22   ar
    30    22    23   ar
    31    23    24   ar
    32    24    25   ar
    33    18    26    1
    34    26    27   ar
    35    27    28   ar
    36    28    29   ar
    37    29    30   ar
    38    30    31   ar
    39    18    19    1
    40    13     8   ar
    41     6     1    1
    42    19    16    1
    43    41    35   ar
    44    25    20   ar
    45    31    26   ar
    46    32    33    1
@<TRIPOS>MOLECULE
*****
 41 46 0 0 0
SMALL
GASTEIGER

@<TRIPOS>ATOM
      1 C           1.6145    1.0739   27.1147 C.3     1  UNL1        0.0319
      2 C           2.3481    0.7058   25.8591 C.3     1  UNL1        0.0205
      3 C           3.3371   -0.4219   25.8716 C.3     1  UNL1        0.0546
      4 C           3.5926   -1.1815   27.1396 C.3     1  UNL1        0.0162
      5 C           2.8590   -0.8134   28.3951 C.3     1  UNL1        0.0108
      6 C           1.8699    0.3143   28.3826 C.3     1  UNL1        0.0808
      7 C           2.5073    3.8596   27.7800 C.3     1  UNL1        0.0307
      8 C           1.0718    3.5944   27.4348 C.ar    1  UNL1       -0.0258
      9 C           0.0828    4.7220   27.4223 C.ar    1  UNL1       -0.0046
     10 C          -1.3527    4.4568   27.0772 C.ar    1  UNL1       -0.0003
     11 C          -1.7991    3.0640   26.7445 C.ar    1  UNL1       -0.0003
     12 C          -0.8100    1.9364   26.7570 C.ar    1  UNL1       -0.0046
     13 C           0.6254    2.2016   27.1022 C.ar    1  UNL1       -0.0259
     14 C           1.1363    0.6824   29.6382 C.2     1  UNL1        0.2255
     15 O          -0.2874    0.2506   29.8289 O.2     1  UNL1       -0.2749
     16 N           1.8265    1.4824   30.7030 N.am    1  UNL1       -0.2781
     17 C           3.1952    2.0740   30.8654 C.3     1  UNL1        0.1031
     18 C           2.8025    2.6136   32.2088 C.3     1  UNL1        0.0742
     19 C           1.4338    2.0220   32.0463 C.3     1  UNL1        0.1031
     20 C           2.4098    3.1532   33.5521 C.ar    1  UNL1       -0.0158
     21 C           2.8134    2.4253   34.8000 C.ar    1  UNL1       -0.0039
     22 C           2.4207    2.9649   36.1434 C.ar    1  UNL1       -0.0003
     23 C           1.6244    4.2324   36.2388 C.ar    1  UNL1       -0.0000
     24 C           1.2208    4.9604   34.9910 C.ar    1  UNL1       -0.0003
     25 C           1.6135    4.4208   33.6476 C.ar    1  UNL1       -0.0039
     26 C           4.1714    3.2053   32.3712 C.ar    1  UNL1       -0.0158
     27 C           4.4035    4.6546   32.0621 C.ar    1  UNL1       -0.0039
     28 C           5.7723    5.2462   32.2245 C.ar    1  UNL1       -0.0003
     29 C           6.9089    4.3884   32.6961 C.ar    1  UNL1       -0.0000
     30 C           6.6767    2.9391   33.0053 C.ar    1  UNL1       -0.0003
     31 C           5.3079    2.3475   32.8428 C.ar    1  UNL1       -0.0039
     32 N           4.0707   -0.7900   24.6161 N.3     1  UNL1       -0.2948
     33 H           4.3075   -1.7791   24.6927 H       1  UNL1        0.1235
     34 C           3.4125   -0.6045   23.2811 C.3     1  UNL1        0.0956
     35 C           3.6161   -1.6207   22.1967 C.ar    1  UNL1       -0.0063
     36 C           4.3566   -2.8920   22.4897 C.ar    1  UNL1       -0.0021
     37 C           4.5603   -3.9082   21.4054 C.ar    1  UNL1        0.0111
     38 C           4.0234   -3.6533   20.0281 C.ar    1  UNL1        0.0577
     39 CL          4.2271   -4.6695   18.9438 Cl      1  UNL1       -0.0822
     40 C           3.2830   -2.3821   19.7352 C.ar    1  UNL1        0.0111
     41 C           3.0794   -1.3658   20.8195 C.ar    1  UNL1       -0.0021
@<TRIPOS>BOND
     1     7     8    1
     2     8     9   ar
     3     9    10   ar
     4    10    11   ar
     5    11    12   ar
     6    12    13   ar
     7     1    13    1
     8     1     2    1
     9     2     3    1
    10     3    32    1
    11    32    34    1
    12    34    35    1
    13    35    36   ar
    14    36    37   ar
    15    37    38   ar
    16    38    39    1
    17    38    40   ar
    18    40    41   ar
    19     3     4    1
    20     4     5    1
    21     5     6    1
    22     6    14    1
    23    14    15    2
    24    14    16   am
    25    16    17    1
    26    17    18    1
    27    18    20    1
    28    20    21   ar
    29    21    22   ar
    30    22    23   ar
    31    23    24   ar
    32    24    25   ar
    33    18    26    1
    34    26    27   ar
    35    27    28   ar
    36    28    29   ar
    37    29    30   ar
    38    30    31   ar
    39    18    19    1
    40    13     8   ar
    41     6     1    1
    42    19    16    1
    43    41    35   ar
    44    25    20   ar
    45    31    26   ar
    46    32    33    1
@<TRIPOS>MOLECULE
*****
 41 46 0 0 0
SMALL
GASTEIGER

@<TRIPOS>ATOM
      1 C           4.1256   -0.9082   21.6583 C.3     1  UNL1        0.0319
      2 C           4.6674   -2.2991   21.5097 C.3     1  UNL1        0.0205
      3 C           5.6780   -2.8189   22.4886 C.3     1  UNL1        0.0546
      4 C           6.1469   -1.9478   23.6162 C.3     1  UNL1        0.0162
      5 C           5.6051   -0.5570   23.7648 C.3     1  UNL1        0.0108
      6 C           4.5944   -0.0372   22.7858 C.3     1  UNL1        0.0808
      7 C           5.0322    0.3158   19.0737 C.3     1  UNL1        0.0307
      8 C           3.5682    0.2235   19.3870 C.ar    1  UNL1       -0.0258
      9 C           2.5575    0.7432   18.4081 C.ar    1  UNL1       -0.0046
     10 C           1.0935    0.6510   18.7214 C.ar    1  UNL1       -0.0003
     11 C           0.6402    0.0390   20.0136 C.ar    1  UNL1       -0.0003
     12 C           1.6509   -0.4807   20.9925 C.ar    1  UNL1       -0.0046
     13 C           3.1149   -0.3885   20.6792 C.ar    1  UNL1       -0.0259
     14 C           4.0527    1.3536   22.9344 C.2     1  UNL1        0.2255
     15 O           4.4488    2.4211   21.9580 O.2     1  UNL1       -0.2749
     16 N           3.1147    1.6769   24.0595 N.am    1  UNL1       -0.2781
     17 C           2.5110    0.9020   25.1930 C.3     1  UNL1        0.1031
     18 C           1.7883    2.1342   25.6506 C.3     1  UNL1        0.0742
     19 C           2.3921    2.9092   24.5171 C.3     1  UNL1        0.1031
     20 C           1.0657    3.3663   26.1082 C.ar    1  UNL1       -0.0158
     21 C          -0.1521    3.8390   25.3709 C.ar    1  UNL1       -0.0039
     22 C          -0.8748    5.0712   25.8285 C.ar    1  UNL1       -0.0003
     23 C          -0.3797    5.8308   27.0233 C.ar    1  UNL1       -0.0000
     24 C           0.8381    5.3583   27.7606 C.ar    1  UNL1       -0.0003
     25 C           1.5609    4.1260   27.3031 C.ar    1  UNL1       -0.0039
     26 C           1.1846    1.3591   26.7842 C.ar    1  UNL1       -0.0158
     27 C           2.0660    0.7845   27.8533 C.ar    1  UNL1       -0.0039
     28 C           1.4623    0.0095   28.9867 C.ar    1  UNL1       -0.0003
     29 C          -0.0229   -0.1909   29.0511 C.ar    1  UNL1       -0.0000
     30 C          -0.9043    0.3837   27.9820 C.ar    1  UNL1       -0.0003
     31 C          -0.3005    1.1587   26.8485 C.ar    1  UNL1       -0.0039
     32 N           6.2198   -4.2097   22.3400 N.3     1  UNL1       -0.2948
     33 H           6.2556   -4.4064   21.3398 H       1  UNL1        0.1235
     34 C           7.5695   -4.5523   22.8973 C.3     1  UNL1        0.0956
     35 C           7.6916   -5.5636   23.9984 C.ar    1  UNL1       -0.0063
     36 C           8.4849   -6.8179   23.7801 C.ar    1  UNL1       -0.0021
     37 C           8.6070   -7.8292   24.8812 C.ar    1  UNL1        0.0111
     38 C           7.9359   -7.5863   26.2005 C.ar    1  UNL1        0.0577
     39 CL          8.0580   -8.5976   27.3016 Cl      1  UNL1       -0.0822
     40 C           7.1426   -6.3321   26.4187 C.ar    1  UNL1        0.0111
     41 C           7.0205   -5.3207   25.3177 C.ar    1  UNL1       -0.0021
@<TRIPOS>BOND
     1     7     8    1
     2     8     9   ar
     3     9    10   ar
     4    10    11   ar
     5    11    12   ar
     6    12    13   ar
     7     1    13    1
     8     1     2    1
     9     2     3    1
    10     3    32    1
    11    32    34    1
    12    34    35    1
    13    35    36   ar
    14    36    37   ar
    15    37    38   ar
    16    38    39    1
    17    38    40   ar
    18    40    41   ar
    19     3     4    1
    20     4     5    1
    21     5     6    1
    22     6    14    1
    23    14    15    2
    24    14    16   am
    25    16    17    1
    26    17    18    1
    27    18    20    1
    28    20    21   ar
    29    21    22   ar
    30    22    23   ar
    31    23    24   ar
    32    24    25   ar
    33    18    26    1
    34    26    27   ar
    35    27    28   ar
    36    28    29   ar
    37    29    30   ar
    38    30    31   ar
    39    18    19    1
    40    13     8   ar
    41     6     1    1
    42    19    16    1
    43    41    35   ar
    44    25    20   ar
    45    31    26   ar
    46    32    33    1
@<TRIPOS>MOLECULE
*****
 41 46 0 0 0
SMALL
GASTEIGER

@<TRIPOS>ATOM
      1 C           3.0718    0.5899   19.2607 C.3     1  UNL1        0.0319
      2 C           2.2313    1.7999   18.9787 C.3     1  UNL1        0.0205
      3 C           0.7961    1.8340   19.4130 C.3     1  UNL1        0.0546
      4 C           0.2011    0.6580   20.1294 C.3     1  UNL1        0.0162
      5 C           1.0415   -0.5520   20.4114 C.3     1  UNL1        0.0108
      6 C           2.4769   -0.5861   19.9770 C.3     1  UNL1        0.0808
      7 C           3.8346   -0.7922   16.7096 C.3     1  UNL1        0.0307
      8 C           4.8885   -0.1352   17.5507 C.ar    1  UNL1       -0.0258
      9 C           6.3238   -0.1692   17.1164 C.ar    1  UNL1       -0.0046
     10 C           7.3778    0.4879   17.9576 C.ar    1  UNL1       -0.0003
     11 C           6.9964    1.1789   19.2331 C.ar    1  UNL1       -0.0003
     12 C           5.5611    1.2129   19.6674 C.ar    1  UNL1       -0.0046
     13 C           4.5071    0.5559   18.8263 C.ar    1  UNL1       -0.0259
     14 C           3.3173   -1.7961   20.2590 C.2     1  UNL1        0.2255
     15 O           3.1898   -3.0157   19.3952 O.2     1  UNL1       -0.2749
     16 N           4.2853   -1.7865   21.4049 N.am    1  UNL1       -0.2781
     17 C           4.6787   -0.7878   22.4527 C.3     1  UNL1        0.1031
     18 C           5.6542   -1.7729   23.0254 C.3     1  UNL1        0.0742
     19 C           5.2608   -2.7716   21.9776 C.3     1  UNL1        0.1031
     20 C           6.6296   -2.7580   23.5981 C.ar    1  UNL1       -0.0158
     21 C           6.1637   -3.7887   24.5833 C.ar    1  UNL1       -0.0039
     22 C           7.1392   -4.7738   25.1560 C.ar    1  UNL1       -0.0003
     23 C           8.5806   -4.7283   24.7435 C.ar    1  UNL1       -0.0000
     24 C           9.0466   -3.6976   23.7583 C.ar    1  UNL1       -0.0003
     25 C           8.0711   -2.7124   23.1856 C.ar    1  UNL1       -0.0039
     26 C           6.0475   -0.7742   24.0732 C.ar    1  UNL1       -0.0158
     27 C           7.0845    0.2655   23.7667 C.ar    1  UNL1       -0.0039
     28 C           7.4778    1.2642   24.8145 C.ar    1  UNL1       -0.0003
     29 C           6.8341    1.2232   26.1688 C.ar    1  UNL1       -0.0000
     30 C           5.7972    0.1835   26.4753 C.ar    1  UNL1       -0.0003
     31 C           5.4039   -0.8152   25.4275 C.ar    1  UNL1       -0.0039
     32 N          -0.0444    3.0440   19.1310 N.3     1  UNL1       -0.2948
     33 H          -0.5645    2.8484   18.2757 H       1  UNL1        0.1235
     34 C          -1.0423    3.5172   20.1460 C.3     1  UNL1        0.0956
     35 C          -2.5038    3.5353   19.8090 C.ar    1  UNL1       -0.0063
     36 C          -2.9482    3.8709   18.4161 C.ar    1  UNL1       -0.0021
     37 C          -4.4097    3.8890   18.0791 C.ar    1  UNL1        0.0111
     38 C          -5.4269    3.5716   19.1349 C.ar    1  UNL1        0.0577
     39 CL         -6.8884    3.5898   18.7979 Cl      1  UNL1       -0.0822
     40 C          -4.9825    3.2361   20.5277 C.ar    1  UNL1        0.0111
     41 C          -3.5210    3.2179   20.8647 C.ar    1  UNL1       -0.0021
@<TRIPOS>BOND
     1     7     8    1
     2     8     9   ar
     3     9    10   ar
     4    10    11   ar
     5    11    12   ar
     6    12    13   ar
     7     1    13    1
     8     1     2    1
     9     2     3    1
    10     3    32    1
    11    32    34    1
    12    34    35    1
    13    35    36   ar
    14    36    37   ar
    15    37    38   ar
    16    38    39    1
    17    38    40   ar
    18    40    41   ar
    19     3     4    1
    20     4     5    1
    21     5     6    1
    22     6    14    1
    23    14    15    2
    24    14    16   am
    25    16    17    1
    26    17    18    1
    27    18    20    1
    28    20    21   ar
    29    21    22   ar
    30    22    23   ar
    31    23    24   ar
    32    24    25   ar
    33    18    26    1
    34    26    27   ar
    35    27    28   ar
    36    28    29   ar
    37    29    30   ar
    38    30    31   ar
    39    18    19    1
    40    13     8   ar
    41     6     1    1
    42    19    16    1
    43    41    35   ar
    44    25    20   ar
    45    31    26   ar
    46    32    33    1
@<TRIPOS>MOLECULE
*****
 41 46 0 0 0
SMALL
GASTEIGER

@<TRIPOS>ATOM
      1 C           3.5547   -0.2414   30.9885 C.3     1  UNL1        0.0319
      2 C           2.3260   -0.6425   30.2272 C.3     1  UNL1        0.0205
      3 C           1.2590    0.3712   29.9374 C.3     1  UNL1        0.0546
      4 C           1.4206    1.7860   30.4090 C.3     1  UNL1        0.0162
      5 C           2.6493    2.1871   31.1703 C.3     1  UNL1        0.0108
      6 C           3.7163    1.1733   31.4601 C.3     1  UNL1        0.0808
      7 C           5.7373   -0.7349   28.9903 C.3     1  UNL1        0.0307
      8 C           5.7130   -1.5018   30.2792 C.ar    1  UNL1       -0.0258
      9 C           6.7799   -2.5155   30.5690 C.ar    1  UNL1       -0.0046
     10 C           6.7556   -3.2825   31.8578 C.ar    1  UNL1       -0.0003
     11 C           5.6643   -3.0358   32.8569 C.ar    1  UNL1       -0.0003
     12 C           4.5974   -2.0221   32.5671 C.ar    1  UNL1       -0.0046
     13 C           4.6217   -1.2551   31.2783 C.ar    1  UNL1       -0.0259
     14 C           4.9449    1.5744   32.2214 C.2     1  UNL1        0.2255
     15 O           6.2552    1.7226   31.5065 O.2     1  UNL1       -0.2749
     16 N           4.8632    1.8272   33.6977 N.am    1  UNL1       -0.2781
     17 C           3.7690    1.7818   34.7226 C.3     1  UNL1        0.1031
     18 C           4.7478    2.1848   35.7855 C.3     1  UNL1        0.0742
     19 C           5.8420    2.2303   34.7605 C.3     1  UNL1        0.1031
     20 C           5.7265    2.5878   36.8483 C.ar    1  UNL1       -0.0158
     21 C           5.7585    4.0046   37.3401 C.ar    1  UNL1       -0.0039
     22 C           6.7373    4.4076   38.4029 C.ar    1  UNL1       -0.0003
     23 C           7.6840    3.3940   38.9739 C.ar    1  UNL1       -0.0000
     24 C           7.6520    1.9772   38.4821 C.ar    1  UNL1       -0.0003
     25 C           6.6733    1.5741   37.4193 C.ar    1  UNL1       -0.0039
     26 C           3.6534    2.1393   36.8104 C.ar    1  UNL1       -0.0158
     27 C           3.5370    0.9612   37.7315 C.ar    1  UNL1       -0.0039
     28 C           2.4427    0.9158   38.7564 C.ar    1  UNL1       -0.0003
     29 C           1.4648    2.0485   38.8602 C.ar    1  UNL1       -0.0000
     30 C           1.5813    3.2267   37.9391 C.ar    1  UNL1       -0.0003
     31 C           2.6756    3.2721   36.9142 C.ar    1  UNL1       -0.0039
     32 N           0.0304   -0.0299   29.1761 N.3     1  UNL1       -0.2948
     33 H          -0.4976   -0.6599   29.7800 H       1  UNL1        0.1235
     34 C          -0.9305    1.0176   28.6974 C.3     1  UNL1        0.0956
     35 C          -0.8171    1.5583   27.3028 C.ar    1  UNL1       -0.0063
     36 C          -1.6925    2.6953   26.8657 C.ar    1  UNL1       -0.0021
     37 C          -1.5791    3.2359   25.4711 C.ar    1  UNL1        0.0111
     38 C          -0.5903    2.6396   24.5137 C.ar    1  UNL1        0.0577
     39 CL         -0.4769    3.1803   23.1191 Cl      1  UNL1       -0.0822
     40 C           0.2851    1.5027   24.9508 C.ar    1  UNL1        0.0111
     41 C           0.1716    0.9620   26.3453 C.ar    1  UNL1       -0.0021
@<TRIPOS>BOND
     1     7     8    1
     2     8     9   ar
     3     9    10   ar
     4    10    11   ar
     5    11    12   ar
     6    12    13   ar
     7     1    13    1
     8     1     2    1
     9     2     3    1
    10     3    32    1
    11    32    34    1
    12    34    35    1
    13    35    36   ar
    14    36    37   ar
    15    37    38   ar
    16    38    39    1
    17    38    40   ar
    18    40    41   ar
    19     3     4    1
    20     4     5    1
    21     5     6    1
    22     6    14    1
    23    14    15    2
    24    14    16   am
    25    16    17    1
    26    17    18    1
    27    18    20    1
    28    20    21   ar
    29    21    22   ar
    30    22    23   ar
    31    23    24   ar
    32    24    25   ar
    33    18    26    1
    34    26    27   ar
    35    27    28   ar
    36    28    29   ar
    37    29    30   ar
    38    30    31   ar
    39    18    19    1
    40    13     8   ar
    41     6     1    1
    42    19    16    1
    43    41    35   ar
    44    25    20   ar
    45    31    26   ar
    46    32    33    1
