@<TRIPOS>MOLECULE
*****
 32 36 0 0 0
SMALL
GASTEIGER

@<TRIPOS>ATOM
      1 C           0.1239    2.0046   22.5185 C.3     1  UNL1        0.2026
      2 C           0.0356    2.2515   23.9955 C.ar    1  UNL1        0.0155
      3 C          -0.0478    1.3172   25.1660 C.ar    1  UNL1        0.0103
      4 C          -0.1274    1.8663   26.5596 C.ar    1  UNL1        0.0575
      5 CL         -0.2108    0.9320   27.7302 Cl      1  UNL1       -0.0823
      6 C          -0.1235    3.3496   26.7827 C.ar    1  UNL1        0.0111
      7 C          -0.0401    4.2838   25.6121 C.ar    1  UNL1       -0.0036
      8 C           0.0394    3.7348   24.2185 C.ar    1  UNL1       -0.0212
      9 C           0.1301    4.4046   22.8795 C.3     1  UNL1        0.0461
     10 C           0.1823    3.3354   21.8288 C.3     1  UNL1        0.1066
     11 N           0.2764    3.5578   20.3484 N.3     1  UNL1       -0.2682
     12 C           1.4835    4.0488   19.6055 C.3     1  UNL1        0.0748
     13 C           1.1331    4.1227   18.1489 C.3     1  UNL1        0.0480
     14 C          -0.2906    3.6774   17.9915 C.3     1  UNL1        0.1278
     15 O          -1.0514    3.5955   16.7013 O.3     1  UNL1       -0.3830
     16 C          -0.8201    3.3283   19.3509 C.3     1  UNL1        0.1018
     17 H          -1.9513    3.2786   16.8761 H       1  UNL1        0.2104
     18 O           0.1493    0.6626   21.8489 O.3     1  UNL1       -0.4725
     19 C           3.7077   -0.5513   19.3763 C.ar    1  UNL1        0.0672
     20 C           2.4536   -0.0773   18.7036 C.ar    1  UNL1        0.0208
     21 C           1.2675    0.3274   19.5278 C.ar    1  UNL1        0.0393
     22 C           1.3354    0.2580   21.0248 C.ar    1  UNL1        0.1494
     23 C           2.5896   -0.2161   21.6973 C.ar    1  UNL1        0.0930
     24 CL          2.6577   -0.2855   23.1942 Cl      1  UNL1       -0.0790
     25 C           3.7757   -0.6207   20.8731 C.ar    1  UNL1        0.0320
     26 C           4.6855   -3.6098   18.7942 C.3     1  UNL1        0.0742
     27 C           5.3433   -2.3617   18.2844 C.ar    1  UNL1        0.1473
     28 N           6.5660   -2.3005   17.4177 N.ar    1  UNL1       -0.1333
     29 N           6.8722   -0.8568   17.1495 N.ar    1  UNL1       -0.1333
     30 C           5.8387   -0.0258   17.8506 C.ar    1  UNL1        0.1473
     31 C           5.7634    1.4724   17.8503 C.3     1  UNL1        0.0742
     32 N           4.8938   -0.9560   18.5520 N.ar    1  UNL1       -0.2807
@<TRIPOS>BOND
     1    26    27    1
     2    27    28   ar
     3    28    29   ar
     4    29    30   ar
     5    30    31    1
     6    30    32   ar
     7    32    19    1
     8    19    20   ar
     9    20    21   ar
    10    21    22   ar
    11    22    18    1
    12     1    18    1
    13     1     2    1
    14     2     3   ar
    15     3     4   ar
    16     4     5    1
    17     4     6   ar
    18     6     7   ar
    19     7     8   ar
    20     8     9    1
    21     9    10    1
    22    10    11    1
    23    11    12    1
    24    12    13    1
    25    13    14    1
    26    14    15    1
    27    14    16    1
    28    22    23   ar
    29    23    24    1
    30    23    25   ar
    31    32    27   ar
    32    25    19   ar
    33    10     1    1
    34    16    11    1
    35     8     2   ar
    36    15    17    1
@<TRIPOS>MOLECULE
*****
 32 36 0 0 0
SMALL
GASTEIGER

@<TRIPOS>ATOM
      1 C           7.4480   -3.5959   22.8470 C.3     1  UNL1        0.2026
      2 C           7.7205   -4.8771   23.5781 C.ar    1  UNL1        0.0155
      3 C           7.3698   -5.3370   24.9621 C.ar    1  UNL1        0.0103
      4 C           7.7855   -6.7013   25.4268 C.ar    1  UNL1        0.0575
      5 CL          7.4348   -7.1613   26.8109 Cl      1  UNL1       -0.0823
      6 C           8.5518   -7.6056   24.5076 C.ar    1  UNL1        0.0111
      7 C           8.9024   -7.1456   23.1236 C.ar    1  UNL1       -0.0036
      8 C           8.4868   -5.7814   22.6589 C.ar    1  UNL1       -0.0212
      9 C           8.6879   -5.0591   21.3597 C.3     1  UNL1        0.0461
     10 C           8.0459   -3.7084   21.4760 C.3     1  UNL1        0.1066
     11 N           8.0084   -2.6552   20.4086 N.3     1  UNL1       -0.2682
     12 C           8.9030   -1.4542   20.3231 C.3     1  UNL1        0.0748
     13 C           8.5172   -0.6748   19.1010 C.3     1  UNL1        0.0480
     14 C           7.3840   -1.3940   18.4311 C.3     1  UNL1        0.1278
     15 O           6.6876   -0.9647   17.1739 O.3     1  UNL1       -0.3830
     16 C           7.0696   -2.6179   19.2393 C.3     1  UNL1        0.1018
     17 H           5.9920   -1.6043   16.9550 H       1  UNL1        0.2104
     18 O           6.7076   -2.4105   23.3915 O.3     1  UNL1       -0.4725
     19 C           3.4288   -0.5002   20.9728 C.ar    1  UNL1        0.0672
     20 C           3.3207   -1.9407   21.3769 C.ar    1  UNL1        0.0208
     21 C           4.4137   -2.5774   22.1832 C.ar    1  UNL1        0.0393
     22 C           5.6148   -1.7737   22.5853 C.ar    1  UNL1        0.1494
     23 C           5.7228   -0.3332   22.1811 C.ar    1  UNL1        0.0930
     24 CL          6.9237    0.4705   22.5831 Cl      1  UNL1       -0.0790
     25 C           4.6298    0.3035   21.3748 C.ar    1  UNL1        0.0320
     26 C           0.8049    1.0279   22.1681 C.3     1  UNL1        0.0742
     27 C           1.1298    0.8389   20.7159 C.ar    1  UNL1        0.1473
     28 N           0.3056    1.3191   19.5582 N.ar    1  UNL1       -0.1333
     29 N           1.0024    0.9135   18.2934 N.ar    1  UNL1       -0.1333
     30 C           2.2572    0.1826   18.6693 C.ar    1  UNL1        0.1473
     31 C           3.2576   -0.3999   17.7154 C.3     1  UNL1        0.0742
     32 N           2.3359    0.1365   20.1665 N.ar    1  UNL1       -0.2807
@<TRIPOS>BOND
     1    26    27    1
     2    27    28   ar
     3    28    29   ar
     4    29    30   ar
     5    30    31    1
     6    30    32   ar
     7    32    19    1
     8    19    20   ar
     9    20    21   ar
    10    21    22   ar
    11    22    18    1
    12     1    18    1
    13     1     2    1
    14     2     3   ar
    15     3     4   ar
    16     4     5    1
    17     4     6   ar
    18     6     7   ar
    19     7     8   ar
    20     8     9    1
    21     9    10    1
    22    10    11    1
    23    11    12    1
    24    12    13    1
    25    13    14    1
    26    14    15    1
    27    14    16    1
    28    22    23   ar
    29    23    24    1
    30    23    25   ar
    31    32    27   ar
    32    25    19   ar
    33    10     1    1
    34    16    11    1
    35     8     2   ar
    36    15    17    1
@<TRIPOS>MOLECULE
*****
 32 36 0 0 0
SMALL
GASTEIGER

@<TRIPOS>ATOM
      1 C           7.3894   -3.6292   22.8666 C.3     1  UNL1        0.2026
      2 C           7.6690   -4.9086   23.5979 C.ar    1  UNL1        0.0155
      3 C           7.3304   -5.3661   24.9857 C.ar    1  UNL1        0.0103
      4 C           7.7510   -6.7290   25.4496 C.ar    1  UNL1        0.0575
      5 CL          7.4124   -7.1866   26.8375 Cl      1  UNL1       -0.0823
      6 C           8.5102   -7.6346   24.5258 C.ar    1  UNL1        0.0111
      7 C           8.8489   -7.1771   23.1380 C.ar    1  UNL1       -0.0036
      8 C           8.4283   -5.8142   22.6741 C.ar    1  UNL1       -0.0212
      9 C           8.6178   -5.0943   21.3718 C.3     1  UNL1        0.0461
     10 C           7.9758   -3.7439   21.4907 C.3     1  UNL1        0.1066
     11 N           7.9284   -2.6929   20.4216 N.3     1  UNL1       -0.2682
     12 C           8.8016   -1.4757   20.3425 C.3     1  UNL1        0.0748
     13 C           8.4124   -0.7050   19.1159 C.3     1  UNL1        0.0480
     14 C           7.2988   -1.4458   18.4369 C.3     1  UNL1        0.1278
     15 O           6.6059   -1.0310   17.1729 O.3     1  UNL1       -0.3830
     16 C           6.9997   -2.6744   19.2439 C.3     1  UNL1        0.1018
     17 H           5.9242   -1.6836   16.9486 H       1  UNL1        0.2104
     18 O           6.6527   -2.4431   23.4149 O.3     1  UNL1       -0.4725
     19 C           3.3883   -0.5072   20.9971 C.ar    1  UNL1        0.0672
     20 C           3.2964   -1.9617   21.3524 C.ar    1  UNL1        0.0208
     21 C           4.3846   -2.6069   22.1583 C.ar    1  UNL1        0.0393
     22 C           5.5646   -1.7978   22.6090 C.ar    1  UNL1        0.1494
     23 C           5.6564   -0.3434   22.2536 C.ar    1  UNL1        0.0930
     24 CL          6.8363    0.4657   22.7042 Cl      1  UNL1       -0.0790
     25 C           4.5682    0.3019   21.4477 C.ar    1  UNL1        0.0320
     26 C           3.2417   -0.3634   17.7402 C.3     1  UNL1        0.0742
     27 C           2.2327    0.2042   18.6941 C.ar    1  UNL1        0.1473
     28 N           0.9793    0.9375   18.3185 N.ar    1  UNL1       -0.1333
     29 N           0.2720    1.3246   19.5834 N.ar    1  UNL1       -0.1333
     30 C           1.0883    0.8306   20.7407 C.ar    1  UNL1        0.1473
     31 C           0.7520    0.9993   22.1928 C.3     1  UNL1        0.0742
     32 N           2.3002    0.1381   20.1911 N.ar    1  UNL1       -0.2807
@<TRIPOS>BOND
     1    26    27    1
     2    27    28   ar
     3    28    29   ar
     4    29    30   ar
     5    30    31    1
     6    30    32   ar
     7    32    19    1
     8    19    20   ar
     9    20    21   ar
    10    21    22   ar
    11    22    18    1
    12     1    18    1
    13     1     2    1
    14     2     3   ar
    15     3     4   ar
    16     4     5    1
    17     4     6   ar
    18     6     7   ar
    19     7     8   ar
    20     8     9    1
    21     9    10    1
    22    10    11    1
    23    11    12    1
    24    12    13    1
    25    13    14    1
    26    14    15    1
    27    14    16    1
    28    22    23   ar
    29    23    24    1
    30    23    25   ar
    31    32    27   ar
    32    25    19   ar
    33    10     1    1
    34    16    11    1
    35     8     2   ar
    36    15    17    1
@<TRIPOS>MOLECULE
*****
 32 36 0 0 0
SMALL
GASTEIGER

@<TRIPOS>ATOM
      1 C          -0.6759    2.6256   21.3082 C.3     1  UNL1        0.2026
      2 C           0.2937    3.0806   22.3584 C.ar    1  UNL1        0.0155
      3 C           1.4391    2.3876   23.0348 C.ar    1  UNL1        0.0103
      4 C           2.2485    3.1118   24.0694 C.ar    1  UNL1        0.0575
      5 CL          3.3940    2.4187   24.7458 Cl      1  UNL1       -0.0823
      6 C           1.9123    4.5290   24.4276 C.ar    1  UNL1        0.0111
      7 C           0.7669    5.2221   23.7513 C.ar    1  UNL1       -0.0036
      8 C          -0.0425    4.4979   22.7167 C.ar    1  UNL1       -0.0212
      9 C          -1.2197    4.9187   21.8879 C.3     1  UNL1        0.0461
     10 C          -1.6112    3.7616   21.0174 C.3     1  UNL1        0.1066
     11 N          -2.7399    3.7436   20.0295 N.3     1  UNL1       -0.2682
     12 C          -2.6525    4.1339   18.5838 C.3     1  UNL1        0.0748
     13 C          -4.0127    3.9637   17.9747 C.3     1  UNL1        0.0480
     14 C          -4.9407    3.4683   19.0440 C.3     1  UNL1        0.1278
     15 O          -6.3992    3.1625   18.8733 O.3     1  UNL1       -0.3830
     16 C          -4.1540    3.3323   20.3139 C.3     1  UNL1        0.1018
     17 H          -6.7669    2.8587   19.7180 H       1  UNL1        0.2104
     18 O          -0.7049    1.2721   20.6622 O.3     1  UNL1       -0.4725
     19 C           3.0710   -0.4936   18.9669 C.ar    1  UNL1        0.0672
     20 C           2.5328   -0.9902   20.2760 C.ar    1  UNL1        0.0208
     21 C           1.2741   -0.4016   20.8411 C.ar    1  UNL1        0.0393
     22 C           0.5537    0.6836   20.0971 C.ar    1  UNL1        0.1494
     23 C           1.0920    1.1801   18.7880 C.ar    1  UNL1        0.0930
     24 CL          0.3716    2.2652   18.0440 Cl      1  UNL1       -0.0790
     25 C           2.3506    0.5915   18.2229 C.ar    1  UNL1        0.0320
     26 C           5.5334    1.1738   17.6232 C.3     1  UNL1        0.0742
     27 C           5.4615   -0.3159   17.7842 C.ar    1  UNL1        0.1473
     28 N           6.5088   -1.3006   17.3558 N.ar    1  UNL1       -0.1333
     29 N           6.0242   -2.6756   17.7087 N.ar    1  UNL1       -0.1333
     30 C           4.6775   -2.5407   18.3551 C.ar    1  UNL1        0.1473
     31 C           3.8276   -3.6665   18.8654 C.3     1  UNL1        0.0742
     32 N           4.3297   -1.0823   18.4018 N.ar    1  UNL1       -0.2807
@<TRIPOS>BOND
     1    26    27    1
     2    27    28   ar
     3    28    29   ar
     4    29    30   ar
     5    30    31    1
     6    30    32   ar
     7    32    19    1
     8    19    20   ar
     9    20    21   ar
    10    21    22   ar
    11    22    18    1
    12     1    18    1
    13     1     2    1
    14     2     3   ar
    15     3     4   ar
    16     4     5    1
    17     4     6   ar
    18     6     7   ar
    19     7     8   ar
    20     8     9    1
    21     9    10    1
    22    10    11    1
    23    11    12    1
    24    12    13    1
    25    13    14    1
    26    14    15    1
    27    14    16    1
    28    22    23   ar
    29    23    24    1
    30    23    25   ar
    31    32    27   ar
    32    25    19   ar
    33    10     1    1
    34    16    11    1
    35     8     2   ar
    36    15    17    1
@<TRIPOS>MOLECULE
*****
 32 36 0 0 0
SMALL
GASTEIGER

@<TRIPOS>ATOM
      1 C           1.8479    1.4042   25.2746 C.3     1  UNL1        0.2026
      2 C           1.3644    0.9631   26.6243 C.ar    1  UNL1        0.0155
      3 C           2.0825    0.3887   27.8093 C.ar    1  UNL1        0.0103
      4 C           1.3181    0.0354   29.0506 C.ar    1  UNL1        0.0575
      5 CL          2.0362   -0.5390   30.2357 Cl      1  UNL1       -0.0823
      6 C          -0.1645    0.2564   29.1068 C.ar    1  UNL1        0.0111
      7 C          -0.8826    0.8308   27.9217 C.ar    1  UNL1       -0.0036
      8 C          -0.1182    1.1841   26.6805 C.ar    1  UNL1       -0.0212
      9 C          -0.5508    1.7618   25.3656 C.3     1  UNL1        0.0461
     10 C           0.6643    1.8979   24.4967 C.3     1  UNL1        0.1066
     11 N           0.6910    2.4335   23.0958 N.3     1  UNL1       -0.2682
     12 C           1.1396    3.8044   22.6845 C.3     1  UNL1        0.0748
     13 C           0.9997    3.9104   21.1948 C.3     1  UNL1        0.0480
     14 C           0.4647    2.6050   20.6854 C.3     1  UNL1        0.1278
     15 O           0.1718    2.2709   19.2527 O.3     1  UNL1       -0.3830
     16 C           0.2739    1.6922   21.8603 C.3     1  UNL1        0.1018
     17 H          -0.1649    1.3631   19.1947 H       1  UNL1        0.2104
     18 O           3.2662    1.3595   24.7883 O.3     1  UNL1       -0.4725
     19 C           4.2212   -0.5012   20.8039 C.ar    1  UNL1        0.0672
     20 C           3.4792   -1.2903   21.8416 C.ar    1  UNL1        0.0208
     21 C           3.1609   -0.6701   23.1697 C.ar    1  UNL1        0.0393
     22 C           3.5845    0.7393   23.4602 C.ar    1  UNL1        0.1494
     23 C           4.3265    1.5284   22.4225 C.ar    1  UNL1        0.0930
     24 CL          4.7502    2.9377   22.7128 Cl      1  UNL1       -0.0790
     25 C           4.6448    0.9081   21.0944 C.ar    1  UNL1        0.0320
     26 C           6.4707   -2.7996   20.2501 C.3     1  UNL1        0.0742
     27 C           5.5734   -2.1779   19.2212 C.ar    1  UNL1        0.1473
     28 N           5.5527   -2.5036   17.7571 N.ar    1  UNL1       -0.1333
     29 N           4.5059   -1.6484   17.1069 N.ar    1  UNL1       -0.1333
     30 C           3.8797   -0.7942   18.1690 C.ar    1  UNL1        0.1473
     31 C           2.7857    0.2108   17.9610 C.3     1  UNL1        0.0742
     32 N           4.5395   -1.1215   19.4758 N.ar    1  UNL1       -0.2807
@<TRIPOS>BOND
     1    26    27    1
     2    27    28   ar
     3    28    29   ar
     4    29    30   ar
     5    30    31    1
     6    30    32   ar
     7    32    19    1
     8    19    20   ar
     9    20    21   ar
    10    21    22   ar
    11    22    18    1
    12     1    18    1
    13     1     2    1
    14     2     3   ar
    15     3     4   ar
    16     4     5    1
    17     4     6   ar
    18     6     7   ar
    19     7     8   ar
    20     8     9    1
    21     9    10    1
    22    10    11    1
    23    11    12    1
    24    12    13    1
    25    13    14    1
    26    14    15    1
    27    14    16    1
    28    22    23   ar
    29    23    24    1
    30    23    25   ar
    31    32    27   ar
    32    25    19   ar
    33    10     1    1
    34    16    11    1
    35     8     2   ar
    36    15    17    1
@<TRIPOS>MOLECULE
*****
 32 36 0 0 0
SMALL
GASTEIGER

@<TRIPOS>ATOM
      1 C           8.6649   -4.6804   26.6034 C.3     1  UNL1        0.2026
      2 C           8.7297   -5.2352   25.2113 C.ar    1  UNL1        0.0155
      3 C           8.9127   -4.5768   23.8760 C.ar    1  UNL1        0.0103
      4 C           8.9370   -5.4075   22.6273 C.ar    1  UNL1        0.0575
      5 CL          9.1200   -4.7491   21.2919 Cl      1  UNL1       -0.0823
      6 C           8.7783   -6.8966   22.7139 C.ar    1  UNL1        0.0111
      7 C           8.5953   -7.5549   24.0491 C.ar    1  UNL1       -0.0036
      8 C           8.5710   -6.7242   25.2978 C.ar    1  UNL1       -0.0212
      9 C           8.4081   -7.0897   26.7435 C.3     1  UNL1        0.0461
     10 C           8.4662   -5.8266   27.5504 C.3     1  UNL1        0.1066
     11 N           8.3465   -5.7271   29.0423 N.3     1  UNL1       -0.2682
     12 C           9.4799   -5.5432   30.0074 C.3     1  UNL1        0.0748
     13 C           8.9063   -5.4965   31.3926 C.3     1  UNL1        0.0480
     14 C           7.4183   -5.6514   31.2836 C.3     1  UNL1        0.1278
     15 O           6.4468   -5.6620   32.4265 O.3     1  UNL1       -0.3830
     16 C           7.0723   -5.7939   29.8310 C.3     1  UNL1        0.1018
     17 H           5.5464   -5.7763   32.0844 H       1  UNL1        0.2104
     18 O           8.7789   -3.2335   26.9821 O.3     1  UNL1       -0.4725
     19 C           5.7674   -1.3942   29.7745 C.ar    1  UNL1        0.0672
     20 C           7.1780   -1.6164   30.2336 C.ar    1  UNL1        0.0208
     21 C           8.1818   -2.2294   29.3027 C.ar    1  UNL1        0.0393
     22 C           7.7751   -2.6204   27.9128 C.ar    1  UNL1        0.1494
     23 C           6.3644   -2.3982   27.4538 C.ar    1  UNL1        0.0930
     24 CL          5.9576   -2.7891   26.0640 Cl      1  UNL1       -0.0790
     25 C           5.3606   -1.7851   28.3846 C.ar    1  UNL1        0.0320
     26 C           4.0992    1.3613   29.2515 C.3     1  UNL1        0.0742
     27 C           3.9967    0.4854   30.4650 C.ar    1  UNL1        0.1473
     28 N           3.1096    0.7224   31.6510 N.ar    1  UNL1       -0.1333
     29 N           3.3281   -0.3978   32.6244 N.ar    1  UNL1       -0.1333
     30 C           4.3503   -1.3270   32.0400 C.ar    1  UNL1        0.1473
     31 C           4.8683   -2.5818   32.6781 C.3     1  UNL1        0.0742
     32 N           4.7635   -0.7811   30.7053 N.ar    1  UNL1       -0.2807
@<TRIPOS>BOND
     1    26    27    1
     2    27    28   ar
     3    28    29   ar
     4    29    30   ar
     5    30    31    1
     6    30    32   ar
     7    32    19    1
     8    19    20   ar
     9    20    21   ar
    10    21    22   ar
    11    22    18    1
    12     1    18    1
    13     1     2    1
    14     2     3   ar
    15     3     4   ar
    16     4     5    1
    17     4     6   ar
    18     6     7   ar
    19     7     8   ar
    20     8     9    1
    21     9    10    1
    22    10    11    1
    23    11    12    1
    24    12    13    1
    25    13    14    1
    26    14    15    1
    27    14    16    1
    28    22    23   ar
    29    23    24    1
    30    23    25   ar
    31    32    27   ar
    32    25    19   ar
    33    10     1    1
    34    16    11    1
    35     8     2   ar
    36    15    17    1
@<TRIPOS>MOLECULE
*****
 32 36 0 0 0
SMALL
GASTEIGER

@<TRIPOS>ATOM
      1 C           6.9171   -3.5466   26.1236 C.3     1  UNL1        0.2026
      2 C           7.3186   -4.9118   25.6491 C.ar    1  UNL1        0.0155
      3 C           7.9825   -5.3813   24.3886 C.ar    1  UNL1        0.0103
      4 C           8.2646   -6.8408   24.1884 C.ar    1  UNL1        0.0575
      5 CL          8.9286   -7.3103   22.9279 Cl      1  UNL1       -0.0823
      6 C           7.8827   -7.8309   25.2485 C.ar    1  UNL1        0.0111
      7 C           7.2188   -7.3614   26.5090 C.ar    1  UNL1       -0.0036
      8 C           6.9367   -5.9019   26.7092 C.ar    1  UNL1       -0.0212
      9 C           6.2992   -5.1486   27.8389 C.3     1  UNL1        0.0461
     10 C           6.2871   -3.6929   27.4770 C.3     1  UNL1        0.1066
     11 N           5.7409   -2.5792   28.3203 N.3     1  UNL1       -0.2682
     12 C           6.1418   -2.2631   29.7308 C.3     1  UNL1        0.0748
     13 C           5.3466   -1.0746   30.1835 C.3     1  UNL1        0.0480
     14 C           4.4542   -0.6561   29.0528 C.3     1  UNL1        0.1278
     15 O           3.4877    0.4910   29.0705 O.3     1  UNL1       -0.3830
     16 C           4.6979   -1.5860   27.9013 C.3     1  UNL1        0.1018
     17 H           3.0349    0.5455   28.2144 H       1  UNL1        0.2104
     18 O           7.1115   -2.2609   25.3759 O.3     1  UNL1       -0.4725
     19 C           5.4989   -1.8216   21.1978 C.ar    1  UNL1        0.0672
     20 C           4.8714   -2.8012   22.1448 C.ar    1  UNL1        0.0208
     21 C           5.4090   -2.9476   23.5374 C.ar    1  UNL1        0.0393
     22 C           6.5740   -2.1144   23.9832 C.ar    1  UNL1        0.1494
     23 C           7.2014   -1.1349   23.0362 C.ar    1  UNL1        0.0930
     24 CL          8.3664   -0.3017   23.4819 Cl      1  UNL1       -0.0790
     25 C           6.6639   -0.9885   21.6436 C.ar    1  UNL1        0.0320
     26 C           2.4627   -0.9329   20.3973 C.3     1  UNL1        0.0742
     27 C           3.5658   -1.2667   19.4371 C.ar    1  UNL1        0.1473
     28 N           3.4669   -1.2506   17.9405 N.ar    1  UNL1       -0.1333
     29 N           4.8014   -1.6491   17.3835 N.ar    1  UNL1       -0.1333
     30 C           5.7250   -1.9115   18.5359 C.ar    1  UNL1        0.1473
     31 C           7.1604   -2.3358   18.4365 C.3     1  UNL1        0.0742
     32 N           4.9614   -1.6752   19.8051 N.ar    1  UNL1       -0.2807
@<TRIPOS>BOND
     1    26    27    1
     2    27    28   ar
     3    28    29   ar
     4    29    30   ar
     5    30    31    1
     6    30    32   ar
     7    32    19    1
     8    19    20   ar
     9    20    21   ar
    10    21    22   ar
    11    22    18    1
    12     1    18    1
    13     1     2    1
    14     2     3   ar
    15     3     4   ar
    16     4     5    1
    17     4     6   ar
    18     6     7   ar
    19     7     8   ar
    20     8     9    1
    21     9    10    1
    22    10    11    1
    23    11    12    1
    24    12    13    1
    25    13    14    1
    26    14    15    1
    27    14    16    1
    28    22    23   ar
    29    23    24    1
    30    23    25   ar
    31    32    27   ar
    32    25    19   ar
    33    10     1    1
    34    16    11    1
    35     8     2   ar
    36    15    17    1
@<TRIPOS>MOLECULE
*****
 32 36 0 0 0
SMALL
GASTEIGER

@<TRIPOS>ATOM
      1 C           4.3094   -0.5274   22.0003 C.3     1  UNL1        0.2026
      2 C           2.9196   -0.0437   21.7098 C.ar    1  UNL1        0.0155
      3 C           2.0686    1.0104   22.3536 C.ar    1  UNL1        0.0103
      4 C           0.6871    1.2791   21.8348 C.ar    1  UNL1        0.0575
      5 CL         -0.1640    2.3333   22.4786 Cl      1  UNL1       -0.0823
      6 C           0.1565    0.4936   20.6723 C.ar    1  UNL1        0.0111
      7 C           1.0075   -0.5606   20.0285 C.ar    1  UNL1       -0.0036
      8 C           2.3890   -0.8292   20.5472 C.ar    1  UNL1       -0.0212
      9 C           3.4510   -1.7983   20.1194 C.3     1  UNL1        0.0461
     10 C           4.6379   -1.6118   21.0174 C.3     1  UNL1        0.1066
     11 N           5.9269   -2.3755   20.9452 N.3     1  UNL1       -0.2682
     12 C           7.2892   -1.7872   20.7262 C.3     1  UNL1        0.0748
     13 C           8.2842   -2.9098   20.7250 C.3     1  UNL1        0.0480
     14 C           7.5367   -4.1918   20.9433 C.3     1  UNL1        0.1278
     15 O           8.1402   -5.5633   21.0132 O.3     1  UNL1       -0.3830
     16 C           6.0799   -3.8616   21.0794 C.3     1  UNL1        0.1018
     17 H           7.4397   -6.2176   21.1618 H       1  UNL1        0.2104
     18 O           5.2123   -0.0163   23.0837 O.3     1  UNL1       -0.4725
     19 C           4.0103   -0.4371   27.3997 C.ar    1  UNL1        0.0672
     20 C           3.9906    0.9118   26.7438 C.ar    1  UNL1        0.0208
     21 C           4.3913    1.0520   25.3051 C.ar    1  UNL1        0.0393
     22 C           4.8116   -0.1566   24.5223 C.ar    1  UNL1        0.1494
     23 C           4.8312   -1.5054   25.1783 C.ar    1  UNL1        0.0930
     24 CL          5.2515   -2.7140   24.3956 Cl      1  UNL1       -0.0790
     25 C           4.4305   -1.6456   26.6169 C.ar    1  UNL1        0.0320
     26 C           0.9744   -0.2144   28.5757 C.3     1  UNL1        0.0742
     27 C           2.2142   -0.4750   29.3790 C.ar    1  UNL1        0.1473
     28 N           2.2761   -0.6789   30.8637 N.ar    1  UNL1       -0.1333
     29 N           3.7098   -0.9073   31.2408 N.ar    1  UNL1       -0.1333
     30 C           4.5340   -0.8445   29.9891 C.ar    1  UNL1        0.1473
     31 C           6.0214   -1.0185   29.9031 C.3     1  UNL1        0.0742
     32 N           3.6096   -0.5773   28.8384 N.ar    1  UNL1       -0.2807
@<TRIPOS>BOND
     1    26    27    1
     2    27    28   ar
     3    28    29   ar
     4    29    30   ar
     5    30    31    1
     6    30    32   ar
     7    32    19    1
     8    19    20   ar
     9    20    21   ar
    10    21    22   ar
    11    22    18    1
    12     1    18    1
    13     1     2    1
    14     2     3   ar
    15     3     4   ar
    16     4     5    1
    17     4     6   ar
    18     6     7   ar
    19     7     8   ar
    20     8     9    1
    21     9    10    1
    22    10    11    1
    23    11    12    1
    24    12    13    1
    25    13    14    1
    26    14    15    1
    27    14    16    1
    28    22    23   ar
    29    23    24    1
    30    23    25   ar
    31    32    27   ar
    32    25    19   ar
    33    10     1    1
    34    16    11    1
    35     8     2   ar
    36    15    17    1
@<TRIPOS>MOLECULE
*****
 32 36 0 0 0
SMALL
GASTEIGER

@<TRIPOS>ATOM
      1 C           4.2247   -0.8143   30.7180 C.3     1  UNL1        0.2026
      2 C           5.6469   -1.2615   30.5523 C.ar    1  UNL1        0.0155
      3 C           6.5686   -2.0302   31.4520 C.ar    1  UNL1        0.0103
      4 C           7.9680   -2.3362   31.0071 C.ar    1  UNL1        0.0575
      5 CL          8.8898   -3.1050   31.9068 Cl      1  UNL1       -0.0823
      6 C           8.4458   -1.8735   29.6626 C.ar    1  UNL1        0.0111
      7 C           7.5240   -1.1048   28.7630 C.ar    1  UNL1       -0.0036
      8 C           6.1246   -0.7988   29.2078 C.ar    1  UNL1       -0.0212
      9 C           4.9977   -0.0657   28.5426 C.3     1  UNL1        0.0461
     10 C           3.8235   -0.0753   29.4759 C.3     1  UNL1        0.1066
     11 N           2.4833    0.5453   29.2133 N.3     1  UNL1       -0.2682
     12 C           2.2181    2.0018   28.9719 C.3     1  UNL1        0.0748
     13 C           0.7440    2.1749   28.7554 C.3     1  UNL1        0.0480
     14 C           0.0980    0.8254   28.8629 C.3     1  UNL1        0.1278
     15 O          -1.3658    0.5341   28.7136 O.3     1  UNL1       -0.3830
     16 C           1.1730   -0.1818   29.1459 C.3     1  UNL1        0.1018
     17 H          -1.5197   -0.4167   28.8286 H       1  UNL1        0.2104
     18 O           3.3563   -1.0627   31.9155 O.3     1  UNL1       -0.4725
     19 C           4.4195    0.7705   35.8853 C.ar    1  UNL1        0.0672
     20 C           4.8160   -0.6441   35.5822 C.ar    1  UNL1        0.0208
     21 C           4.4615   -1.2551   34.2589 C.ar    1  UNL1        0.0393
     22 C           3.7107   -0.4516   33.2387 C.ar    1  UNL1        0.1494
     23 C           3.3143    0.9630   33.5419 C.ar    1  UNL1        0.0930
     24 CL          2.5635    1.7665   32.5218 Cl      1  UNL1       -0.0790
     25 C           3.6687    1.5740   34.8651 C.ar    1  UNL1        0.0320
     26 C           2.4546    0.9982   38.4807 C.3     1  UNL1        0.0742
     27 C           3.8708    1.4862   38.4015 C.ar    1  UNL1        0.1473
     28 N           4.6324    2.1645   39.5014 N.ar    1  UNL1       -0.1333
     29 N           6.0063    2.4791   38.9882 N.ar    1  UNL1       -0.1333
     30 C           6.0938    1.9952   37.5711 C.ar    1  UNL1        0.1473
     31 C           7.2910    2.1055   36.6740 C.3     1  UNL1        0.0742
     32 N           4.7740    1.3815   37.2085 N.ar    1  UNL1       -0.2807
@<TRIPOS>BOND
     1    26    27    1
     2    27    28   ar
     3    28    29   ar
     4    29    30   ar
     5    30    31    1
     6    30    32   ar
     7    32    19    1
     8    19    20   ar
     9    20    21   ar
    10    21    22   ar
    11    22    18    1
    12     1    18    1
    13     1     2    1
    14     2     3   ar
    15     3     4   ar
    16     4     5    1
    17     4     6   ar
    18     6     7   ar
    19     7     8   ar
    20     8     9    1
    21     9    10    1
    22    10    11    1
    23    11    12    1
    24    12    13    1
    25    13    14    1
    26    14    15    1
    27    14    16    1
    28    22    23   ar
    29    23    24    1
    30    23    25   ar
    31    32    27   ar
    32    25    19   ar
    33    10     1    1
    34    16    11    1
    35     8     2   ar
    36    15    17    1
