@<TRIPOS>MOLECULE
*****
 42 46 0 0 0
SMALL
GASTEIGER

@<TRIPOS>ATOM
      1 C          -0.5931  -17.7449   18.4553 C.3     1  UNL1        0.1183
      2 N          -1.6202  -17.9493   19.5292 N.am    1  UNL1       -0.2425
      3 C          -2.5953  -19.0846   19.4280 C.3     1  UNL1        0.1183
      4 C          -3.6224  -19.2891   20.5018 C.3     1  UNL1        0.1146
      5 C          -3.9688  -20.4284   19.5897 C.3     1  UNL1        0.0252
      6 C          -3.6746  -18.3582   21.6768 C.3     1  UNL1        0.2040
      7 O          -2.6995  -17.2228   21.7780 O.3     1  UNL1       -0.4351
      8 C          -1.6724  -17.0184   20.7042 C.2     1  UNL1        0.4049
      9 O          -0.6973  -15.8830   20.8054 O.2     1  UNL1       -0.2262
     10 N          -4.7699  -19.8892   21.2588 N.am    1  UNL1       -0.2867
     11 C          -6.1800  -19.5459   20.8799 C.2     1  UNL1        0.3045
     12 O          -6.4427  -18.6022   19.7438 O.2     1  UNL1       -0.2525
     13 N          -7.3275  -20.1461   21.6370 N.am    1  UNL1       -0.2683
     14 H          -4.5975  -20.5086   22.0045 H       1  UNL1        0.1510
     15 H          -7.1551  -20.7655   22.3826 H       1  UNL1        0.1564
     16 C          -8.7376  -19.8027   21.2580 C.ar    1  UNL1        0.0517
     17 C          -9.1381  -19.7660   19.8130 C.ar    1  UNL1        0.0147
     18 C         -10.5482  -19.4226   19.4339 C.ar    1  UNL1        0.0014
     19 C         -11.5578  -19.1158   20.5001 C.ar    1  UNL1        0.0032
     20 C         -11.1573  -19.1525   21.9451 C.ar    1  UNL1        0.0386
     21 C          -9.7472  -19.4959   22.3241 C.ar    1  UNL1        0.0178
     22 C         -12.1669  -18.8457   23.0113 C.ar    1  UNL1        0.1839
     23 N         -13.5815  -18.4014   22.7844 N.ar    1  UNL1       -0.1081
     24 N         -14.2279  -18.2105   24.1244 N.ar    1  UNL1       -0.0227
     25 N         -13.2129  -18.5368   25.1794 N.ar    1  UNL1       -0.0429
     26 N         -11.9390  -18.9294   24.4915 N.ar    1  UNL1       -0.2113
     27 C         -10.6617  -19.3345   25.1654 C.3     1  UNL1        0.1573
     28 C          -4.7017  -18.5626   22.7507 C.3     1  UNL1        0.1181
     29 N          -5.3602  -17.3783   23.3940 N.3     1  UNL1       -0.2696
     30 C          -4.5230  -16.2624   23.9454 C.3     1  UNL1        0.0722
     31 C          -5.1815  -15.0781   24.5887 C.3     1  UNL1        0.0174
     32 C          -6.6771  -15.0097   24.6805 C.3     1  UNL1        0.0031
     33 C          -7.5143  -16.1255   24.1291 C.3     1  UNL1        0.0204
     34 C          -6.8558  -17.3098   23.4858 C.3     1  UNL1        0.0725
     35 C          -9.0099  -16.0570   24.2210 C.3     1  UNL1        0.0277
     36 C          -9.8330  -15.9325   22.9732 C.ar    1  UNL1       -0.0220
     37 C          -9.1688  -15.9767   21.6290 C.ar    1  UNL1       -0.0020
     38 C          -9.9919  -15.8522   20.3812 C.ar    1  UNL1        0.0293
     39 C         -11.4793  -15.6834   20.4777 C.ar    1  UNL1        0.1401
     40 F         -12.3024  -15.5589   19.2299 F       1  UNL1       -0.2042
     41 C         -12.1435  -15.6391   21.8218 C.ar    1  UNL1        0.0293
     42 C         -11.3204  -15.7636   23.0696 C.ar    1  UNL1       -0.0020
@<TRIPOS>BOND
     1     1     2    1
     2     2     3    1
     3     3     4    1
     4     4     5    1
     5     4    10    1
     6    10    11   am
     7    11    12    2
     8    11    13   am
     9    13    16    1
    10    16    17   ar
    11    17    18   ar
    12    18    19   ar
    13    19    20   ar
    14    20    22    1
    15    22    23   ar
    16    23    24   ar
    17    24    25   ar
    18    25    26   ar
    19    26    27    1
    20    20    21   ar
    21     4     6    1
    22     6    28    1
    23    28    29    1
    24    29    30    1
    25    30    31    1
    26    31    32    1
    27    32    33    1
    28    33    35    1
    29    35    36    1
    30    36    37   ar
    31    37    38   ar
    32    38    39   ar
    33    39    40    1
    34    39    41   ar
    35    41    42   ar
    36    33    34    1
    37     6     7    1
    38     7     8    1
    39     8     9    2
    40     8     2   am
    41    21    16   ar
    42    34    29    1
    43    26    22   ar
    44    42    36   ar
    45    10    14    1
    46    13    15    1
@<TRIPOS>MOLECULE
*****
 42 46 0 0 0
SMALL
GASTEIGER

@<TRIPOS>ATOM
      1 C          -4.8254    4.2547   17.6499 C.3     1  UNL1        0.1183
      2 N          -3.7505    3.8868   18.6292 N.am    1  UNL1       -0.2425
      3 C          -2.3092    3.9452   18.2178 C.3     1  UNL1        0.1183
      4 C          -1.2342    3.5773   19.1971 C.3     1  UNL1        0.1146
      5 C          -0.3931    3.9167   18.0024 C.3     1  UNL1        0.0252
      6 C          -1.6005    3.1512   20.5879 C.3     1  UNL1        0.2040
      7 O          -3.0417    3.0929   20.9993 O.3     1  UNL1       -0.4351
      8 C          -4.1167    3.4607   20.0199 C.2     1  UNL1        0.4049
      9 O          -5.5581    3.4024   20.4314 O.2     1  UNL1       -0.2262
     10 N           0.1329    3.3274   19.7615 N.am    1  UNL1       -0.2867
     11 C           0.9936    2.2405   19.1888 C.2     1  UNL1        0.3045
     12 O           0.4871    1.4035   18.0518 O.2     1  UNL1       -0.2525
     13 N           2.3607    1.9906   19.7533 N.am    1  UNL1       -0.2683
     14 H           0.4654    3.8768   20.5078 H       1  UNL1        0.1510
     15 H           2.6932    2.5400   20.4996 H       1  UNL1        0.1564
     16 C           3.2213    0.9037   19.1806 C.ar    1  UNL1        0.0517
     17 C           4.1337    1.1987   18.0271 C.ar    1  UNL1        0.0147
     18 C           4.9942    0.1118   17.4544 C.ar    1  UNL1        0.0014
     19 C           4.9424   -1.2702   18.0353 C.ar    1  UNL1        0.0032
     20 C           4.0301   -1.5653   19.1887 C.ar    1  UNL1        0.0386
     21 C           3.1696   -0.4784   19.7614 C.ar    1  UNL1        0.0178
     22 C           3.9783   -2.9473   19.7696 C.ar    1  UNL1        0.1839
     23 N           3.5781   -4.1956   19.0407 N.ar    1  UNL1       -0.1081
     24 N           3.6701   -5.3434   20.0020 N.ar    1  UNL1       -0.0227
     25 N           4.1271   -4.8044   21.3251 N.ar    1  UNL1       -0.0429
     26 N           4.3176   -3.3234   21.1815 N.ar    1  UNL1       -0.2113
     27 C           4.7682   -2.3837   22.2603 C.3     1  UNL1        0.1573
     28 C          -0.5255    2.7834   21.5672 C.3     1  UNL1        0.1181
     29 N          -0.4551    3.4727   22.8976 N.3     1  UNL1       -0.2696
     30 C           0.1061    4.8604   22.9946 C.3     1  UNL1        0.0722
     31 C           0.1764    5.5497   24.3249 C.3     1  UNL1        0.0174
     32 C          -0.3144    4.8513   25.5584 C.3     1  UNL1        0.0031
     33 C          -0.8755    3.4636   25.4614 C.3     1  UNL1        0.0204
     34 C          -0.9459    2.7742   24.1310 C.3     1  UNL1        0.0725
     35 C          -1.3663    2.7652   26.6949 C.3     1  UNL1        0.0277
     36 C          -0.4662    1.8143   27.4267 C.ar    1  UNL1       -0.0220
     37 C           1.0225    1.9821   27.3510 C.ar    1  UNL1       -0.0020
     38 C           1.9226    1.0313   28.0828 C.ar    1  UNL1        0.0293
     39 C           1.3341   -0.0875   28.8904 C.ar    1  UNL1        0.1401
     40 F           2.2342   -1.0383   29.6222 F       1  UNL1       -0.2042
     41 C          -0.1545   -0.2553   28.9661 C.ar    1  UNL1        0.0293
     42 C          -1.0547    0.6956   28.2342 C.ar    1  UNL1       -0.0020
@<TRIPOS>BOND
     1     1     2    1
     2     2     3    1
     3     3     4    1
     4     4     5    1
     5     4    10    1
     6    10    11   am
     7    11    12    2
     8    11    13   am
     9    13    16    1
    10    16    17   ar
    11    17    18   ar
    12    18    19   ar
    13    19    20   ar
    14    20    22    1
    15    22    23   ar
    16    23    24   ar
    17    24    25   ar
    18    25    26   ar
    19    26    27    1
    20    20    21   ar
    21     4     6    1
    22     6    28    1
    23    28    29    1
    24    29    30    1
    25    30    31    1
    26    31    32    1
    27    32    33    1
    28    33    35    1
    29    35    36    1
    30    36    37   ar
    31    37    38   ar
    32    38    39   ar
    33    39    40    1
    34    39    41   ar
    35    41    42   ar
    36    33    34    1
    37     6     7    1
    38     7     8    1
    39     8     9    2
    40     8     2   am
    41    21    16   ar
    42    34    29    1
    43    26    22   ar
    44    42    36   ar
    45    10    14    1
    46    13    15    1
@<TRIPOS>MOLECULE
*****
 42 46 0 0 0
SMALL
GASTEIGER

@<TRIPOS>ATOM
      1 C          -4.6233    4.3908   18.1144 C.3     1  UNL1        0.1183
      2 N          -3.4612    3.9262   18.9412 N.am    1  UNL1       -0.2425
      3 C          -2.0613    4.0965   18.4301 C.3     1  UNL1        0.1183
      4 C          -0.8992    3.6320   19.2569 C.3     1  UNL1        0.1146
      5 C          -0.1699    4.1705   18.0619 C.3     1  UNL1        0.0252
      6 C          -1.1369    2.9971   20.5949 C.3     1  UNL1        0.2040
      7 O          -2.5368    2.8267   21.1061 O.3     1  UNL1       -0.4351
      8 C          -3.6989    3.2913   20.2793 C.2     1  UNL1        0.4049
      9 O          -5.0988    3.1209   20.7905 O.2     1  UNL1       -0.2262
     10 N           0.5162    3.3545   19.6686 N.am    1  UNL1       -0.2867
     11 C           1.2525    2.1863   19.0827 C.2     1  UNL1        0.3045
     12 O           0.5734    1.2956   18.0850 O.2     1  UNL1       -0.2525
     13 N           2.6680    1.9089   19.4945 N.am    1  UNL1       -0.2683
     14 H           0.9620    3.9390   20.3234 H       1  UNL1        0.1510
     15 H           3.1138    2.4935   20.1494 H       1  UNL1        0.1564
     16 C           3.4042    0.7408   18.9086 C.ar    1  UNL1        0.0517
     17 C           4.2434    0.9234   17.6788 C.ar    1  UNL1        0.0147
     18 C           4.9797   -0.2448   17.0929 C.ar    1  UNL1        0.0014
     19 C           4.8766   -1.5957   17.7368 C.ar    1  UNL1        0.0032
     20 C           4.0375   -1.7783   18.9665 C.ar    1  UNL1        0.0386
     21 C           3.3012   -0.6102   19.5524 C.ar    1  UNL1        0.0178
     22 C           3.9344   -3.1292   19.6104 C.ar    1  UNL1        0.1839
     23 N           3.4149   -4.3778   18.9616 N.ar    1  UNL1       -0.1081
     24 N           3.4922   -5.4889   19.9664 N.ar    1  UNL1       -0.0227
     25 N           4.0596   -4.9269   21.2361 N.ar    1  UNL1       -0.0429
     26 N           4.3329   -3.4685   21.0161 N.ar    1  UNL1       -0.2113
     27 C           4.9043   -2.5166   22.0247 C.3     1  UNL1        0.1573
     28 C           0.0252    2.5325   21.4217 C.3     1  UNL1        0.1181
     29 N          -0.1235    2.3818   22.9067 N.3     1  UNL1       -0.2696
     30 C           0.5599    1.2518   23.6181 C.3     1  UNL1        0.0722
     31 C           0.4112    1.1012   25.1031 C.3     1  UNL1        0.0174
     32 C          -0.4208    2.0806   25.8767 C.3     1  UNL1        0.0031
     33 C          -1.1042    3.2105   25.1654 C.3     1  UNL1        0.0204
     34 C          -0.9556    3.3612   23.6803 C.3     1  UNL1        0.0725
     35 C          -1.9363    4.1899   25.9390 C.3     1  UNL1        0.0277
     36 C          -3.3865    4.3725   25.6022 C.ar    1  UNL1       -0.0220
     37 C          -4.0206    3.5299   24.5354 C.ar    1  UNL1       -0.0020
     38 C          -5.4709    3.7125   24.1987 C.ar    1  UNL1        0.0293
     39 C          -6.2870    4.7377   24.9287 C.ar    1  UNL1        0.1401
     40 F          -7.7373    4.9203   24.5919 F       1  UNL1       -0.2042
     41 C          -5.6530    5.5803   25.9954 C.ar    1  UNL1        0.0293
     42 C          -4.2027    5.3977   26.3322 C.ar    1  UNL1       -0.0020
@<TRIPOS>BOND
     1     1     2    1
     2     2     3    1
     3     3     4    1
     4     4     5    1
     5     4    10    1
     6    10    11   am
     7    11    12    2
     8    11    13   am
     9    13    16    1
    10    16    17   ar
    11    17    18   ar
    12    18    19   ar
    13    19    20   ar
    14    20    22    1
    15    22    23   ar
    16    23    24   ar
    17    24    25   ar
    18    25    26   ar
    19    26    27    1
    20    20    21   ar
    21     4     6    1
    22     6    28    1
    23    28    29    1
    24    29    30    1
    25    30    31    1
    26    31    32    1
    27    32    33    1
    28    33    35    1
    29    35    36    1
    30    36    37   ar
    31    37    38   ar
    32    38    39   ar
    33    39    40    1
    34    39    41   ar
    35    41    42   ar
    36    33    34    1
    37     6     7    1
    38     7     8    1
    39     8     9    2
    40     8     2   am
    41    21    16   ar
    42    34    29    1
    43    26    22   ar
    44    42    36   ar
    45    10    14    1
    46    13    15    1
@<TRIPOS>MOLECULE
*****
 42 46 0 0 0
SMALL
GASTEIGER

@<TRIPOS>ATOM
      1 C           9.5082   -7.9796   24.9252 C.3     1  UNL1        0.1183
      2 N           9.0432   -6.5826   25.2118 N.am    1  UNL1       -0.2425
      3 C           9.2731   -5.9785   26.5653 C.3     1  UNL1        0.1183
      4 C           8.8081   -4.5814   26.8519 C.3     1  UNL1        0.1146
      5 C           9.4147   -4.9313   28.1784 C.3     1  UNL1        0.0252
      6 C           8.1132   -3.7886   25.7849 C.3     1  UNL1        0.2040
      7 O           7.8833   -4.3927   24.4314 O.3     1  UNL1       -0.4351
      8 C           8.3483   -5.7898   24.1448 C.2     1  UNL1        0.4049
      9 O           8.1184   -6.3939   22.7912 O.2     1  UNL1       -0.2262
     10 N           8.5538   -3.3060   27.5992 N.am    1  UNL1       -0.2867
     11 C           7.5096   -3.2625   28.6752 C.2     1  UNL1        0.3045
     12 O           6.7197   -4.4946   29.0040 O.2     1  UNL1       -0.2525
     13 N           7.2554   -1.9869   29.4225 N.am    1  UNL1       -0.2683
     14 H           9.0722   -2.4973   27.3835 H       1  UNL1        0.1510
     15 H           7.7738   -1.1783   29.2067 H       1  UNL1        0.1564
     16 C           6.2112   -1.9435   30.4985 C.ar    1  UNL1        0.0517
     17 C           6.3774   -2.7706   31.7387 C.ar    1  UNL1        0.0147
     18 C           5.3332   -2.7272   32.8147 C.ar    1  UNL1        0.0014
     19 C           4.1228   -1.8566   32.6504 C.ar    1  UNL1        0.0032
     20 C           3.9565   -1.0296   31.4102 C.ar    1  UNL1        0.0386
     21 C           5.0007   -1.0729   30.3342 C.ar    1  UNL1        0.0178
     22 C           2.7461   -0.1590   31.2459 C.ar    1  UNL1        0.1839
     23 N           1.6892   -0.3083   30.1921 N.ar    1  UNL1       -0.1081
     24 N           0.6700    0.7722   30.4015 N.ar    1  UNL1       -0.0227
     25 N           1.0971    1.5892   31.5846 N.ar    1  UNL1       -0.0429
     26 N           2.3802    1.0138   32.1066 N.ar    1  UNL1       -0.2113
     27 C           3.1604    1.5218   33.2827 C.3     1  UNL1        0.1573
     28 C           7.6482   -2.3916   26.0715 C.3     1  UNL1        0.1181
     29 N           6.3543   -1.8986   25.4947 N.3     1  UNL1       -0.2696
     30 C           5.1702   -1.6782   26.3888 C.3     1  UNL1        0.0722
     31 C           3.8763   -1.1853   25.8120 C.3     1  UNL1        0.0174
     32 C           3.7664   -0.9128   24.3410 C.3     1  UNL1        0.0031
     33 C           4.9504   -1.1332   23.4469 C.3     1  UNL1        0.0204
     34 C           6.2444   -1.6261   24.0237 C.3     1  UNL1        0.0725
     35 C           4.8405   -0.8607   21.9760 C.3     1  UNL1        0.0277
     36 C           4.8076   -2.0012   21.0023 C.ar    1  UNL1       -0.0220
     37 C           4.1988   -3.3122   21.4031 C.ar    1  UNL1       -0.0020
     38 C           4.1659   -4.4528   20.4295 C.ar    1  UNL1        0.0293
     39 C           4.7419   -4.2824   19.0550 C.ar    1  UNL1        0.1401
     40 F           4.7090   -5.4229   18.0813 F       1  UNL1       -0.2042
     41 C           5.3507   -2.9714   18.6541 C.ar    1  UNL1        0.0293
     42 C           5.3836   -1.8308   19.6278 C.ar    1  UNL1       -0.0020
@<TRIPOS>BOND
     1     1     2    1
     2     2     3    1
     3     3     4    1
     4     4     5    1
     5     4    10    1
     6    10    11   am
     7    11    12    2
     8    11    13   am
     9    13    16    1
    10    16    17   ar
    11    17    18   ar
    12    18    19   ar
    13    19    20   ar
    14    20    22    1
    15    22    23   ar
    16    23    24   ar
    17    24    25   ar
    18    25    26   ar
    19    26    27    1
    20    20    21   ar
    21     4     6    1
    22     6    28    1
    23    28    29    1
    24    29    30    1
    25    30    31    1
    26    31    32    1
    27    32    33    1
    28    33    35    1
    29    35    36    1
    30    36    37   ar
    31    37    38   ar
    32    38    39   ar
    33    39    40    1
    34    39    41   ar
    35    41    42   ar
    36    33    34    1
    37     6     7    1
    38     7     8    1
    39     8     9    2
    40     8     2   am
    41    21    16   ar
    42    34    29    1
    43    26    22   ar
    44    42    36   ar
    45    10    14    1
    46    13    15    1
@<TRIPOS>MOLECULE
*****
 42 46 0 0 0
SMALL
GASTEIGER

@<TRIPOS>ATOM
      1 C           0.7622    5.0621   27.0760 C.3     1  UNL1        0.1183
      2 N           0.2443    4.5883   25.7504 N.am    1  UNL1       -0.2425
      3 C           0.4133    3.1530   25.3487 C.3     1  UNL1        0.1183
      4 C          -0.1047    2.6791   24.0231 C.3     1  UNL1        0.1146
      5 C           0.4719    1.3987   24.5503 C.3     1  UNL1        0.0252
      6 C          -0.7916    3.6406   23.0992 C.3     1  UNL1        0.2040
      7 O          -0.9606    5.0759   23.5009 O.3     1  UNL1       -0.4351
      8 C          -0.4426    5.5497   24.8265 C.2     1  UNL1        0.4049
      9 O          -0.6116    6.9851   25.2281 O.2     1  UNL1       -0.2262
     10 N          -0.4224    1.7606   22.8807 N.am    1  UNL1       -0.2867
     11 C           0.6669    1.3167   21.9499 C.2     1  UNL1        0.3045
     12 O           2.0740    1.7914   22.1616 O.2     1  UNL1       -0.2525
     13 N           0.3492    0.3981   20.8074 N.am    1  UNL1       -0.2683
     14 H          -1.3458    1.4490   22.7417 H       1  UNL1        0.1510
     15 H          -0.5743    0.0865   20.6685 H       1  UNL1        0.1564
     16 C           1.4385   -0.0458   19.8766 C.ar    1  UNL1        0.0517
     17 C           1.8020    0.7979   18.6909 C.ar    1  UNL1        0.0147
     18 C           2.8913    0.3541   17.7602 C.ar    1  UNL1        0.0014
     19 C           3.6173   -0.9336   18.0153 C.ar    1  UNL1        0.0032
     20 C           3.2539   -1.7772   19.2009 C.ar    1  UNL1        0.0386
     21 C           2.1645   -1.3334   20.1317 C.ar    1  UNL1        0.0178
     22 C           3.9798   -3.0649   19.4560 C.ar    1  UNL1        0.1839
     23 N           3.5020   -4.4360   19.0795 N.ar    1  UNL1       -0.1081
     24 N           4.5380   -5.4259   19.5232 N.ar    1  UNL1       -0.0227
     25 N           5.6559   -4.6666   20.1740 N.ar    1  UNL1       -0.0429
     26 N           5.3110   -3.2074   20.1325 N.ar    1  UNL1       -0.2113
     27 C           6.1499   -2.0874   20.6726 C.3     1  UNL1        0.1573
     28 C          -1.3096    3.1668   21.7736 C.3     1  UNL1        0.1181
     29 N          -2.7477    3.3863   21.4084 N.3     1  UNL1       -0.2696
     30 C          -3.1397    3.5494   19.9697 C.3     1  UNL1        0.0722
     31 C          -4.5779    3.7690   19.6044 C.3     1  UNL1        0.0174
     32 C          -5.6241    3.8254   20.6779 C.3     1  UNL1        0.0031
     33 C          -5.2322    3.6623   22.1165 C.3     1  UNL1        0.0204
     34 C          -3.7939    3.4428   22.4818 C.3     1  UNL1        0.0725
     35 C          -6.2784    3.7188   23.1899 C.3     1  UNL1        0.0277
     36 C          -6.0294    4.5110   24.4390 C.ar    1  UNL1       -0.0220
     37 C          -6.6884    5.8458   24.6245 C.ar    1  UNL1       -0.0020
     38 C          -6.4394    6.6380   25.8736 C.ar    1  UNL1        0.0293
     39 C          -5.5314    6.0956   26.9373 C.ar    1  UNL1        0.1401
     40 F          -5.2824    6.8879   28.1863 F       1  UNL1       -0.2042
     41 C          -4.8724    4.7610   26.7518 C.ar    1  UNL1        0.0293
     42 C          -5.1214    3.9686   25.5027 C.ar    1  UNL1       -0.0020
@<TRIPOS>BOND
     1     1     2    1
     2     2     3    1
     3     3     4    1
     4     4     5    1
     5     4    10    1
     6    10    11   am
     7    11    12    2
     8    11    13   am
     9    13    16    1
    10    16    17   ar
    11    17    18   ar
    12    18    19   ar
    13    19    20   ar
    14    20    22    1
    15    22    23   ar
    16    23    24   ar
    17    24    25   ar
    18    25    26   ar
    19    26    27    1
    20    20    21   ar
    21     4     6    1
    22     6    28    1
    23    28    29    1
    24    29    30    1
    25    30    31    1
    26    31    32    1
    27    32    33    1
    28    33    35    1
    29    35    36    1
    30    36    37   ar
    31    37    38   ar
    32    38    39   ar
    33    39    40    1
    34    39    41   ar
    35    41    42   ar
    36    33    34    1
    37     6     7    1
    38     7     8    1
    39     8     9    2
    40     8     2   am
    41    21    16   ar
    42    34    29    1
    43    26    22   ar
    44    42    36   ar
    45    10    14    1
    46    13    15    1
@<TRIPOS>MOLECULE
*****
 42 46 0 0 0
SMALL
GASTEIGER

@<TRIPOS>ATOM
      1 C           9.0678   -7.3781   28.5409 C.3     1  UNL1        0.1183
      2 N           8.3535   -6.4191   27.6353 N.am    1  UNL1       -0.2425
      3 C           8.4940   -4.9409   27.8476 C.3     1  UNL1        0.1183
      4 C           7.7797   -3.9819   26.9421 C.3     1  UNL1        0.1146
      5 C           8.4696   -3.0128   27.8557 C.3     1  UNL1        0.0252
      6 C           6.9248   -4.5011   25.8242 C.3     1  UNL1        0.2040
      7 O           6.7844   -5.9792   25.6119 O.3     1  UNL1       -0.4351
      8 C           7.4987   -6.9383   26.5174 C.2     1  UNL1        0.4049
      9 O           7.3581   -8.4166   26.3050 O.2     1  UNL1       -0.2262
     10 N           7.3050   -2.6862   26.3539 N.am    1  UNL1       -0.2867
     11 C           6.4036   -1.7877   27.1477 C.2     1  UNL1        0.3045
     12 O           5.9768   -2.1848   28.5298 O.2     1  UNL1       -0.2525
     13 N           5.9290   -0.4920   26.5594 N.am    1  UNL1       -0.2683
     14 H           7.5851   -2.4256   25.4468 H       1  UNL1        0.1510
     15 H           6.2091   -0.2314   25.6522 H       1  UNL1        0.1564
     16 C           5.0277    0.4065   27.3532 C.ar    1  UNL1        0.0517
     17 C           5.5666    1.6733   27.9485 C.ar    1  UNL1        0.0147
     18 C           4.6652    2.5718   28.7424 C.ar    1  UNL1        0.0014
     19 C           3.2247    2.2033   28.9409 C.ar    1  UNL1        0.0032
     20 C           2.6858    0.9365   28.3456 C.ar    1  UNL1        0.0386
     21 C           3.5871    0.0380   27.5518 C.ar    1  UNL1        0.0178
     22 C           1.2453    0.5679   28.5441 C.ar    1  UNL1        0.1839
     23 N           0.6801   -0.1811   29.7143 N.ar    1  UNL1       -0.1081
     24 N          -0.7973   -0.3282   29.5006 N.ar    1  UNL1       -0.0227
     25 N          -1.1451    0.3299   28.1984 N.ar    1  UNL1       -0.0429
     26 N           0.1173    0.8838   27.6072 N.ar    1  UNL1       -0.2113
     27 C           0.2317    1.6236   26.3073 C.3     1  UNL1        0.1573
     28 C           6.2105   -3.5420   24.9187 C.3     1  UNL1        0.1181
     29 N           6.3545   -3.6666   23.4308 N.3     1  UNL1       -0.2696
     30 C           7.7127   -3.8526   22.8217 C.3     1  UNL1        0.0722
     31 C           7.8567   -3.9772   21.3338 C.3     1  UNL1        0.0174
     32 C           6.6426   -3.9157   20.4551 C.3     1  UNL1        0.0031
     33 C           5.2845   -3.7297   21.0641 C.3     1  UNL1        0.0204
     34 C           5.1405   -3.6051   22.5520 C.3     1  UNL1        0.0725
     35 C           4.0705   -3.6682   20.1853 C.3     1  UNL1        0.0277
     36 C           3.6078   -2.3512   19.6364 C.ar    1  UNL1       -0.0220
     37 C           2.6815   -1.4874   20.4401 C.ar    1  UNL1       -0.0020
     38 C           2.2189   -0.1704   19.8911 C.ar    1  UNL1        0.0293
     39 C           2.6826    0.2829   18.5385 C.ar    1  UNL1        0.1401
     40 F           2.2199    1.6000   17.9896 F       1  UNL1       -0.2042
     41 C           3.6088   -0.5808   17.7349 C.ar    1  UNL1        0.0293
     42 C           4.0715   -1.8979   18.2838 C.ar    1  UNL1       -0.0020
@<TRIPOS>BOND
     1     1     2    1
     2     2     3    1
     3     3     4    1
     4     4     5    1
     5     4    10    1
     6    10    11   am
     7    11    12    2
     8    11    13   am
     9    13    16    1
    10    16    17   ar
    11    17    18   ar
    12    18    19   ar
    13    19    20   ar
    14    20    22    1
    15    22    23   ar
    16    23    24   ar
    17    24    25   ar
    18    25    26   ar
    19    26    27    1
    20    20    21   ar
    21     4     6    1
    22     6    28    1
    23    28    29    1
    24    29    30    1
    25    30    31    1
    26    31    32    1
    27    32    33    1
    28    33    35    1
    29    35    36    1
    30    36    37   ar
    31    37    38   ar
    32    38    39   ar
    33    39    40    1
    34    39    41   ar
    35    41    42   ar
    36    33    34    1
    37     6     7    1
    38     7     8    1
    39     8     9    2
    40     8     2   am
    41    21    16   ar
    42    34    29    1
    43    26    22   ar
    44    42    36   ar
    45    10    14    1
    46    13    15    1
@<TRIPOS>MOLECULE
*****
 42 46 0 0 0
SMALL
GASTEIGER

@<TRIPOS>ATOM
      1 C           7.4567    0.9906   30.6655 C.3     1  UNL1        0.1183
      2 N           6.5775    0.3324   29.6438 N.am    1  UNL1       -0.2425
      3 C           6.9894   -0.9721   29.0285 C.3     1  UNL1        0.1183
      4 C           6.1102   -1.6302   28.0068 C.3     1  UNL1        0.1146
      5 C           7.2313   -2.6251   28.0655 C.3     1  UNL1        0.0252
      6 C           4.8191   -0.9840   27.6005 C.3     1  UNL1        0.2040
      7 O           4.4071    0.3205   28.2158 O.3     1  UNL1       -0.4351
      8 C           5.2863    0.9787   29.2374 C.2     1  UNL1        0.4049
      9 O           4.8743    2.2832   29.8527 O.2     1  UNL1       -0.2262
     10 N           5.6204   -2.6340   27.0056 N.am    1  UNL1       -0.2867
     11 C           6.4210   -2.9106   25.7676 C.2     1  UNL1        0.3045
     12 O           7.7115   -2.1835   25.5309 O.2     1  UNL1       -0.2525
     13 N           5.9311   -3.9144   24.7663 N.am    1  UNL1       -0.2683
     14 H           4.7735   -3.1112   27.1609 H       1  UNL1        0.1510
     15 H           5.0841   -4.3917   24.9217 H       1  UNL1        0.1564
     16 C           6.7317   -4.1910   23.5284 C.ar    1  UNL1        0.0517
     17 C           7.9302   -5.0904   23.5956 C.ar    1  UNL1        0.0147
     18 C           8.7308   -5.3670   22.3577 C.ar    1  UNL1        0.0014
     19 C           8.3329   -4.7440   21.0524 C.ar    1  UNL1        0.0032
     20 C           7.1344   -3.8446   20.9852 C.ar    1  UNL1        0.0386
     21 C           6.3338   -3.5680   22.2231 C.ar    1  UNL1        0.0178
     22 C           6.7365   -3.2216   19.6799 C.ar    1  UNL1        0.1839
     23 N           7.5781   -2.2968   18.8515 N.ar    1  UNL1       -0.1081
     24 N           6.7888   -1.9177   17.6336 N.ar    1  UNL1       -0.0227
     25 N           5.4593   -2.6082   17.7094 N.ar    1  UNL1       -0.0429
     26 N           5.4270   -3.4141   18.9742 N.ar    1  UNL1       -0.2113
     27 C           4.2856   -4.2633   19.4496 C.3     1  UNL1        0.1573
     28 C           3.9399   -1.6422   26.5788 C.3     1  UNL1        0.1181
     29 N           3.4483   -0.8602   25.3969 N.3     1  UNL1       -0.2696
     30 C           2.8412    0.4970   25.5955 C.3     1  UNL1        0.0722
     31 C           2.3496    1.2790   24.4136 C.3     1  UNL1        0.0174
     32 C           2.4652    0.7038   23.0331 C.3     1  UNL1        0.0031
     33 C           3.0723   -0.6534   22.8345 C.3     1  UNL1        0.0204
     34 C           3.5639   -1.4354   24.0164 C.3     1  UNL1        0.0725
     35 C           3.1878   -1.2286   21.4540 C.3     1  UNL1        0.0277
     36 C           3.8237   -0.4261   20.3579 C.ar    1  UNL1       -0.0220
     37 C           3.0825   -0.1884   19.0756 C.ar    1  UNL1       -0.0020
     38 C           3.7184    0.6142   17.9795 C.ar    1  UNL1        0.0293
     39 C           5.0954    1.1791   18.1656 C.ar    1  UNL1        0.1401
     40 F           5.7313    1.9817   17.0695 F       1  UNL1       -0.2042
     41 C           5.8366    0.9415   19.4478 C.ar    1  UNL1        0.0293
     42 C           5.2007    0.1389   20.5440 C.ar    1  UNL1       -0.0020
@<TRIPOS>BOND
     1     1     2    1
     2     2     3    1
     3     3     4    1
     4     4     5    1
     5     4    10    1
     6    10    11   am
     7    11    12    2
     8    11    13   am
     9    13    16    1
    10    16    17   ar
    11    17    18   ar
    12    18    19   ar
    13    19    20   ar
    14    20    22    1
    15    22    23   ar
    16    23    24   ar
    17    24    25   ar
    18    25    26   ar
    19    26    27    1
    20    20    21   ar
    21     4     6    1
    22     6    28    1
    23    28    29    1
    24    29    30    1
    25    30    31    1
    26    31    32    1
    27    32    33    1
    28    33    35    1
    29    35    36    1
    30    36    37   ar
    31    37    38   ar
    32    38    39   ar
    33    39    40    1
    34    39    41   ar
    35    41    42   ar
    36    33    34    1
    37     6     7    1
    38     7     8    1
    39     8     9    2
    40     8     2   am
    41    21    16   ar
    42    34    29    1
    43    26    22   ar
    44    42    36   ar
    45    10    14    1
    46    13    15    1
@<TRIPOS>MOLECULE
*****
 42 46 0 0 0
SMALL
GASTEIGER

@<TRIPOS>ATOM
      1 C           2.5244    2.4257   31.8459 C.3     1  UNL1        0.1183
      2 N           1.8753    2.2596   30.5039 N.am    1  UNL1       -0.2425
      3 C           2.2702    1.1170   29.6160 C.3     1  UNL1        0.1183
      4 C           1.6211    0.9509   28.2739 C.3     1  UNL1        0.1146
      5 C           2.5521   -0.2252   28.2604 C.3     1  UNL1        0.0252
      6 C           0.5770    1.9273   27.8198 C.3     1  UNL1        0.2040
      7 O           0.1821    3.0700   28.7077 O.3     1  UNL1       -0.4351
      8 C           0.8312    3.2361   30.0497 C.2     1  UNL1        0.4049
      9 O           0.4361    4.3788   30.9376 O.2     1  UNL1       -0.2262
     10 N           1.2954    0.3762   26.9272 N.am    1  UNL1       -0.2867
     11 C           2.3042    0.4432   25.8192 C.2     1  UNL1        0.3045
     12 O           3.6389    1.0849   26.0579 O.2     1  UNL1       -0.2525
     13 N           1.9784   -0.1314   24.4724 N.am    1  UNL1       -0.2683
     14 H           0.4194   -0.0449   26.7705 H       1  UNL1        0.1510
     15 H           1.1024   -0.5526   24.3158 H       1  UNL1        0.1564
     16 C           2.9873   -0.0644   23.3645 C.ar    1  UNL1        0.0517
     17 C           3.3434    1.2583   22.7533 C.ar    1  UNL1        0.0147
     18 C           4.3523    1.3253   21.6454 C.ar    1  UNL1        0.0014
     19 C           5.0051    0.0694   21.1485 C.ar    1  UNL1        0.0032
     20 C           4.6490   -1.2532   21.7596 C.ar    1  UNL1        0.0386
     21 C           3.6401   -1.3203   22.8676 C.ar    1  UNL1        0.0178
     22 C           5.3018   -2.5091   21.2628 C.ar    1  UNL1        0.1839
     23 N           6.6364   -3.0396   21.6954 N.ar    1  UNL1       -0.1081
     24 N           6.8939   -4.3133   20.9461 N.ar    1  UNL1       -0.0227
     25 N           5.7184   -4.5699   20.0504 N.ar    1  UNL1       -0.0429
     26 N           4.7343   -3.4549   20.2462 N.ar    1  UNL1       -0.2113
     27 C           3.4146   -3.3109   19.5479 C.3     1  UNL1        0.1573
     28 C          -0.0721    1.7612   26.4778 C.3     1  UNL1        0.1181
     29 N           0.2895    2.6825   25.3506 N.3     1  UNL1       -0.2696
     30 C           1.1312    3.8958   25.6141 C.3     1  UNL1        0.0722
     31 C           1.4928    4.8170   24.4869 C.3     1  UNL1        0.0174
     32 C           1.0127    4.5250   23.0962 C.3     1  UNL1        0.0031
     33 C           0.1710    3.3117   22.8326 C.3     1  UNL1        0.0204
     34 C          -0.1906    2.3904   23.9598 C.3     1  UNL1        0.0725
     35 C          -0.3090    3.0196   21.4418 C.3     1  UNL1        0.0277
     36 C           0.4987    2.1340   20.5401 C.ar    1  UNL1       -0.0220
     37 C           1.3929    2.7395   19.4989 C.ar    1  UNL1       -0.0020
     38 C           2.2006    1.8539   18.5971 C.ar    1  UNL1        0.0293
     39 C           2.1143    0.3629   18.7365 C.ar    1  UNL1        0.1401
     40 F           2.9220   -0.5227   17.8347 F       1  UNL1       -0.2042
     41 C           1.2202   -0.2426   19.7776 C.ar    1  UNL1        0.0293
     42 C           0.4124    0.6430   20.6794 C.ar    1  UNL1       -0.0020
@<TRIPOS>BOND
     1     1     2    1
     2     2     3    1
     3     3     4    1
     4     4     5    1
     5     4    10    1
     6    10    11   am
     7    11    12    2
     8    11    13   am
     9    13    16    1
    10    16    17   ar
    11    17    18   ar
    12    18    19   ar
    13    19    20   ar
    14    20    22    1
    15    22    23   ar
    16    23    24   ar
    17    24    25   ar
    18    25    26   ar
    19    26    27    1
    20    20    21   ar
    21     4     6    1
    22     6    28    1
    23    28    29    1
    24    29    30    1
    25    30    31    1
    26    31    32    1
    27    32    33    1
    28    33    35    1
    29    35    36    1
    30    36    37   ar
    31    37    38   ar
    32    38    39   ar
    33    39    40    1
    34    39    41   ar
    35    41    42   ar
    36    33    34    1
    37     6     7    1
    38     7     8    1
    39     8     9    2
    40     8     2   am
    41    21    16   ar
    42    34    29    1
    43    26    22   ar
    44    42    36   ar
    45    10    14    1
    46    13    15    1
@<TRIPOS>MOLECULE
*****
 42 46 0 0 0
SMALL
GASTEIGER

@<TRIPOS>ATOM
      1 C          -1.4592    0.2540   29.0494 C.3     1  UNL1        0.1183
      2 N          -0.2500    0.5932   28.2292 N.am    1  UNL1       -0.2425
      3 C          -0.4075    1.3153   26.9240 C.3     1  UNL1        0.1183
      4 C           0.8018    1.6544   26.1038 C.3     1  UNL1        0.1146
      5 C          -0.2749    2.2239   25.2283 C.3     1  UNL1        0.0252
      6 C           2.1685    1.2714   26.5888 C.3     1  UNL1        0.2040
      7 O           2.3260    0.5493   27.8941 O.3     1  UNL1       -0.4351
      8 C           1.1167    0.2102   28.7142 C.2     1  UNL1        0.4049
      9 O           1.2743   -0.5120   30.0195 O.2     1  UNL1       -0.2262
     10 N           1.6370    2.1914   24.9795 N.am    1  UNL1       -0.2867
     11 C           1.4829    1.6311   23.5966 C.2     1  UNL1        0.3045
     12 O           0.4934    0.5337   23.3380 O.2     1  UNL1       -0.2525
     13 N           2.3182    2.1681   22.4724 N.am    1  UNL1       -0.2683
     14 H           2.2864    2.9116   25.1492 H       1  UNL1        0.1510
     15 H           2.9676    2.8883   22.6421 H       1  UNL1        0.1564
     16 C           2.1640    1.6077   21.0896 C.ar    1  UNL1        0.0517
     17 C           1.1641    2.2060   20.1450 C.ar    1  UNL1        0.0147
     18 C           1.0099    1.6456   18.7622 C.ar    1  UNL1        0.0014
     19 C           1.8558    0.4869   18.3240 C.ar    1  UNL1        0.0032
     20 C           2.8556   -0.1114   19.2685 C.ar    1  UNL1        0.0386
     21 C           3.0098    0.4490   20.6513 C.ar    1  UNL1        0.0178
     22 C           3.7015   -1.2701   18.8302 C.ar    1  UNL1        0.1839
     23 N           3.4639   -2.7123   19.1671 N.ar    1  UNL1       -0.1081
     24 N           4.5489   -3.5235   18.5232 N.ar    1  UNL1       -0.0227
     25 N           5.4571   -2.5827   17.7885 N.ar    1  UNL1       -0.0429
     26 N           4.9334   -1.1899   17.9782 N.ar    1  UNL1       -0.2113
     27 C           5.5358    0.0630   17.4149 C.3     1  UNL1        0.1573
     28 C           3.3777    1.6106   25.7686 C.3     1  UNL1        0.1181
     29 N           4.3914    0.5509   25.4533 N.3     1  UNL1       -0.2696
     30 C           5.5857    0.3671   26.3421 C.3     1  UNL1        0.0722
     31 C           6.5993   -0.6926   26.0267 C.3     1  UNL1        0.0174
     32 C           6.4187   -1.5686   24.8225 C.3     1  UNL1        0.0031
     33 C           5.2245   -1.3849   23.9338 C.3     1  UNL1        0.0204
     34 C           4.2108   -0.3252   24.2491 C.3     1  UNL1        0.0725
     35 C           5.0438   -2.2609   22.7296 C.3     1  UNL1        0.0277
     36 C           6.1616   -2.4177   21.7418 C.ar    1  UNL1       -0.0220
     37 C           6.7292   -1.2117   21.0537 C.ar    1  UNL1       -0.0020
     38 C           7.8470   -1.3685   20.0658 C.ar    1  UNL1        0.0293
     39 C           8.3973   -2.7313   19.7660 C.ar    1  UNL1        0.1401
     40 F           9.5151   -2.8881   18.7781 F       1  UNL1       -0.2042
     41 C           7.8298   -3.9373   20.4540 C.ar    1  UNL1        0.0293
     42 C           6.7119   -3.7806   21.4419 C.ar    1  UNL1       -0.0020
@<TRIPOS>BOND
     1     1     2    1
     2     2     3    1
     3     3     4    1
     4     4     5    1
     5     4    10    1
     6    10    11   am
     7    11    12    2
     8    11    13   am
     9    13    16    1
    10    16    17   ar
    11    17    18   ar
    12    18    19   ar
    13    19    20   ar
    14    20    22    1
    15    22    23   ar
    16    23    24   ar
    17    24    25   ar
    18    25    26   ar
    19    26    27    1
    20    20    21   ar
    21     4     6    1
    22     6    28    1
    23    28    29    1
    24    29    30    1
    25    30    31    1
    26    31    32    1
    27    32    33    1
    28    33    35    1
    29    35    36    1
    30    36    37   ar
    31    37    38   ar
    32    38    39   ar
    33    39    40    1
    34    39    41   ar
    35    41    42   ar
    36    33    34    1
    37     6     7    1
    38     7     8    1
    39     8     9    2
    40     8     2   am
    41    21    16   ar
    42    34    29    1
    43    26    22   ar
    44    42    36   ar
    45    10    14    1
    46    13    15    1
