@<TRIPOS>MOLECULE
*****
 26 28 0 0 0
SMALL
GASTEIGER

@<TRIPOS>ATOM
      1 C          -9.6190  -18.9764   20.6798 C.ar    1  UNL1        0.3008
      2 N          -9.4298  -18.9942   19.1919 N.ar    1  UNL1       -0.1925
      3 C          -8.0619  -19.5388   18.9050 C.ar    1  UNL1        0.1241
      4 C          -7.4057  -19.8576   20.2156 C.ar    1  UNL1        0.1222
      5 N          -8.3680  -19.5100   21.3126 N.ar    1  UNL1       -0.2769
      6 C          -8.1225  -19.6682   22.7838 C.3     1  UNL1        0.1352
      7 C          -6.0289  -20.4244   20.3975 C.2     1  UNL1        0.2129
      8 O          -5.8186  -21.9092   20.3630 O.2     1  UNL1       -0.2850
      9 C          -4.8624  -19.5065   20.6139 C.ar    1  UNL1        0.0405
     10 C          -4.5189  -19.0439   21.9988 C.ar    1  UNL1        0.0041
     11 C          -3.3524  -18.1260   22.2152 C.ar    1  UNL1        0.0115
     12 C          -2.5295  -17.6707   21.0467 C.ar    1  UNL1        0.0577
     13 CL         -1.3631  -16.7528   21.2631 Cl      1  UNL1       -0.0822
     14 C          -2.8730  -18.1333   19.6618 C.ar    1  UNL1        0.0115
     15 C          -4.0395  -19.0512   19.4454 C.ar    1  UNL1        0.0041
     16 O         -10.8441  -18.5073   21.4072 O.3     1  UNL1       -0.4478
     17 C         -10.8726  -17.1405   22.0243 C.3     1  UNL1        0.2086
     18 N          -7.6499  -15.9081   24.9131 N.3     1  UNL1       -0.2740
     19 C          -7.5325  -15.5502   23.4612 C.3     1  UNL1        0.0722
     20 C          -8.6068  -15.9610   22.4983 C.3     1  UNL1        0.0211
     21 C          -9.7984  -16.7297   22.9872 C.3     1  UNL1        0.0466
     22 C          -9.9157  -17.0876   24.4391 C.3     1  UNL1        0.0211
     23 C          -8.8415  -16.6768   25.4021 C.3     1  UNL1        0.0722
     24 C          -5.1841  -15.2363   25.3806 C.3     1  UNL1        0.0173
     25 C          -6.5756  -15.4973   25.8760 C.3     1  UNL1        0.0576
     26 C          -6.8929  -15.3475   27.3344 C.3     1  UNL1        0.0173
@<TRIPOS>BOND
     1    24    25    1
     2    25    26    1
     3    25    18    1
     4    18    19    1
     5    19    20    1
     6    20    21    1
     7    21    17    1
     8    17    16    1
     9    16     1    1
    10     1     2   ar
    11     2     3   ar
    12     3     4   ar
    13     4     7    1
    14     7     8    2
    15     7     9    1
    16     9    10   ar
    17    10    11   ar
    18    11    12   ar
    19    12    13    1
    20    12    14   ar
    21    14    15   ar
    22     4     5   ar
    23     5     6    1
    24    21    22    1
    25    22    23    1
    26    23    18    1
    27     5     1   ar
    28    15     9   ar
@<TRIPOS>MOLECULE
*****
 26 28 0 0 0
SMALL
GASTEIGER

@<TRIPOS>ATOM
      1 C          -8.6871  -19.3886   20.4180 C.ar    1  UNL1        0.3008
      2 N          -9.6113  -18.4156   19.7478 N.ar    1  UNL1       -0.1925
      3 C         -10.4251  -17.7409   20.8120 C.ar    1  UNL1        0.1241
      4 C         -10.0038  -18.2968   22.1399 C.ar    1  UNL1        0.1222
      5 N          -8.9296  -19.3151   21.8965 N.ar    1  UNL1       -0.2769
      6 C          -8.2223  -20.1189   22.9469 C.3     1  UNL1        0.1352
      7 C         -10.5591  -17.9035   23.4767 C.2     1  UNL1        0.2129
      8 O         -11.9942  -18.1896   23.8062 O.2     1  UNL1       -0.2850
      9 C          -9.6793  -17.2241   24.4839 C.ar    1  UNL1        0.0405
     10 C          -8.9533  -15.9639   24.1166 C.ar    1  UNL1        0.0041
     11 C          -8.0735  -15.2845   25.1238 C.ar    1  UNL1        0.0115
     12 C          -7.9197  -15.8652   26.4982 C.ar    1  UNL1        0.0577
     13 CL         -7.0400  -15.1858   27.5053 Cl      1  UNL1       -0.0822
     14 C          -8.6457  -17.1254   26.8655 C.ar    1  UNL1        0.0115
     15 C          -9.5255  -17.8048   25.8583 C.ar    1  UNL1        0.0041
     16 O          -7.6946  -20.2786   19.7304 O.3     1  UNL1       -0.4478
     17 C          -6.4660  -20.7358   20.4595 C.3     1  UNL1        0.2086
     18 N          -2.9010  -18.0098   20.7907 N.3     1  UNL1       -0.2740
     19 C          -3.3392  -18.5117   19.4467 C.3     1  UNL1        0.0722
     20 C          -4.5275  -19.4203   19.3364 C.3     1  UNL1        0.0211
     21 C          -5.2777  -19.8272   20.5699 C.3     1  UNL1        0.0466
     22 C          -4.8395  -19.3253   21.9138 C.3     1  UNL1        0.0211
     23 C          -3.6512  -18.4167   22.0242 C.3     1  UNL1        0.0722
     24 C          -1.7761  -15.8867   21.7791 C.3     1  UNL1        0.0173
     25 C          -1.7126  -17.1012   20.9010 C.3     1  UNL1        0.0576
     26 C          -0.4608  -17.4070   20.1333 C.3     1  UNL1        0.0173
@<TRIPOS>BOND
     1    24    25    1
     2    25    26    1
     3    25    18    1
     4    18    19    1
     5    19    20    1
     6    20    21    1
     7    21    17    1
     8    17    16    1
     9    16     1    1
    10     1     2   ar
    11     2     3   ar
    12     3     4   ar
    13     4     7    1
    14     7     8    2
    15     7     9    1
    16     9    10   ar
    17    10    11   ar
    18    11    12   ar
    19    12    13    1
    20    12    14   ar
    21    14    15   ar
    22     4     5   ar
    23     5     6    1
    24    21    22    1
    25    22    23    1
    26    23    18    1
    27     5     1   ar
    28    15     9   ar
@<TRIPOS>MOLECULE
*****
 26 28 0 0 0
SMALL
GASTEIGER

@<TRIPOS>ATOM
      1 C          -7.3377  -19.6200   20.7851 C.ar    1  UNL1        0.3008
      2 N          -6.6409  -18.8317   21.8542 N.ar    1  UNL1       -0.1925
      3 C          -7.5790  -17.7606   22.3262 C.ar    1  UNL1        0.1241
      4 C          -8.8556  -17.8869   21.5488 C.ar    1  UNL1        0.1222
      5 N          -8.7065  -19.0361   20.5963 N.ar    1  UNL1       -0.2769
      6 C          -9.7439  -19.5170   19.6256 C.3     1  UNL1        0.1352
      7 C         -10.0684  -17.0169   21.6977 C.2     1  UNL1        0.2129
      8 O         -10.1792  -15.7439   20.9119 O.2     1  UNL1       -0.2850
      9 C         -11.1704  -17.4198   22.6322 C.ar    1  UNL1        0.0405
     10 C         -10.8885  -18.3685   23.7593 C.ar    1  UNL1        0.0041
     11 C         -11.9905  -18.7714   24.6939 C.ar    1  UNL1        0.0115
     12 C         -13.3743  -18.2255   24.5013 C.ar    1  UNL1        0.0577
     13 CL        -14.4762  -18.6284   25.4358 Cl      1  UNL1       -0.0822
     14 C         -13.6561  -17.2768   23.3742 C.ar    1  UNL1        0.0115
     15 C         -12.5542  -16.8739   22.4396 C.ar    1  UNL1        0.0041
     16 O          -6.7661  -20.7872   20.0363 O.3     1  UNL1       -0.4478
     17 C          -5.3452  -21.2062   20.2716 C.3     1  UNL1        0.2086
     18 N          -2.1081  -18.0979   20.6021 N.3     1  UNL1       -0.2740
     19 C          -2.3899  -19.0129   21.7567 C.3     1  UNL1        0.0722
     20 C          -3.4690  -20.0490   21.6466 C.3     1  UNL1        0.0211
     21 C          -4.2662  -20.1701   20.3818 C.3     1  UNL1        0.0466
     22 C          -3.9843  -19.2551   19.2271 C.3     1  UNL1        0.0211
     23 C          -2.9053  -18.2190   19.3373 C.3     1  UNL1        0.0722
     24 C          -1.2637  -15.8171   21.5158 C.3     1  UNL1        0.0173
     25 C          -1.0291  -17.0618   20.7122 C.3     1  UNL1        0.0576
     26 C           0.2846  -17.2703   20.0188 C.3     1  UNL1        0.0173
@<TRIPOS>BOND
     1    24    25    1
     2    25    26    1
     3    25    18    1
     4    18    19    1
     5    19    20    1
     6    20    21    1
     7    21    17    1
     8    17    16    1
     9    16     1    1
    10     1     2   ar
    11     2     3   ar
    12     3     4   ar
    13     4     7    1
    14     7     8    2
    15     7     9    1
    16     9    10   ar
    17    10    11   ar
    18    11    12   ar
    19    12    13    1
    20    12    14   ar
    21    14    15   ar
    22     4     5   ar
    23     5     6    1
    24    21    22    1
    25    22    23    1
    26    23    18    1
    27     5     1   ar
    28    15     9   ar
@<TRIPOS>MOLECULE
*****
 26 28 0 0 0
SMALL
GASTEIGER

@<TRIPOS>ATOM
      1 C          -7.4187  -15.6061   24.5914 C.ar    1  UNL1        0.3008
      2 N          -8.2047  -16.3204   25.6505 N.ar    1  UNL1       -0.1925
      3 C          -9.4321  -16.8956   25.0082 C.ar    1  UNL1        0.1241
      4 C          -9.4047  -16.5369   23.5520 C.ar    1  UNL1        0.1222
      5 N          -8.1603  -15.7399   23.2943 N.ar    1  UNL1       -0.2769
      6 C          -7.7326  -15.1758   21.9720 C.3     1  UNL1        0.1352
      7 C         -10.4398  -16.9096   22.5324 C.2     1  UNL1        0.2129
      8 O         -11.8147  -16.3148   22.6075 O.2     1  UNL1       -0.2850
      9 C         -10.1000  -17.8772   21.4377 C.ar    1  UNL1        0.0405
     10 C         -11.1084  -18.1881   20.3717 C.ar    1  UNL1        0.0041
     11 C         -10.7686  -19.1557   19.2771 C.ar    1  UNL1        0.0115
     12 C          -9.4203  -19.8125   19.2484 C.ar    1  UNL1        0.0577
     13 CL         -9.0805  -20.7800   18.1538 Cl      1  UNL1       -0.0822
     14 C          -8.4119  -19.5016   20.3144 C.ar    1  UNL1        0.0115
     15 C          -8.7517  -18.5340   21.4091 C.ar    1  UNL1        0.0041
     16 O          -6.1192  -14.8846   24.7936 O.3     1  UNL1       -0.4478
     17 C          -4.8307  -15.6522   24.8155 C.3     1  UNL1        0.2086
     18 N          -3.7196  -18.2828   21.3376 N.3     1  UNL1       -0.2740
     19 C          -2.8829  -17.0823   21.6673 C.3     1  UNL1        0.0722
     20 C          -3.2533  -16.2055   22.8266 C.3     1  UNL1        0.0211
     21 C          -4.4603  -16.5291   23.6562 C.3     1  UNL1        0.0466
     22 C          -5.2970  -17.7296   23.3265 C.3     1  UNL1        0.0211
     23 C          -4.9266  -18.6065   22.1672 C.3     1  UNL1        0.0722
     24 C          -3.9824  -20.5111   20.0278 C.3     1  UNL1        0.0173
     25 C          -3.3492  -19.1597   20.1783 C.3     1  UNL1        0.0576
     26 C          -2.3456  -18.6852   19.1696 C.3     1  UNL1        0.0173
@<TRIPOS>BOND
     1    24    25    1
     2    25    26    1
     3    25    18    1
     4    18    19    1
     5    19    20    1
     6    20    21    1
     7    21    17    1
     8    17    16    1
     9    16     1    1
    10     1     2   ar
    11     2     3   ar
    12     3     4   ar
    13     4     7    1
    14     7     8    2
    15     7     9    1
    16     9    10   ar
    17    10    11   ar
    18    11    12   ar
    19    12    13    1
    20    12    14   ar
    21    14    15   ar
    22     4     5   ar
    23     5     6    1
    24    21    22    1
    25    22    23    1
    26    23    18    1
    27     5     1   ar
    28    15     9   ar
@<TRIPOS>MOLECULE
*****
 26 28 0 0 0
SMALL
GASTEIGER

@<TRIPOS>ATOM
      1 C          -8.7393  -19.4617   21.4350 C.ar    1  UNL1        0.3008
      2 N          -8.1367  -19.8799   22.7434 N.ar    1  UNL1       -0.1925
      3 C          -6.7413  -20.3619   22.4781 C.ar    1  UNL1        0.1241
      4 C          -6.4814  -20.2417   21.0057 C.ar    1  UNL1        0.1222
      5 N          -7.7163  -19.6853   20.3609 N.ar    1  UNL1       -0.2769
      6 C          -7.8965  -19.4022   18.8990 C.3     1  UNL1        0.1352
      7 C          -5.2100  -20.6126   20.3016 C.2     1  UNL1        0.2129
      8 O          -5.1056  -21.9259   19.5843 O.2     1  UNL1       -0.2850
      9 C          -4.0429  -19.6704   20.3147 C.ar    1  UNL1        0.0405
     10 C          -3.8147  -18.7431   19.1580 C.ar    1  UNL1        0.0041
     11 C          -2.6476  -17.8008   19.1711 C.ar    1  UNL1        0.0115
     12 C          -1.7088  -17.7858   20.3409 C.ar    1  UNL1        0.0577
     13 CL         -0.5419  -16.8436   20.3540 Cl      1  UNL1       -0.0822
     14 C          -1.9371  -18.7132   21.4976 C.ar    1  UNL1        0.0115
     15 C          -3.1042  -19.6554   21.4845 C.ar    1  UNL1        0.0041
     16 O         -10.1221  -18.9158   21.2355 O.3     1  UNL1       -0.4478
     17 C         -10.5214  -17.6270   21.8909 C.3     1  UNL1        0.2086
     18 N          -8.0332  -15.9401   25.2395 N.3     1  UNL1       -0.2740
     19 C          -9.1051  -16.9468   25.5352 C.3     1  UNL1        0.0722
     20 C          -9.9346  -17.5090   24.4190 C.3     1  UNL1        0.0211
     21 C          -9.6920  -17.0647   23.0071 C.3     1  UNL1        0.0466
     22 C          -8.6200  -16.0580   22.7113 C.3     1  UNL1        0.0211
     23 C          -7.7906  -15.4958   23.8275 C.3     1  UNL1        0.0722
     24 C          -7.8314  -15.0980   27.6890 C.3     1  UNL1        0.0173
     25 C          -7.2038  -15.3779   26.3557 C.3     1  UNL1        0.0576
     26 C          -5.7467  -15.0955   26.1386 C.3     1  UNL1        0.0173
@<TRIPOS>BOND
     1    24    25    1
     2    25    26    1
     3    25    18    1
     4    18    19    1
     5    19    20    1
     6    20    21    1
     7    21    17    1
     8    17    16    1
     9    16     1    1
    10     1     2   ar
    11     2     3   ar
    12     3     4   ar
    13     4     7    1
    14     7     8    2
    15     7     9    1
    16     9    10   ar
    17    10    11   ar
    18    11    12   ar
    19    12    13    1
    20    12    14   ar
    21    14    15   ar
    22     4     5   ar
    23     5     6    1
    24    21    22    1
    25    22    23    1
    26    23    18    1
    27     5     1   ar
    28    15     9   ar
@<TRIPOS>MOLECULE
*****
 26 28 0 0 0
SMALL
GASTEIGER

@<TRIPOS>ATOM
      1 C          -5.5198  -15.8604   25.8810 C.ar    1  UNL1        0.3008
      2 N          -4.5525  -16.8183   26.5110 N.ar    1  UNL1       -0.1925
      3 C          -3.7718  -17.4779   25.4131 C.ar    1  UNL1        0.1241
      4 C          -4.2566  -16.9278   24.1045 C.ar    1  UNL1        0.1222
      5 N          -5.3369  -15.9281   24.3936 N.ar    1  UNL1       -0.2769
      6 C          -6.1002  -15.1353   23.3745 C.3     1  UNL1        0.1352
      7 C          -3.7500  -17.3102   22.7454 C.2     1  UNL1        0.2129
      8 O          -2.6048  -16.5593   22.1333 O.2     1  UNL1       -0.2850
      9 C          -4.3886  -18.4434   21.9984 C.ar    1  UNL1        0.0405
     10 C          -5.8167  -18.8116   22.2719 C.ar    1  UNL1        0.0041
     11 C          -6.4553  -19.9448   21.5249 C.ar    1  UNL1        0.0115
     12 C          -5.6658  -20.7099   20.5045 C.ar    1  UNL1        0.0577
     13 CL         -6.3044  -21.8431   19.7575 Cl      1  UNL1       -0.0822
     14 C          -4.2376  -20.3417   20.2310 C.ar    1  UNL1        0.0115
     15 C          -3.5990  -19.2085   20.9780 C.ar    1  UNL1        0.0041
     16 O          -6.4982  -14.9881   26.6102 O.3     1  UNL1       -0.4478
     17 C          -7.8360  -15.5347   27.0119 C.3     1  UNL1        0.2086
     18 N         -10.3273  -17.8038   24.0296 N.3     1  UNL1       -0.2740
     19 C          -9.8895  -18.4683   25.3011 C.3     1  UNL1        0.0722
     20 C          -9.0590  -17.7119   26.2952 C.3     1  UNL1        0.0211
     21 C          -8.6664  -16.2911   26.0178 C.3     1  UNL1        0.0466
     22 C          -9.1043  -15.6266   24.7464 C.3     1  UNL1        0.0211
     23 C          -9.9348  -16.3830   23.7523 C.3     1  UNL1        0.0722
     24 C         -10.8033  -19.9747   22.6840 C.3     1  UNL1        0.0173
     25 C         -11.1578  -18.5602   23.0355 C.3     1  UNL1        0.0576
     26 C         -12.3427  -17.9021   22.3930 C.3     1  UNL1        0.0173
@<TRIPOS>BOND
     1    24    25    1
     2    25    26    1
     3    25    18    1
     4    18    19    1
     5    19    20    1
     6    20    21    1
     7    21    17    1
     8    17    16    1
     9    16     1    1
    10     1     2   ar
    11     2     3   ar
    12     3     4   ar
    13     4     7    1
    14     7     8    2
    15     7     9    1
    16     9    10   ar
    17    10    11   ar
    18    11    12   ar
    19    12    13    1
    20    12    14   ar
    21    14    15   ar
    22     4     5   ar
    23     5     6    1
    24    21    22    1
    25    22    23    1
    26    23    18    1
    27     5     1   ar
    28    15     9   ar
@<TRIPOS>MOLECULE
*****
 26 28 0 0 0
SMALL
GASTEIGER

@<TRIPOS>ATOM
      1 C          -6.8505  -16.0145   23.3963 C.ar    1  UNL1        0.3008
      2 N          -7.2663  -14.8202   22.5896 N.ar    1  UNL1       -0.1925
      3 C          -8.4476  -15.2141   21.7533 C.ar    1  UNL1        0.1241
      4 C          -8.7619  -16.6519   22.0430 C.ar    1  UNL1        0.1222
      5 N          -7.7748  -17.1467   23.0584 N.ar    1  UNL1       -0.2769
      6 C          -7.7215  -18.5304   23.6348 C.3     1  UNL1        0.1352
      7 C          -9.8688  -17.4541   21.4257 C.2     1  UNL1        0.2129
      8 O          -9.7120  -18.0064   20.0399 O.2     1  UNL1       -0.2850
      9 C         -11.1325  -17.7041   22.1942 C.ar    1  UNL1        0.0405
     10 C         -11.0649  -18.2089   23.6051 C.ar    1  UNL1        0.0041
     11 C         -12.3286  -18.4589   24.3736 C.ar    1  UNL1        0.0115
     12 C         -13.6599  -18.2041   23.7312 C.ar    1  UNL1        0.0577
     13 CL        -14.9236  -18.4541   24.4996 Cl      1  UNL1       -0.0822
     14 C         -13.7275  -17.6993   22.3203 C.ar    1  UNL1        0.0115
     15 C         -12.4638  -17.4493   21.5518 C.ar    1  UNL1        0.0041
     16 O          -5.7106  -16.0676   24.3698 O.3     1  UNL1       -0.4478
     17 C          -4.7269  -17.1985   24.3120 C.3     1  UNL1        0.2086
     18 N          -2.0642  -17.6829   20.7168 N.3     1  UNL1       -0.2740
     19 C          -2.9304  -18.8215   21.1674 C.3     1  UNL1        0.0722
     20 C          -3.8180  -18.6600   22.3658 C.3     1  UNL1        0.0211
     21 C          -3.8393  -17.3599   23.1136 C.3     1  UNL1        0.0466
     22 C          -2.9730  -16.2213   22.6630 C.3     1  UNL1        0.0211
     23 C          -2.0855  -16.3828   21.4646 C.3     1  UNL1        0.0722
     24 C          -1.7707  -17.8564   18.1412 C.3     1  UNL1        0.0173
     25 C          -1.1766  -17.8444   19.5184 C.3     1  UNL1        0.0576
     26 C           0.3052  -17.9938   19.6973 C.3     1  UNL1        0.0173
@<TRIPOS>BOND
     1    24    25    1
     2    25    26    1
     3    25    18    1
     4    18    19    1
     5    19    20    1
     6    20    21    1
     7    21    17    1
     8    17    16    1
     9    16     1    1
    10     1     2   ar
    11     2     3   ar
    12     3     4   ar
    13     4     7    1
    14     7     8    2
    15     7     9    1
    16     9    10   ar
    17    10    11   ar
    18    11    12   ar
    19    12    13    1
    20    12    14   ar
    21    14    15   ar
    22     4     5   ar
    23     5     6    1
    24    21    22    1
    25    22    23    1
    26    23    18    1
    27     5     1   ar
    28    15     9   ar
@<TRIPOS>MOLECULE
*****
 26 28 0 0 0
SMALL
GASTEIGER

@<TRIPOS>ATOM
      1 C           5.7952   -3.9476   20.4268 C.ar    1  UNL1        0.3008
      2 N           4.6737   -4.8230   19.9514 N.ar    1  UNL1       -0.1925
      3 C           3.7967   -4.0047   19.0508 C.ar    1  UNL1        0.1241
      4 C           4.3761   -2.6235   18.9695 C.ar    1  UNL1        0.1222
      5 N           5.6113   -2.5882   19.8199 N.ar    1  UNL1       -0.2769
      6 C           6.5055   -1.4019   20.0270 C.3     1  UNL1        0.1352
      7 C           3.8184   -1.4786   18.1769 C.2     1  UNL1        0.2129
      8 O           4.3228   -1.2104   16.7900 O.2     1  UNL1       -0.2850
      9 C           2.7563   -0.6019   18.7714 C.ar    1  UNL1        0.0405
     10 C           2.4763    0.7460   18.1757 C.ar    1  UNL1        0.0041
     11 C           1.4142    1.6227   18.7701 C.ar    1  UNL1        0.0115
     12 C           0.6321    1.1516   19.9602 C.ar    1  UNL1        0.0577
     13 CL         -0.4299    2.0283   20.5546 Cl      1  UNL1       -0.0822
     14 C           0.9121   -0.1962   20.5559 C.ar    1  UNL1        0.0115
     15 C           1.9742   -1.0730   19.9615 C.ar    1  UNL1        0.0041
     16 O           6.9056   -4.3593   21.3473 O.3     1  UNL1       -0.4478
     17 C           6.9885   -3.7801   22.7285 C.3     1  UNL1        0.2086
     18 N           7.7718   -6.4672   26.2521 N.3     1  UNL1       -0.2740
     19 C           6.9187   -5.2445   26.4164 C.3     1  UNL1        0.0722
     20 C           6.6576   -4.3488   25.2418 C.3     1  UNL1        0.0211
     21 C           7.2496   -4.6758   23.9030 C.3     1  UNL1        0.0466
     22 C           8.1028   -5.8985   23.7387 C.3     1  UNL1        0.0211
     23 C           8.3639   -6.7942   24.9133 C.3     1  UNL1        0.0722
     24 C           8.1720   -8.8427   27.2250 C.3     1  UNL1        0.0173
     25 C           8.0330   -7.3629   27.4266 C.3     1  UNL1        0.0576
     26 C           8.1550   -6.7787   28.8028 C.3     1  UNL1        0.0173
@<TRIPOS>BOND
     1    24    25    1
     2    25    26    1
     3    25    18    1
     4    18    19    1
     5    19    20    1
     6    20    21    1
     7    21    17    1
     8    17    16    1
     9    16     1    1
    10     1     2   ar
    11     2     3   ar
    12     3     4   ar
    13     4     7    1
    14     7     8    2
    15     7     9    1
    16     9    10   ar
    17    10    11   ar
    18    11    12   ar
    19    12    13    1
    20    12    14   ar
    21    14    15   ar
    22     4     5   ar
    23     5     6    1
    24    21    22    1
    25    22    23    1
    26    23    18    1
    27     5     1   ar
    28    15     9   ar
@<TRIPOS>MOLECULE
*****
 26 28 0 0 0
SMALL
GASTEIGER

@<TRIPOS>ATOM
      1 C           6.3555   -3.3588   20.3178 C.ar    1  UNL1        0.3008
      2 N           7.0170   -2.0240   20.4930 N.ar    1  UNL1       -0.1925
      3 C           6.2397   -1.0139   19.7020 C.ar    1  UNL1        0.1241
      4 C           5.0978   -1.7245   19.0379 C.ar    1  UNL1        0.1222
      5 N           5.1692   -3.1737   19.4185 N.ar    1  UNL1       -0.2769
      6 C           4.2211   -4.2489   18.9772 C.3     1  UNL1        0.1352
      7 C           4.0655   -1.0962   18.1492 C.2     1  UNL1        0.2129
      8 O           4.1862   -1.2155   16.6589 O.2     1  UNL1       -0.2850
      9 C           2.9126   -0.3487   18.7509 C.ar    1  UNL1        0.0405
     10 C           2.0919   -0.9821   19.8350 C.ar    1  UNL1        0.0041
     11 C           0.9389   -0.2345   20.4366 C.ar    1  UNL1        0.0115
     12 C           0.6068    1.1464   19.9543 C.ar    1  UNL1        0.0577
     13 CL         -0.5460    1.8939   20.5560 Cl      1  UNL1       -0.0822
     14 C           1.4276    1.7798   18.8703 C.ar    1  UNL1        0.0115
     15 C           2.5805    1.0323   18.2686 C.ar    1  UNL1        0.0041
     16 O           6.8017   -4.6516   20.9338 O.3     1  UNL1       -0.4478
     17 C           8.0471   -4.6942   21.7687 C.3     1  UNL1        0.2086
     18 N           7.9800   -6.6715   25.8104 N.3     1  UNL1       -0.2740
     19 C           8.6716   -7.3404   24.6596 C.3     1  UNL1        0.0722
     20 C           8.6940   -6.6812   23.3124 C.3     1  UNL1        0.0211
     21 C           8.0247   -5.3533   23.1159 C.3     1  UNL1        0.0466
     22 C           7.3331   -4.6845   24.2667 C.3     1  UNL1        0.0211
     23 C           7.3107   -5.3436   25.6139 C.3     1  UNL1        0.0722
     24 C           8.1055   -8.8193   27.2668 C.3     1  UNL1        0.0173
     25 C           7.9576   -7.3307   27.1576 C.3     1  UNL1        0.0576
     26 C           7.7873   -6.5011   28.3957 C.3     1  UNL1        0.0173
@<TRIPOS>BOND
     1    24    25    1
     2    25    26    1
     3    25    18    1
     4    18    19    1
     5    19    20    1
     6    20    21    1
     7    21    17    1
     8    17    16    1
     9    16     1    1
    10     1     2   ar
    11     2     3   ar
    12     3     4   ar
    13     4     7    1
    14     7     8    2
    15     7     9    1
    16     9    10   ar
    17    10    11   ar
    18    11    12   ar
    19    12    13    1
    20    12    14   ar
    21    14    15   ar
    22     4     5   ar
    23     5     6    1
    24    21    22    1
    25    22    23    1
    26    23    18    1
    27     5     1   ar
    28    15     9   ar
