@<TRIPOS>MOLECULE
*****
 21 23 0 0 0
SMALL
GASTEIGER

@<TRIPOS>ATOM
      1 C          -8.5198  -18.7888   21.6891 C.2     1  UNL1        0.3689
      2 N          -9.1987  -19.0000   23.0098 N.2     1  UNL1       -0.0400
      3 C         -10.6513  -18.6611   23.1691 C.2     1  UNL1        0.1818
      4 C         -11.3302  -18.8723   24.4899 C.3     1  UNL1        0.1000
      5 C         -12.7827  -18.5334   24.6491 C.2     1  UNL1       -0.0174
      6 C         -13.5563  -17.9833   23.4877 C.2     1  UNL1       -0.0038
      7 C         -12.8773  -17.7721   22.1669 C.2     1  UNL1        0.0101
      8 C         -11.4248  -18.1110   22.0077 C.2     1  UNL1        0.1209
      9 C         -10.7458  -17.8998   20.6869 C.2     1  UNL1        0.3788
     10 O         -11.5194  -17.3497   19.5254 O.2     1  UNL1       -0.2376
     11 N          -9.2933  -18.2387   20.5276 N.am    1  UNL1        0.0364
     12 C          -4.1623  -19.8054   21.2112 C.ar    1  UNL1        0.1721
     13 C          -5.1796  -20.4146   20.2926 C.ar    1  UNL1        0.0403
     14 C          -6.6321  -20.0757   20.4519 C.ar    1  UNL1        0.0108
     15 C          -7.0672  -19.1277   21.5298 C.ar    1  UNL1        0.0896
     16 C          -6.0499  -18.5186   22.4484 C.ar    1  UNL1        0.0473
     17 C          -4.5974  -18.8574   22.2891 C.ar    1  UNL1        0.1680
     18 O          -3.5800  -18.2483   23.2078 O.3     1  UNL1       -0.5029
     19 H          -3.8518  -17.6561   23.8811 H       1  UNL1        0.2923
     20 C          -1.7757  -19.1602   20.4124 C.3     1  UNL1        0.2526
     21 O          -2.7097  -20.1443   21.0519 O.3     1  UNL1       -0.4684
@<TRIPOS>BOND
     1    20    21    1
     2    21    12    1
     3    12    13   ar
     4    13    14   ar
     5    14    15   ar
     6    15     1    1
     7     1     2    1
     8     2     3    2
     9     3     4    1
    10     4     5    1
    11     5     6    2
    12     6     7    1
    13     7     8    2
    14     8     9    1
    15     9    10    2
    16     9    11    1
    17    15    16   ar
    18    16    17   ar
    19    17    18    1
    20    17    12   ar
    21    11     1    2
    22     8     3    1
    23    18    19    1
@<TRIPOS>MOLECULE
*****
 21 23 0 0 0
SMALL
GASTEIGER

@<TRIPOS>ATOM
      1 C          -7.0782  -18.7697   21.9884 C.2     1  UNL1        0.3689
      2 N          -7.8583  -17.5541   21.5838 N.2     1  UNL1       -0.0400
      3 C          -9.3055  -17.4323   21.9592 C.2     1  UNL1        0.1818
      4 C         -10.0856  -16.2167   21.5546 C.3     1  UNL1        0.1000
      5 C         -11.5327  -16.0950   21.9301 C.2     1  UNL1       -0.0174
      6 C         -12.1997  -17.1888   22.7102 C.2     1  UNL1       -0.0038
      7 C         -11.4196  -18.4044   23.1148 C.2     1  UNL1        0.0101
      8 C          -9.9725  -18.5262   22.7393 C.2     1  UNL1        0.1209
      9 C          -9.1924  -19.7418   23.1439 C.2     1  UNL1        0.3788
     10 O          -9.8594  -20.8357   23.9240 O.2     1  UNL1       -0.2376
     11 N          -7.7453  -19.8636   22.7685 N.am    1  UNL1        0.0364
     12 C          -2.7368  -19.1351   20.8620 C.ar    1  UNL1        0.1721
     13 C          -3.7969  -19.6717   19.9465 C.ar    1  UNL1        0.0403
     14 C          -5.2440  -19.5499   20.3219 C.ar    1  UNL1        0.0108
     15 C          -5.6311  -18.8915   21.6129 C.ar    1  UNL1        0.0896
     16 C          -4.5710  -18.3549   22.5284 C.ar    1  UNL1        0.0473
     17 C          -3.1239  -18.4766   22.1530 C.ar    1  UNL1        0.1680
     18 O          -2.0638  -17.9400   23.0685 O.3     1  UNL1       -0.5029
     19 H          -2.3056  -17.5287   23.8750 H       1  UNL1        0.2923
     20 C          -0.5942  -18.1181   19.8014 C.3     1  UNL1        0.2526
     21 O          -1.2897  -19.2569   20.4865 O.3     1  UNL1       -0.4684
@<TRIPOS>BOND
     1    20    21    1
     2    21    12    1
     3    12    13   ar
     4    13    14   ar
     5    14    15   ar
     6    15     1    1
     7     1     2    1
     8     2     3    2
     9     3     4    1
    10     4     5    1
    11     5     6    2
    12     6     7    1
    13     7     8    2
    14     8     9    1
    15     9    10    2
    16     9    11    1
    17    15    16   ar
    18    16    17   ar
    19    17    18    1
    20    17    12   ar
    21    11     1    2
    22     8     3    1
    23    18    19    1
@<TRIPOS>MOLECULE
*****
 21 23 0 0 0
SMALL
GASTEIGER

@<TRIPOS>ATOM
      1 C          -7.4219  -18.8079   22.0173 C.2     1  UNL1        0.3689
      2 N          -6.3926  -17.9626   22.7071 N.2     1  UNL1       -0.0400
      3 C          -4.9330  -18.2240   22.4803 C.2     1  UNL1        0.1818
      4 C          -3.9037  -17.3786   23.1702 C.3     1  UNL1        0.1000
      5 C          -2.4442  -17.6400   22.9434 C.2     1  UNL1       -0.0174
      6 C          -2.0140  -18.7467   22.0268 C.2     1  UNL1       -0.0038
      7 C          -3.0433  -19.5920   21.3369 C.2     1  UNL1        0.0101
      8 C          -4.5028  -19.3306   21.5637 C.2     1  UNL1        0.1209
      9 C          -5.5322  -20.1760   20.8739 C.2     1  UNL1        0.3788
     10 O          -5.1020  -21.2826   19.9572 O.2     1  UNL1       -0.2376
     11 N          -6.9917  -19.9146   21.1006 N.am    1  UNL1        0.0364
     12 C         -11.8005  -18.0239   22.6975 C.ar    1  UNL1        0.1721
     13 C         -11.3003  -19.4331   22.5803 C.ar    1  UNL1        0.0403
     14 C          -9.8408  -19.6945   22.3535 C.ar    1  UNL1        0.0108
     15 C          -8.8815  -18.5466   22.2440 C.ar    1  UNL1        0.0896
     16 C          -9.3817  -17.1373   22.3613 C.ar    1  UNL1        0.0473
     17 C         -10.8413  -16.8760   22.5880 C.ar    1  UNL1        0.1680
     18 O         -11.3415  -15.4667   22.7052 O.3     1  UNL1       -0.5029
     19 H         -10.7422  -14.7496   22.6368 H       1  UNL1        0.2923
     20 C         -13.8808  -18.0770   24.2531 C.3     1  UNL1        0.2526
     21 O         -13.2601  -17.7625   22.9243 O.3     1  UNL1       -0.4684
@<TRIPOS>BOND
     1    20    21    1
     2    21    12    1
     3    12    13   ar
     4    13    14   ar
     5    14    15   ar
     6    15     1    1
     7     1     2    1
     8     2     3    2
     9     3     4    1
    10     4     5    1
    11     5     6    2
    12     6     7    1
    13     7     8    2
    14     8     9    1
    15     9    10    2
    16     9    11    1
    17    15    16   ar
    18    16    17   ar
    19    17    18    1
    20    17    12   ar
    21    11     1    2
    22     8     3    1
    23    18    19    1
@<TRIPOS>MOLECULE
*****
 21 23 0 0 0
SMALL
GASTEIGER

@<TRIPOS>ATOM
      1 C          -8.1216  -17.7357   22.4317 C.2     1  UNL1        0.3689
      2 N          -8.9917  -18.4696   23.4085 N.2     1  UNL1       -0.0400
      3 C         -10.4662  -18.1974   23.4512 C.2     1  UNL1        0.1818
      4 C         -11.3364  -18.9313   24.4280 C.3     1  UNL1        0.1000
      5 C         -12.8108  -18.6590   24.4708 C.2     1  UNL1       -0.0174
      6 C         -13.4151  -17.6529   23.5367 C.2     1  UNL1       -0.0038
      7 C         -12.5449  -16.9189   22.5599 C.2     1  UNL1        0.0101
      8 C         -11.0705  -17.1912   22.5172 C.2     1  UNL1        0.1209
      9 C         -10.2003  -16.4572   21.5404 C.2     1  UNL1        0.3788
     10 O         -10.8046  -15.4511   20.6063 O.2     1  UNL1       -0.2376
     11 N          -8.7258  -16.7295   21.4976 N.am    1  UNL1        0.0364
     12 C          -3.6982  -18.5524   22.3033 C.ar    1  UNL1        0.1721
     13 C          -4.2354  -17.4691   23.1909 C.ar    1  UNL1        0.0403
     14 C          -5.7098  -17.1969   23.2337 C.ar    1  UNL1        0.0108
     15 C          -6.6470  -18.0079   22.3889 C.ar    1  UNL1        0.0896
     16 C          -6.1098  -19.0912   21.5013 C.ar    1  UNL1        0.0473
     17 C          -4.6354  -19.3635   21.4585 C.ar    1  UNL1        0.1680
     18 O          -4.0982  -20.4468   20.5708 O.3     1  UNL1       -0.5029
     19 H          -4.6837  -20.9534   20.0431 H       1  UNL1        0.2923
     20 C          -1.4280  -18.4563   21.0435 C.3     1  UNL1        0.2526
     21 O          -2.2237  -18.8247   22.2605 O.3     1  UNL1       -0.4684
@<TRIPOS>BOND
     1    20    21    1
     2    21    12    1
     3    12    13   ar
     4    13    14   ar
     5    14    15   ar
     6    15     1    1
     7     1     2    1
     8     2     3    2
     9     3     4    1
    10     4     5    1
    11     5     6    2
    12     6     7    1
    13     7     8    2
    14     8     9    1
    15     9    10    2
    16     9    11    1
    17    15    16   ar
    18    16    17   ar
    19    17    18    1
    20    17    12   ar
    21    11     1    2
    22     8     3    1
    23    18    19    1
@<TRIPOS>MOLECULE
*****
 21 23 0 0 0
SMALL
GASTEIGER

@<TRIPOS>ATOM
      1 C          -7.6257  -18.3418   22.3252 C.2     1  UNL1        0.3689
      2 N          -7.0992  -19.4213   21.4266 N.2     1  UNL1       -0.0400
      3 C          -5.6231  -19.5474   21.1909 C.2     1  UNL1        0.1818
      4 C          -5.0967  -20.6269   20.2924 C.3     1  UNL1        0.1000
      5 C          -3.6207  -20.7530   20.0567 C.2     1  UNL1       -0.0174
      6 C          -2.6712  -19.7995   20.7196 C.2     1  UNL1       -0.0038
      7 C          -3.1977  -18.7200   21.6182 C.2     1  UNL1        0.0101
      8 C          -4.6736  -18.5940   21.8538 C.2     1  UNL1        0.1209
      9 C          -5.2002  -17.5144   22.7524 C.2     1  UNL1        0.3788
     10 O          -4.2507  -16.5610   23.4153 O.2     1  UNL1       -0.2376
     11 N          -6.6762  -17.3883   22.9881 N.am    1  UNL1        0.0364
     12 C         -12.0536  -17.9634   23.0323 C.ar    1  UNL1        0.1721
     13 C         -11.4028  -19.3146   23.0577 C.ar    1  UNL1        0.0403
     14 C          -9.9269  -19.4408   22.8220 C.ar    1  UNL1        0.0108
     15 C          -9.1017  -18.2157   22.5609 C.ar    1  UNL1        0.0896
     16 C          -9.7525  -16.8645   22.5355 C.ar    1  UNL1        0.0473
     17 C         -11.2284  -16.7383   22.7711 C.ar    1  UNL1        0.1680
     18 O         -11.8792  -15.3871   22.7457 O.3     1  UNL1       -0.5029
     19 H         -11.3638  -14.6218   22.5826 H       1  UNL1        0.2923
     20 C         -14.1164  -18.2472   24.5862 C.3     1  UNL1        0.2526
     21 O         -13.5296  -17.8373   23.2680 O.3     1  UNL1       -0.4684
@<TRIPOS>BOND
     1    20    21    1
     2    21    12    1
     3    12    13   ar
     4    13    14   ar
     5    14    15   ar
     6    15     1    1
     7     1     2    1
     8     2     3    2
     9     3     4    1
    10     4     5    1
    11     5     6    2
    12     6     7    1
    13     7     8    2
    14     8     9    1
    15     9    10    2
    16     9    11    1
    17    15    16   ar
    18    16    17   ar
    19    17    18    1
    20    17    12   ar
    21    11     1    2
    22     8     3    1
    23    18    19    1
@<TRIPOS>MOLECULE
*****
 21 23 0 0 0
SMALL
GASTEIGER

@<TRIPOS>ATOM
      1 C          -7.3324  -18.6878   21.6842 C.2     1  UNL1        0.3689
      2 N          -7.9819  -18.7621   23.0342 N.2     1  UNL1       -0.0400
      3 C          -9.4733  -18.6569   23.1559 C.2     1  UNL1        0.1818
      4 C         -10.1228  -18.7312   24.5059 C.3     1  UNL1        0.1000
      5 C         -11.6141  -18.6261   24.6275 C.2     1  UNL1       -0.0174
      6 C         -12.4560  -18.4466   23.3990 C.2     1  UNL1       -0.0038
      7 C         -11.8065  -18.3723   22.0490 C.2     1  UNL1        0.0101
      8 C         -10.3152  -18.4775   21.9274 C.2     1  UNL1        0.1209
      9 C          -9.6656  -18.4032   20.5773 C.2     1  UNL1        0.3788
     10 O         -10.5075  -18.2237   19.3489 O.2     1  UNL1       -0.2376
     11 N          -8.1743  -18.5083   20.4558 N.am    1  UNL1        0.0364
     12 C          -2.8584  -19.0033   21.3193 C.ar    1  UNL1        0.1721
     13 C          -3.4744  -18.5228   22.5998 C.ar    1  UNL1        0.0403
     14 C          -4.9657  -18.4176   22.7214 C.ar    1  UNL1        0.0108
     15 C          -5.8410  -18.7929   21.5626 C.ar    1  UNL1        0.0896
     16 C          -5.2250  -19.2734   20.2821 C.ar    1  UNL1        0.0473
     17 C          -3.7337  -19.3786   20.1605 C.ar    1  UNL1        0.1680
     18 O          -3.1177  -19.8591   18.8800 O.3     1  UNL1       -0.5029
     19 H          -3.6645  -20.0936   18.1561 H       1  UNL1        0.2923
     20 C          -0.6084  -18.1042   20.3815 C.3     1  UNL1        0.2526
     21 O          -1.3670  -19.1084   21.1976 O.3     1  UNL1       -0.4684
@<TRIPOS>BOND
     1    20    21    1
     2    21    12    1
     3    12    13   ar
     4    13    14   ar
     5    14    15   ar
     6    15     1    1
     7     1     2    1
     8     2     3    2
     9     3     4    1
    10     4     5    1
    11     5     6    2
    12     6     7    1
    13     7     8    2
    14     8     9    1
    15     9    10    2
    16     9    11    1
    17    15    16   ar
    18    16    17   ar
    19    17    18    1
    20    17    12   ar
    21    11     1    2
    22     8     3    1
    23    18    19    1
@<TRIPOS>MOLECULE
*****
 21 23 0 0 0
SMALL
GASTEIGER

@<TRIPOS>ATOM
      1 C          -5.0404  -16.7975   23.4207 C.2     1  UNL1        0.3689
      2 N          -4.9084  -16.2444   24.8087 N.2     1  UNL1       -0.0400
      3 C          -6.1340  -15.8509   25.5789 C.2     1  UNL1        0.1818
      4 C          -6.0021  -15.2978   26.9669 C.3     1  UNL1        0.1000
      5 C          -7.2276  -14.9043   27.7371 C.2     1  UNL1       -0.0174
      6 C          -8.5851  -15.0638   27.1192 C.2     1  UNL1       -0.0038
      7 C          -8.7170  -15.6169   25.7312 C.2     1  UNL1        0.0101
      8 C          -7.4915  -16.0104   24.9610 C.2     1  UNL1        0.1209
      9 C          -7.6234  -16.5635   23.5729 C.2     1  UNL1        0.3788
     10 O          -8.9809  -16.7230   22.9550 O.2     1  UNL1       -0.2376
     11 N          -6.3979  -16.9570   22.8028 N.am    1  UNL1        0.0364
     12 C          -1.3638  -17.9783   21.1101 C.ar    1  UNL1        0.1721
     13 C          -1.6424  -16.5307   21.3879 C.ar    1  UNL1        0.0403
     14 C          -2.8679  -16.1372   22.1580 C.ar    1  UNL1        0.0108
     15 C          -3.8148  -17.1911   22.6505 C.ar    1  UNL1        0.0896
     16 C          -3.5363  -18.6386   22.3727 C.ar    1  UNL1        0.0473
     17 C          -2.3108  -19.0322   21.6026 C.ar    1  UNL1        0.1680
     18 O          -2.0322  -20.4797   21.3248 O.3     1  UNL1       -0.5029
     19 H          -2.6237  -21.1380   21.6325 H       1  UNL1        0.2923
     20 C           0.9108  -17.3471   20.0249 C.3     1  UNL1        0.2526
     21 O          -0.1383  -18.3718   20.3399 O.3     1  UNL1       -0.4684
@<TRIPOS>BOND
     1    20    21    1
     2    21    12    1
     3    12    13   ar
     4    13    14   ar
     5    14    15   ar
     6    15     1    1
     7     1     2    1
     8     2     3    2
     9     3     4    1
    10     4     5    1
    11     5     6    2
    12     6     7    1
    13     7     8    2
    14     8     9    1
    15     9    10    2
    16     9    11    1
    17    15    16   ar
    18    16    17   ar
    19    17    18    1
    20    17    12   ar
    21    11     1    2
    22     8     3    1
    23    18    19    1
@<TRIPOS>MOLECULE
*****
 21 23 0 0 0
SMALL
GASTEIGER

@<TRIPOS>ATOM
      1 C          -7.2873  -17.9076   22.4097 C.2     1  UNL1        0.3689
      2 N          -8.4135  -18.4744   21.5970 N.2     1  UNL1       -0.0400
      3 C          -9.8266  -18.0592   21.8813 C.2     1  UNL1        0.1818
      4 C         -10.9527  -18.6259   21.0686 C.3     1  UNL1        0.1000
      5 C         -12.3658  -18.2107   21.3529 C.2     1  UNL1       -0.0174
      6 C         -12.6527  -17.2288   22.4500 C.2     1  UNL1       -0.0038
      7 C         -11.5265  -16.6621   23.2627 C.2     1  UNL1        0.0101
      8 C         -10.1135  -17.0773   22.9784 C.2     1  UNL1        0.1209
      9 C          -8.9872  -16.5106   23.7911 C.2     1  UNL1        0.3788
     10 O          -9.2741  -15.5287   24.8882 O.2     1  UNL1       -0.2376
     11 N          -7.5742  -16.9258   23.5068 N.am    1  UNL1        0.0364
     12 C          -3.0481  -19.1532   21.5567 C.ar    1  UNL1        0.1721
     13 C          -3.3386  -18.1999   22.6778 C.ar    1  UNL1        0.0403
     14 C          -4.7516  -17.7847   22.9621 C.ar    1  UNL1        0.0108
     15 C          -5.8742  -18.3228   22.1254 C.ar    1  UNL1        0.0896
     16 C          -5.5837  -19.2761   21.0042 C.ar    1  UNL1        0.0473
     17 C          -4.1707  -19.6913   20.7199 C.ar    1  UNL1        0.1680
     18 O          -3.8802  -20.6446   19.5988 O.3     1  UNL1       -0.5029
     19 H          -4.5815  -20.9807   19.0761 H       1  UNL1        0.2923
     20 C          -0.8054  -18.7867   20.2973 C.3     1  UNL1        0.2526
     21 O          -1.6350  -19.5684   21.2723 O.3     1  UNL1       -0.4684
@<TRIPOS>BOND
     1    20    21    1
     2    21    12    1
     3    12    13   ar
     4    13    14   ar
     5    14    15   ar
     6    15     1    1
     7     1     2    1
     8     2     3    2
     9     3     4    1
    10     4     5    1
    11     5     6    2
    12     6     7    1
    13     7     8    2
    14     8     9    1
    15     9    10    2
    16     9    11    1
    17    15    16   ar
    18    16    17   ar
    19    17    18    1
    20    17    12   ar
    21    11     1    2
    22     8     3    1
    23    18    19    1
@<TRIPOS>MOLECULE
*****
 21 23 0 0 0
SMALL
GASTEIGER

@<TRIPOS>ATOM
      1 C         -14.6851   -6.4123   19.3259 C.2     1  UNL1        0.3689
      2 N         -13.4005   -7.1056   18.9811 N.2     1  UNL1       -0.0400
      3 C         -12.1297   -6.3167   18.8666 C.2     1  UNL1        0.1818
      4 C         -10.8451   -7.0100   18.5218 C.3     1  UNL1        0.1000
      5 C          -9.5744   -6.2212   18.4073 C.2     1  UNL1       -0.0174
      6 C          -9.5885   -4.7390   18.6377 C.2     1  UNL1       -0.0038
      7 C         -10.8731   -4.0457   18.9825 C.2     1  UNL1        0.0101
      8 C         -12.1438   -4.8346   19.0970 C.2     1  UNL1        0.1209
      9 C         -13.4285   -4.1413   19.4418 C.2     1  UNL1        0.3788
     10 O         -13.4425   -2.6592   19.6722 O.2     1  UNL1       -0.2376
     11 N         -14.6992   -4.9302   19.5563 N.am    1  UNL1        0.0364
     12 C         -18.4971   -8.7789   19.6693 C.ar    1  UNL1        0.1721
     13 C         -18.5468   -7.2807   19.6142 C.ar    1  UNL1        0.0403
     14 C         -17.2762   -6.4918   19.4997 C.ar    1  UNL1        0.0108
     15 C         -15.9559   -7.2012   19.4404 C.ar    1  UNL1        0.0896
     16 C         -15.9062   -8.6993   19.4955 C.ar    1  UNL1        0.0473
     17 C         -17.1768   -9.4882   19.6100 C.ar    1  UNL1        0.1680
     18 O         -17.1271  -10.9863   19.6651 O.3     1  UNL1       -0.5029
     19 H         -16.3023  -11.4294   19.6281 H       1  UNL1        0.2923
     20 C         -20.4640  -10.0521   18.5466 C.3     1  UNL1        0.2526
     21 O         -19.7679   -9.5677   19.7838 O.3     1  UNL1       -0.4684
@<TRIPOS>BOND
     1    20    21    1
     2    21    12    1
     3    12    13   ar
     4    13    14   ar
     5    14    15   ar
     6    15     1    1
     7     1     2    1
     8     2     3    2
     9     3     4    1
    10     4     5    1
    11     5     6    2
    12     6     7    1
    13     7     8    2
    14     8     9    1
    15     9    10    2
    16     9    11    1
    17    15    16   ar
    18    16    17   ar
    19    17    18    1
    20    17    12   ar
    21    11     1    2
    22     8     3    1
    23    18    19    1
