@<TRIPOS>MOLECULE
*****
 42 43 0 0 0
SMALL
GASTEIGER

@<TRIPOS>ATOM
      1 O          -9.7638  -19.6755   22.4408 O.3     1  UNL1       -0.2926
      2 P          -9.6981  -20.4004   23.7523 P.3     1  UNL1        0.3697
      3 O          -8.2105  -20.5272   23.6077 O.2     1  UNL1       -0.2553
      4 O          -9.6324  -21.1252   25.0639 O.3     1  UNL1       -0.3218
      5 H          -8.7112  -21.3589   25.2584 H       1  UNL1        0.2198
      6 C         -11.1857  -20.2735   23.8970 C.3     1  UNL1        0.2579
      7 O         -11.7637  -19.2700   24.8504 O.3     1  UNL1       -0.3426
      8 C         -12.9639  -18.4628   24.4532 C.3     1  UNL1        0.1387
      9 C         -14.1722  -18.4286   25.3414 C.3     1  UNL1        0.0342
     10 C         -12.9560  -17.6897   23.1676 C.3     1  UNL1        0.1384
     11 N         -11.7547  -16.8746   22.7901 N.ar    1  UNL1       -0.2918
     12 C         -10.5995  -16.5395   23.6863 C.ar    1  UNL1        0.1798
     13 N          -9.6286  -15.7092   22.9002 N.ar    1  UNL1       -0.2195
     14 C         -10.1838  -15.5312   21.5181 C.ar    1  UNL1        0.1481
     15 C          -9.6626  -14.8064   20.3128 C.ar    1  UNL1        0.1480
     16 N          -8.3485  -14.0861   20.3808 N.pl3   1  UNL1       -0.3413
     17 N         -10.4553  -14.8018   19.0394 N.ar    1  UNL1       -0.2078
     18 C         -11.7693  -15.5220   18.9714 C.ar    1  UNL1        0.2015
     19 N         -12.2906  -16.2469   20.1767 N.ar    1  UNL1       -0.2048
     20 C         -11.4978  -16.2515   21.4501 C.ar    1  UNL1        0.1674
     21 H          -7.8282  -14.0892   21.2165 H       1  UNL1        0.1438
     22 H          -8.0064  -13.6104   19.5896 H       1  UNL1        0.1438
     23 C         -10.8182  -20.0359   21.4366 C.3     1  UNL1        0.1523
     24 C         -10.6663  -19.6138   20.0053 C.3     1  UNL1        0.0442
     25 C          -9.4304  -18.8869   19.5648 C.3     1  UNL1        0.0602
     26 S          -8.1324  -19.6268   19.4316 S.3     1  UNL1       -0.1402
     27 C          -6.9752  -19.2772   20.3196 C.3     1  UNL1        0.0576
     28 C          -6.0919  -20.3612   20.8623 C.3     1  UNL1        0.0116
     29 C          -4.7872  -20.6723   20.1906 C.3     1  UNL1        0.0009
     30 C          -3.8404  -19.5628   19.8408 C.3     1  UNL1        0.0000
     31 C          -2.4729  -19.5219   20.4555 C.3     1  UNL1        0.0000
     32 C          -1.5552  -18.3708   20.1678 C.3     1  UNL1        0.0000
     33 C          -2.0406  -16.9625   20.3443 C.3     1  UNL1        0.0000
     34 C          -2.2141  -16.3961   21.7223 C.3     1  UNL1        0.0000
     35 C          -2.4337  -17.3139   22.8883 C.3     1  UNL1        0.0000
     36 C          -3.8209  -17.7666   23.2357 C.3     1  UNL1        0.0000
     37 C          -4.5910  -17.0641   24.3142 C.3     1  UNL1        0.0000
     38 C          -5.5628  -15.9789   23.9564 C.3     1  UNL1        0.0000
     39 C          -6.0822  -15.0568   25.0193 C.3     1  UNL1        0.0000
     40 C          -5.9601  -15.4351   26.4657 C.3     1  UNL1        0.0000
     41 C          -8.3590  -15.1325   27.4166 C.3     1  UNL1        0.0000
     42 C          -7.1462  -15.9880   27.1990 C.3     1  UNL1        0.0000
@<TRIPOS>BOND
     1    41    42    1
     2    42    40    1
     3    40    39    1
     4    39    38    1
     5    38    37    1
     6    37    36    1
     7    36    35    1
     8    35    34    1
     9    34    33    1
    10    33    32    1
    11    32    31    1
    12    31    30    1
    13    30    29    1
    14    29    28    1
    15    28    27    1
    16    27    26    1
    17    26    25    1
    18    25    24    1
    19    24    23    1
    20    23     1    1
    21     1     2    1
    22     2     3    2
    23     2     4    1
    24     2     6    1
    25     6     7    1
    26     7     8    1
    27     8     9    1
    28     8    10    1
    29    10    11    1
    30    11    12   ar
    31    12    13   ar
    32    13    14   ar
    33    14    15   ar
    34    15    16    1
    35    15    17   ar
    36    17    18   ar
    37    18    19   ar
    38    19    20   ar
    39    20    11   ar
    40    20    14   ar
    41     4     5    1
    42    16    21    1
    43    16    22    1
@<TRIPOS>MOLECULE
*****
 42 43 0 0 0
SMALL
GASTEIGER

@<TRIPOS>ATOM
      1 O          -9.6227  -18.3883   19.8638 O.3     1  UNL1       -0.2926
      2 P          -9.2321  -19.6438   19.1418 P.3     1  UNL1        0.3697
      3 O         -10.6802  -19.9924   18.9647 O.2     1  UNL1       -0.2553
      4 O          -8.8415  -20.8992   18.4198 O.3     1  UNL1       -0.3218
      5 H          -9.6403  -21.3824   18.1563 H       1  UNL1        0.2198
      6 C          -7.7840  -19.2951   19.3189 C.3     1  UNL1        0.2579
      7 O          -7.3160  -18.6601   20.5947 O.3     1  UNL1       -0.3426
      8 C          -6.3071  -19.3610   21.4553 C.3     1  UNL1        0.1387
      9 C          -6.0592  -20.8295   21.2759 C.3     1  UNL1        0.0342
     10 C          -5.5459  -18.5935   22.4954 C.3     1  UNL1        0.1384
     11 N          -4.0782  -18.3407   22.3165 N.ar    1  UNL1       -0.2918
     12 C          -3.0819  -18.1162   23.4151 C.ar    1  UNL1        0.1798
     13 N          -1.7371  -17.9049   22.7852 N.ar    1  UNL1       -0.2195
     14 C          -1.9023  -17.9987   21.2972 C.ar    1  UNL1        0.1481
     15 C          -0.9222  -17.8737   20.1687 C.ar    1  UNL1        0.1480
     16 N           0.5247  -17.6043   20.4584 N.pl3   1  UNL1       -0.3413
     17 N          -1.3889  -18.0180   18.7506 N.ar    1  UNL1       -0.2078
     18 C          -2.8358  -18.2874   18.4609 C.ar    1  UNL1        0.2015
     19 N          -3.8160  -18.4125   19.5894 N.ar    1  UNL1       -0.2048
     20 C          -3.3492  -18.2681   21.0076 C.ar    1  UNL1        0.1674
     21 H           0.8311  -17.5095   21.3892 H       1  UNL1        0.1438
     22 H           1.1680  -17.5222   19.7176 H       1  UNL1        0.1438
     23 C         -11.0185  -17.8539   19.7377 C.3     1  UNL1        0.1523
     24 C         -11.2787  -16.3870   19.9123 C.3     1  UNL1        0.0442
     25 C         -12.3952  -15.9238   20.8004 C.3     1  UNL1        0.0602
     26 S         -12.3629  -16.2315   22.2682 S.3     1  UNL1       -0.1402
     27 C         -13.1436  -17.3927   22.8085 C.3     1  UNL1        0.0576
     28 C         -12.4320  -18.5208   23.4948 C.3     1  UNL1        0.0116
     29 C         -11.3951  -19.3136   22.7555 C.3     1  UNL1        0.0009
     30 C         -10.4222  -20.1672   23.5138 C.3     1  UNL1        0.0000
     31 C         -10.1804  -19.9140   24.9723 C.3     1  UNL1        0.0000
     32 C          -9.6185  -18.5980   25.4221 C.3     1  UNL1        0.0000
     33 C          -8.7088  -17.8221   24.5164 C.3     1  UNL1        0.0000
     34 C          -9.1713  -16.5256   23.9204 C.3     1  UNL1        0.0000
     35 C          -8.2533  -15.7381   23.0332 C.3     1  UNL1        0.0000
     36 C          -7.2287  -14.8239   23.6367 C.3     1  UNL1        0.0000
     37 C          -5.8087  -15.2835   23.7862 C.3     1  UNL1        0.0000
     38 C          -5.3231  -15.8012   25.1076 C.3     1  UNL1        0.0000
     39 C          -5.8141  -15.1813   26.3822 C.3     1  UNL1        0.0000
     40 C          -6.5233  -16.0232   27.4011 C.3     1  UNL1        0.0000
     41 C          -8.7626  -14.7470   27.7281 C.3     1  UNL1        0.0000
     42 C          -8.0222  -16.0239   27.4615 C.3     1  UNL1        0.0000
@<TRIPOS>BOND
     1    41    42    1
     2    42    40    1
     3    40    39    1
     4    39    38    1
     5    38    37    1
     6    37    36    1
     7    36    35    1
     8    35    34    1
     9    34    33    1
    10    33    32    1
    11    32    31    1
    12    31    30    1
    13    30    29    1
    14    29    28    1
    15    28    27    1
    16    27    26    1
    17    26    25    1
    18    25    24    1
    19    24    23    1
    20    23     1    1
    21     1     2    1
    22     2     3    2
    23     2     4    1
    24     2     6    1
    25     6     7    1
    26     7     8    1
    27     8     9    1
    28     8    10    1
    29    10    11    1
    30    11    12   ar
    31    12    13   ar
    32    13    14   ar
    33    14    15   ar
    34    15    16    1
    35    15    17   ar
    36    17    18   ar
    37    18    19   ar
    38    19    20   ar
    39    20    11   ar
    40    20    14   ar
    41     4     5    1
    42    16    21    1
    43    16    22    1
@<TRIPOS>MOLECULE
*****
 42 43 0 0 0
SMALL
GASTEIGER

@<TRIPOS>ATOM
      1 O          -9.4528  -17.9793   20.1371 O.3     1  UNL1       -0.2926
      2 P          -9.2624  -19.3409   19.5374 P.3     1  UNL1        0.3697
      3 O         -10.7368  -19.4327   19.2774 O.2     1  UNL1       -0.2553
      4 O          -9.0719  -20.7026   18.9378 O.3     1  UNL1       -0.3218
      5 H          -9.9297  -21.0521   18.6500 H       1  UNL1        0.2198
      6 C          -7.7879  -19.2492   19.7974 C.3     1  UNL1        0.2579
      7 O          -7.0703  -20.3890   20.4575 O.3     1  UNL1       -0.3426
      8 C          -6.6503  -20.2801   21.8934 C.3     1  UNL1        0.1387
      9 C          -7.5066  -20.8736   22.9725 C.3     1  UNL1        0.0342
     10 C          -5.3738  -19.5775   22.2502 C.3     1  UNL1        0.1384
     11 N          -4.2930  -19.4177   21.2223 N.ar    1  UNL1       -0.2918
     12 C          -4.0446  -20.3270   20.0555 C.ar    1  UNL1        0.1798
     13 N          -2.8691  -19.7918   19.2929 N.ar    1  UNL1       -0.2195
     14 C          -2.3909  -18.5517   19.9884 C.ar    1  UNL1        0.1481
     15 C          -1.2679  -17.6033   19.6899 C.ar    1  UNL1        0.1480
     16 N          -0.3878  -17.8344   18.4975 N.pl3   1  UNL1       -0.3413
     17 N          -1.0249  -16.4236   20.5840 N.ar    1  UNL1       -0.2078
     18 C          -1.9050  -16.1924   21.7765 C.ar    1  UNL1        0.2015
     19 N          -3.0281  -17.1409   22.0749 N.ar    1  UNL1       -0.2048
     20 C          -3.2710  -18.3206   21.1809 C.ar    1  UNL1        0.1674
     21 H          -0.5473  -18.6087   17.9107 H       1  UNL1        0.1438
     22 H           0.3493  -17.2119   18.3016 H       1  UNL1        0.1438
     23 C          -8.9840  -17.7030   21.5348 C.3     1  UNL1        0.1523
     24 C          -9.2616  -16.3727   22.1699 C.3     1  UNL1        0.0442
     25 C          -8.1694  -15.3501   22.2766 C.3     1  UNL1        0.0602
     26 S          -7.4066  -15.1985   23.5592 S.3     1  UNL1       -0.1402
     27 C          -5.9154  -15.3603   23.5687 C.3     1  UNL1        0.0576
     28 C          -5.2395  -16.0165   24.7359 C.3     1  UNL1        0.0116
     29 C          -5.0549  -15.2600   26.0181 C.3     1  UNL1        0.0009
     30 C          -6.2423  -14.9359   26.8753 C.3     1  UNL1        0.0000
     31 C          -7.0822  -16.0417   27.4426 C.3     1  UNL1        0.0000
     32 C          -8.5300  -16.1525   27.0664 C.3     1  UNL1        0.0000
     33 C          -9.1210  -17.4934   26.7458 C.3     1  UNL1        0.0000
     34 C          -9.4396  -17.8522   25.3246 C.3     1  UNL1        0.0000
     35 C          -9.9847  -19.2109   24.9982 C.3     1  UNL1        0.0000
     36 C         -11.2243  -19.3412   24.1637 C.3     1  UNL1        0.0000
     37 C         -12.4951  -18.6740   24.5992 C.3     1  UNL1        0.0000
     38 C         -13.3139  -17.9007   23.6085 C.3     1  UNL1        0.0000
     39 C         -12.6424  -16.9611   22.6513 C.3     1  UNL1        0.0000
     40 C         -12.7026  -17.2239   21.1757 C.3     1  UNL1        0.0000
     41 C         -11.6130  -15.7178   19.3606 C.3     1  UNL1        0.0000
     42 C         -12.7938  -16.0773   20.2128 C.3     1  UNL1        0.0000
@<TRIPOS>BOND
     1    41    42    1
     2    42    40    1
     3    40    39    1
     4    39    38    1
     5    38    37    1
     6    37    36    1
     7    36    35    1
     8    35    34    1
     9    34    33    1
    10    33    32    1
    11    32    31    1
    12    31    30    1
    13    30    29    1
    14    29    28    1
    15    28    27    1
    16    27    26    1
    17    26    25    1
    18    25    24    1
    19    24    23    1
    20    23     1    1
    21     1     2    1
    22     2     3    2
    23     2     4    1
    24     2     6    1
    25     6     7    1
    26     7     8    1
    27     8     9    1
    28     8    10    1
    29    10    11    1
    30    11    12   ar
    31    12    13   ar
    32    13    14   ar
    33    14    15   ar
    34    15    16    1
    35    15    17   ar
    36    17    18   ar
    37    18    19   ar
    38    19    20   ar
    39    20    11   ar
    40    20    14   ar
    41     4     5    1
    42    16    21    1
    43    16    22    1
@<TRIPOS>MOLECULE
*****
 42 43 0 0 0
SMALL
GASTEIGER

@<TRIPOS>ATOM
      1 O          -9.5189  -19.8679   19.6525 O.3     1  UNL1       -0.2926
      2 P         -10.8087  -19.3994   20.2584 P.3     1  UNL1        0.3697
      3 O         -10.7605  -20.5341   21.2382 O.2     1  UNL1       -0.2553
      4 O         -12.0984  -18.9309   20.8643 O.3     1  UNL1       -0.3218
      5 H         -12.3470  -19.5217   21.5923 H       1  UNL1        0.2198
      6 C         -10.8568  -18.2647   19.2785 C.3     1  UNL1        0.2579
      7 O         -11.6880  -17.0520   19.5755 O.3     1  UNL1       -0.3426
      8 C         -11.0328  -15.7103   19.7189 C.3     1  UNL1        0.1387
      9 C         -10.8850  -14.8162   18.5235 C.3     1  UNL1        0.0342
     10 C         -10.5254  -15.2626   21.0577 C.3     1  UNL1        0.1384
     11 N         -10.1582  -16.2783   22.0985 N.ar    1  UNL1       -0.2918
     12 C          -8.7658  -16.6718   22.4939 C.ar    1  UNL1        0.1798
     13 N          -8.8660  -17.7156   23.5665 N.ar    1  UNL1       -0.2195
     14 C         -10.3203  -17.9673   23.8340 C.ar    1  UNL1        0.1481
     15 C         -11.0206  -18.8905   24.7864 C.ar    1  UNL1        0.1480
     16 N         -10.2220  -19.7788   25.6937 N.pl3   1  UNL1       -0.3413
     17 N         -12.5195  -18.9254   24.8316 N.ar    1  UNL1       -0.2078
     18 C         -13.3181  -18.0372   23.9244 C.ar    1  UNL1        0.2015
     19 N         -12.6179  -17.1139   22.9719 N.ar    1  UNL1       -0.2048
     20 C         -11.1190  -17.0790   22.9267 C.ar    1  UNL1        0.1674
     21 H          -9.2382  -19.7559   25.6640 H       1  UNL1        0.1438
     22 H         -10.6816  -20.3848   26.3188 H       1  UNL1        0.1438
     23 C          -8.2181  -19.2745   20.1059 C.3     1  UNL1        0.1523
     24 C          -7.5900  -19.7350   21.3879 C.3     1  UNL1        0.0442
     25 C          -6.2386  -20.3855   21.3697 C.3     1  UNL1        0.0602
     26 S          -5.6223  -20.7980   20.0659 S.3     1  UNL1       -0.1402
     27 C          -4.1406  -21.0112   19.9708 C.3     1  UNL1        0.0576
     28 C          -3.1987  -19.8960   20.3158 C.3     1  UNL1        0.0116
     29 C          -3.1080  -18.6895   19.4291 C.3     1  UNL1        0.0009
     30 C          -1.7709  -18.0825   19.1230 C.3     1  UNL1        0.0000
     31 C          -0.9025  -17.5797   20.2379 C.3     1  UNL1        0.0000
     32 C          -1.2774  -16.3281   20.9747 C.3     1  UNL1        0.0000
     33 C          -2.3237  -16.3748   22.0485 C.3     1  UNL1        0.0000
     34 C          -2.4364  -17.5804   22.9339 C.3     1  UNL1        0.0000
     35 C          -3.7725  -17.9866   23.4815 C.3     1  UNL1        0.0000
     36 C          -4.9869  -17.1563   23.1888 C.3     1  UNL1        0.0000
     37 C          -5.2826  -15.9417   24.0178 C.3     1  UNL1        0.0000
     38 C          -4.9999  -15.9521   25.4908 C.3     1  UNL1        0.0000
     39 C          -5.8553  -15.1480   26.4245 C.3     1  UNL1        0.0000
     40 C          -6.7622  -15.8425   27.3966 C.3     1  UNL1        0.0000
     41 C          -8.8246  -15.2472   25.9329 C.3     1  UNL1        0.0000
     42 C          -8.2204  -15.9994   27.0814 C.3     1  UNL1        0.0000
@<TRIPOS>BOND
     1    41    42    1
     2    42    40    1
     3    40    39    1
     4    39    38    1
     5    38    37    1
     6    37    36    1
     7    36    35    1
     8    35    34    1
     9    34    33    1
    10    33    32    1
    11    32    31    1
    12    31    30    1
    13    30    29    1
    14    29    28    1
    15    28    27    1
    16    27    26    1
    17    26    25    1
    18    25    24    1
    19    24    23    1
    20    23     1    1
    21     1     2    1
    22     2     3    2
    23     2     4    1
    24     2     6    1
    25     6     7    1
    26     7     8    1
    27     8     9    1
    28     8    10    1
    29    10    11    1
    30    11    12   ar
    31    12    13   ar
    32    13    14   ar
    33    14    15   ar
    34    15    16    1
    35    15    17   ar
    36    17    18   ar
    37    18    19   ar
    38    19    20   ar
    39    20    11   ar
    40    20    14   ar
    41     4     5    1
    42    16    21    1
    43    16    22    1
@<TRIPOS>MOLECULE
*****
 42 43 0 0 0
SMALL
GASTEIGER

@<TRIPOS>ATOM
      1 O          -8.7253  -17.8126   20.1938 O.3     1  UNL1       -0.2926
      2 P          -9.5423  -18.9150   19.5880 P.3     1  UNL1        0.3697
      3 O         -10.6807  -17.9596   19.3846 O.2     1  UNL1       -0.2553
      4 O         -10.3594  -20.0175   18.9823 O.3     1  UNL1       -0.3218
      5 H         -11.2296  -19.6727   18.7277 H       1  UNL1        0.2198
      6 C          -8.4040  -19.8705   19.7915 C.3     1  UNL1        0.2579
      7 O          -6.9903  -19.3699   19.7621 O.3     1  UNL1       -0.3426
      8 C          -5.9668  -19.9586   20.6872 C.3     1  UNL1        0.1387
      9 C          -5.5001  -21.3703   20.4886 C.3     1  UNL1        0.0342
     10 C          -5.4100  -19.1357   21.8110 C.3     1  UNL1        0.1384
     11 N          -3.9565  -18.7654   21.8208 N.ar    1  UNL1       -0.2918
     12 C          -3.0988  -18.5928   23.0392 C.ar    1  UNL1        0.1798
     13 N          -1.7177  -18.2235   22.5852 N.ar    1  UNL1       -0.2195
     14 C          -1.7218  -18.1677   21.0862 C.ar    1  UNL1        0.1481
     15 C          -0.6444  -17.8552   20.0905 C.ar    1  UNL1        0.1480
     16 N           0.7393  -17.5203   20.5630 N.pl3   1  UNL1       -0.3413
     17 N          -0.9507  -17.8777   18.6223 N.ar    1  UNL1       -0.2078
     18 C          -2.3344  -18.2126   18.1499 C.ar    1  UNL1        0.2015
     19 N          -3.4118  -18.5251   19.1456 N.ar    1  UNL1       -0.2048
     20 C          -3.1055  -18.5026   20.6138 C.ar    1  UNL1        0.1674
     21 H           0.9403  -17.5055   21.5266 H       1  UNL1        0.1438
     22 H           1.4464  -17.3152   19.9094 H       1  UNL1        0.1438
     23 C          -8.7873  -17.5575   21.6706 C.3     1  UNL1        0.1523
     24 C          -8.9008  -16.1531   22.1851 C.3     1  UNL1        0.0442
     25 C          -7.7372  -15.5139   22.8833 C.3     1  UNL1        0.0602
     26 S          -6.6653  -16.3691   23.4911 S.3     1  UNL1       -0.1402
     27 C          -5.4160  -15.7366   24.0289 C.3     1  UNL1        0.0576
     28 C          -5.1526  -15.7336   25.5056 C.3     1  UNL1        0.0116
     29 C          -5.9329  -14.8210   26.4048 C.3     1  UNL1        0.0009
     30 C          -6.6142  -15.3708   27.6228 C.3     1  UNL1        0.0000
     31 C          -8.0926  -15.6237   27.6055 C.3     1  UNL1        0.0000
     32 C          -8.7452  -16.1724   26.3714 C.3     1  UNL1        0.0000
     33 C          -9.2218  -17.5944   26.3442 C.3     1  UNL1        0.0000
     34 C          -9.7698  -18.1776   25.0754 C.3     1  UNL1        0.0000
     35 C          -9.7697  -19.6636   24.8717 C.3     1  UNL1        0.0000
     36 C         -10.8501  -20.3088   24.0553 C.3     1  UNL1        0.0000
     37 C         -11.0031  -19.9603   22.6044 C.3     1  UNL1        0.0000
     38 C         -12.1915  -19.1690   22.1444 C.3     1  UNL1        0.0000
     39 C         -12.2959  -17.7103   22.4777 C.3     1  UNL1        0.0000
     40 C         -13.2382  -17.2518   23.5510 C.3     1  UNL1        0.0000
     41 C         -14.1895  -18.4751   25.6364 C.3     1  UNL1        0.0000
     42 C         -14.2107  -18.2189   24.1586 C.3     1  UNL1        0.0000
@<TRIPOS>BOND
     1    41    42    1
     2    42    40    1
     3    40    39    1
     4    39    38    1
     5    38    37    1
     6    37    36    1
     7    36    35    1
     8    35    34    1
     9    34    33    1
    10    33    32    1
    11    32    31    1
    12    31    30    1
    13    30    29    1
    14    29    28    1
    15    28    27    1
    16    27    26    1
    17    26    25    1
    18    25    24    1
    19    24    23    1
    20    23     1    1
    21     1     2    1
    22     2     3    2
    23     2     4    1
    24     2     6    1
    25     6     7    1
    26     7     8    1
    27     8     9    1
    28     8    10    1
    29    10    11    1
    30    11    12   ar
    31    12    13   ar
    32    13    14   ar
    33    14    15   ar
    34    15    16    1
    35    15    17   ar
    36    17    18   ar
    37    18    19   ar
    38    19    20   ar
    39    20    11   ar
    40    20    14   ar
    41     4     5    1
    42    16    21    1
    43    16    22    1
@<TRIPOS>MOLECULE
*****
 42 43 0 0 0
SMALL
GASTEIGER

@<TRIPOS>ATOM
      1 O         -10.7725  -19.7358   24.9398 O.3     1  UNL1       -0.2926
      2 P          -9.6016  -20.3178   24.2047 P.3     1  UNL1        0.3697
      3 O          -9.6124  -21.5021   25.1252 O.2     1  UNL1       -0.2553
      4 O          -8.4307  -20.8997   23.4697 O.3     1  UNL1       -0.3218
      5 H          -8.1849  -21.7472   23.8725 H       1  UNL1        0.2198
      6 C          -9.5908  -19.1334   23.2843 C.3     1  UNL1        0.2579
      7 O          -8.3974  -18.8704   22.4144 O.3     1  UNL1       -0.3426
      8 C          -7.8482  -17.4797   22.2950 C.3     1  UNL1        0.1387
      9 C          -8.7021  -16.3818   21.7334 C.3     1  UNL1        0.0342
     10 C          -6.4450  -17.1869   22.7372 C.3     1  UNL1        0.1384
     11 N          -6.2012  -16.2853   23.9109 N.ar    1  UNL1       -0.2918
     12 C          -5.0670  -15.3147   24.0565 C.ar    1  UNL1        0.1798
     13 N          -5.2137  -14.6256   25.3807 N.ar    1  UNL1       -0.2195
     14 C          -6.4387  -15.1703   26.0536 C.ar    1  UNL1        0.1481
     15 C          -7.0772  -14.8648   27.3760 C.ar    1  UNL1        0.1480
     16 N          -6.4669  -13.8390   28.2844 N.pl3   1  UNL1       -0.3413
     17 N          -8.3260  -15.5852   27.7901 N.ar    1  UNL1       -0.2078
     18 C          -8.9364  -16.6110   26.8817 C.ar    1  UNL1        0.2015
     19 N          -8.2979  -16.9165   25.5592 N.ar    1  UNL1       -0.2048
     20 C          -7.0490  -16.1962   25.1452 C.ar    1  UNL1        0.1674
     21 H          -5.6472  -13.3662   28.0127 H       1  UNL1        0.1438
     22 H          -6.8860  -13.6385   29.1524 H       1  UNL1        0.1438
     23 C         -11.3603  -18.4282   24.4987 C.3     1  UNL1        0.1523
     24 C         -12.8314  -18.3211   24.2258 C.3     1  UNL1        0.0442
     25 C         -13.3222  -17.4975   23.0723 C.3     1  UNL1        0.0602
     26 S         -13.0375  -17.9325   21.6653 S.3     1  UNL1       -0.1402
     27 C         -12.1758  -17.0842   20.7777 C.3     1  UNL1        0.0576
     28 C         -11.1362  -17.7251   19.9068 C.3     1  UNL1        0.0116
     29 C         -10.7867  -19.1716   20.0966 C.3     1  UNL1        0.0009
     30 C          -9.9438  -19.8795   19.0776 C.3     1  UNL1        0.0000
     31 C          -8.4628  -19.6456   19.0361 C.3     1  UNL1        0.0000
     32 C          -7.5250  -20.6745   19.5945 C.3     1  UNL1        0.0000
     33 C          -6.2381  -20.2470   20.2356 C.3     1  UNL1        0.0000
     34 C          -5.5065  -19.0436   19.7193 C.3     1  UNL1        0.0000
     35 C          -4.0067  -19.0254   19.7077 C.3     1  UNL1        0.0000
     36 C          -3.2382  -20.0097   20.5388 C.3     1  UNL1        0.0000
     37 C          -3.1627  -19.8371   22.0269 C.3     1  UNL1        0.0000
     38 C          -3.2620  -18.4668   22.6290 C.3     1  UNL1        0.0000
     39 C          -2.0813  -17.5425   22.5887 C.3     1  UNL1        0.0000
     40 C          -2.0194  -16.4491   21.5636 C.3     1  UNL1        0.0000
     41 C          -0.3704  -17.8701   20.1452 C.3     1  UNL1        0.0000
     42 C          -1.1372  -16.5989   20.3596 C.3     1  UNL1        0.0000
@<TRIPOS>BOND
     1    41    42    1
     2    42    40    1
     3    40    39    1
     4    39    38    1
     5    38    37    1
     6    37    36    1
     7    36    35    1
     8    35    34    1
     9    34    33    1
    10    33    32    1
    11    32    31    1
    12    31    30    1
    13    30    29    1
    14    29    28    1
    15    28    27    1
    16    27    26    1
    17    26    25    1
    18    25    24    1
    19    24    23    1
    20    23     1    1
    21     1     2    1
    22     2     3    2
    23     2     4    1
    24     2     6    1
    25     6     7    1
    26     7     8    1
    27     8     9    1
    28     8    10    1
    29    10    11    1
    30    11    12   ar
    31    12    13   ar
    32    13    14   ar
    33    14    15   ar
    34    15    16    1
    35    15    17   ar
    36    17    18   ar
    37    18    19   ar
    38    19    20   ar
    39    20    11   ar
    40    20    14   ar
    41     4     5    1
    42    16    21    1
    43    16    22    1
@<TRIPOS>MOLECULE
*****
 42 43 0 0 0
SMALL
GASTEIGER

@<TRIPOS>ATOM
      1 O          -8.8541  -20.0326   21.8497 O.3     1  UNL1       -0.2926
      2 P          -9.7076  -19.7080   20.6596 P.3     1  UNL1        0.3697
      3 O         -10.9352  -20.0726   21.4407 O.2     1  UNL1       -0.2553
      4 O         -10.5611  -19.3835   19.4696 O.3     1  UNL1       -0.3218
      5 H         -11.4936  -19.5358   19.6893 H       1  UNL1        0.2198
      6 C          -8.4800  -19.3434   19.8786 C.3     1  UNL1        0.2579
      7 O          -7.3802  -18.5605   20.5323 O.3     1  UNL1       -0.3426
      8 C          -6.1867  -19.2720   21.0974 C.3     1  UNL1        0.1387
      9 C          -5.7425  -20.5773   20.5067 C.3     1  UNL1        0.0342
     10 C          -5.4373  -18.6781   22.2532 C.3     1  UNL1        0.1384
     11 N          -3.9589  -18.4464   22.1490 N.ar    1  UNL1       -0.2918
     12 C          -2.9890  -18.4125   23.2928 C.ar    1  UNL1        0.1798
     13 N          -1.6216  -18.1530   22.7334 N.ar    1  UNL1       -0.2195
     14 C          -1.7465  -18.0265   21.2439 C.ar    1  UNL1        0.1481
     15 C          -0.7314  -17.7697   20.1699 C.ar    1  UNL1        0.1480
     16 N           0.7132  -17.5884   20.5310 N.pl3   1  UNL1       -0.3413
     17 N          -1.1609  -17.6942   18.7347 N.ar    1  UNL1       -0.2078
     18 C          -2.6054  -17.8755   18.3736 C.ar    1  UNL1        0.2015
     19 N          -3.6205  -18.1323   19.4476 N.ar    1  UNL1       -0.2048
     20 C          -3.1910  -18.2078   20.8828 C.ar    1  UNL1        0.1674
     21 H           0.9950  -17.6380   21.4730 H       1  UNL1        0.1438
     22 H           1.3794  -17.4198   19.8261 H       1  UNL1        0.1438
     23 C          -9.3756  -19.7907   23.2351 C.3     1  UNL1        0.1523
     24 C          -9.5789  -18.3878   23.7257 C.3     1  UNL1        0.0442
     25 C          -9.8681  -18.1349   25.1756 C.3     1  UNL1        0.0602
     26 S          -8.8158  -17.5278   26.0555 S.3     1  UNL1       -0.1402
     27 C          -8.9531  -16.1078   26.5187 C.3     1  UNL1        0.0576
     28 C          -7.8174  -15.4395   27.2354 C.3     1  UNL1        0.0116
     29 C          -6.4105  -15.9109   27.0153 C.3     1  UNL1        0.0009
     30 C          -5.4297  -15.0338   26.2949 C.3     1  UNL1        0.0000
     31 C          -5.1596  -15.2516   24.8357 C.3     1  UNL1        0.0000
     32 C          -6.1842  -15.9313   23.9765 C.3     1  UNL1        0.0000
     33 C          -7.3472  -15.1521   23.4377 C.3     1  UNL1        0.0000
     34 C          -8.3665  -15.8294   22.5704 C.3     1  UNL1        0.0000
     35 C          -8.8141  -15.1818   21.2936 C.3     1  UNL1        0.0000
     36 C         -10.1771  -15.4764   20.7409 C.3     1  UNL1        0.0000
     37 C         -11.2569  -15.9939   21.6442 C.3     1  UNL1        0.0000
     38 C         -12.4840  -16.6281   21.0594 C.3     1  UNL1        0.0000
     39 C         -13.0790  -17.8450   21.7036 C.3     1  UNL1        0.0000
     40 C         -12.8982  -18.0795   23.1741 C.3     1  UNL1        0.0000
     41 C         -14.1302  -18.4915   25.4242 C.3     1  UNL1        0.0000
     42 C         -14.0062  -17.7456   24.1287 C.3     1  UNL1        0.0000
@<TRIPOS>BOND
     1    41    42    1
     2    42    40    1
     3    40    39    1
     4    39    38    1
     5    38    37    1
     6    37    36    1
     7    36    35    1
     8    35    34    1
     9    34    33    1
    10    33    32    1
    11    32    31    1
    12    31    30    1
    13    30    29    1
    14    29    28    1
    15    28    27    1
    16    27    26    1
    17    26    25    1
    18    25    24    1
    19    24    23    1
    20    23     1    1
    21     1     2    1
    22     2     3    2
    23     2     4    1
    24     2     6    1
    25     6     7    1
    26     7     8    1
    27     8     9    1
    28     8    10    1
    29    10    11    1
    30    11    12   ar
    31    12    13   ar
    32    13    14   ar
    33    14    15   ar
    34    15    16    1
    35    15    17   ar
    36    17    18   ar
    37    18    19   ar
    38    19    20   ar
    39    20    11   ar
    40    20    14   ar
    41     4     5    1
    42    16    21    1
    43    16    22    1
@<TRIPOS>MOLECULE
*****
 42 43 0 0 0
SMALL
GASTEIGER

@<TRIPOS>ATOM
      1 O          -9.6847  -18.5943   25.0482 O.3     1  UNL1       -0.2926
      2 P         -10.0693  -19.7365   24.1552 P.3     1  UNL1        0.3697
      3 O         -11.0495  -20.2124   25.1861 O.2     1  UNL1       -0.2553
      4 O         -10.4539  -20.8787   23.2622 O.3     1  UNL1       -0.3218
      5 H         -11.1344  -21.4151   23.6983 H       1  UNL1        0.2198
      6 C          -9.0891  -19.2605   23.1243 C.3     1  UNL1        0.2579
      7 O          -7.9095  -20.1128   22.7611 O.3     1  UNL1       -0.3426
      8 C          -6.8051  -19.5456   21.9193 C.3     1  UNL1        0.1387
      9 C          -7.1257  -18.6028   20.7976 C.3     1  UNL1        0.0342
     10 C          -5.3800  -19.9211   22.1994 C.3     1  UNL1        0.1384
     11 N          -4.3214  -19.6700   21.1668 N.ar    1  UNL1       -0.2918
     12 C          -4.0528  -20.5139   19.9562 C.ar    1  UNL1        0.1798
     13 N          -2.9109  -19.8962   19.2047 N.ar    1  UNL1       -0.2195
     14 C          -2.4739  -18.6706   19.9509 C.ar    1  UNL1        0.1481
     15 C          -1.3948  -17.6638   19.6828 C.ar    1  UNL1        0.1480
     16 N          -0.5231  -17.8036   18.4702 N.pl3   1  UNL1       -0.3413
     17 N          -1.1875  -16.5172   20.6274 N.ar    1  UNL1       -0.2078
     18 C          -2.0592  -16.3773   21.8400 C.ar    1  UNL1        0.2015
     19 N          -3.1383  -17.3841   22.1081 N.ar    1  UNL1       -0.2048
     20 C          -3.3457  -18.5307   21.1635 C.ar    1  UNL1        0.1674
     21 H          -0.6592  -18.5562   17.8502 H       1  UNL1        0.1438
     22 H           0.1852  -17.1428   18.2942 H       1  UNL1        0.1438
     23 C          -9.6973  -17.1910   24.5185 C.3     1  UNL1        0.1523
     24 C          -9.1935  -16.0634   25.3698 C.3     1  UNL1        0.0442
     25 C          -8.5918  -16.3493   26.7138 C.3     1  UNL1        0.0602
     26 S          -7.8057  -15.2878   27.4247 S.3     1  UNL1       -0.1402
     27 C          -6.3097  -15.3775   27.4870 C.3     1  UNL1        0.0576
     28 C          -5.4802  -14.8817   26.3399 C.3     1  UNL1        0.0116
     29 C          -5.1507  -15.8001   25.2004 C.3     1  UNL1        0.0009
     30 C          -5.4593  -15.3880   23.7916 C.3     1  UNL1        0.0000
     31 C          -6.7077  -15.8813   23.1222 C.3     1  UNL1        0.0000
     32 C          -7.3152  -15.0975   21.9968 C.3     1  UNL1        0.0000
     33 C          -8.8036  -14.9286   21.9182 C.3     1  UNL1        0.0000
     34 C          -9.6402  -15.9629   21.2253 C.3     1  UNL1        0.0000
     35 C         -11.1329  -15.9409   21.3711 C.3     1  UNL1        0.0000
     36 C         -11.9750  -16.9250   20.6145 C.3     1  UNL1        0.0000
     37 C         -12.1549  -18.3183   21.1400 C.3     1  UNL1        0.0000
     38 C         -11.4501  -19.4659   20.4794 C.3     1  UNL1        0.0000
     39 C         -10.5340  -19.2153   19.3184 C.3     1  UNL1        0.0000
     40 C          -9.3381  -20.0948   19.1032 C.3     1  UNL1        0.0000
     41 C          -8.5999  -22.2185   17.8011 C.3     1  UNL1        0.0000
     42 C          -9.1730  -20.8323   17.8074 C.3     1  UNL1        0.0000
@<TRIPOS>BOND
     1    41    42    1
     2    42    40    1
     3    40    39    1
     4    39    38    1
     5    38    37    1
     6    37    36    1
     7    36    35    1
     8    35    34    1
     9    34    33    1
    10    33    32    1
    11    32    31    1
    12    31    30    1
    13    30    29    1
    14    29    28    1
    15    28    27    1
    16    27    26    1
    17    26    25    1
    18    25    24    1
    19    24    23    1
    20    23     1    1
    21     1     2    1
    22     2     3    2
    23     2     4    1
    24     2     6    1
    25     6     7    1
    26     7     8    1
    27     8     9    1
    28     8    10    1
    29    10    11    1
    30    11    12   ar
    31    12    13   ar
    32    13    14   ar
    33    14    15   ar
    34    15    16    1
    35    15    17   ar
    36    17    18   ar
    37    18    19   ar
    38    19    20   ar
    39    20    11   ar
    40    20    14   ar
    41     4     5    1
    42    16    21    1
    43    16    22    1
@<TRIPOS>MOLECULE
*****
 42 43 0 0 0
SMALL
GASTEIGER

@<TRIPOS>ATOM
      1 O          -9.6962  -18.5304   25.0249 O.3     1  UNL1       -0.2926
      2 P         -10.1404  -19.6148   24.0885 P.3     1  UNL1        0.3697
      3 O         -11.2111  -20.0149   25.0598 O.2     1  UNL1       -0.2553
      4 O         -10.5847  -20.6991   23.1522 O.3     1  UNL1       -0.3218
      5 H         -11.3332  -21.1768   23.5425 H       1  UNL1        0.2198
      6 C          -9.0697  -19.2147   23.1172 C.3     1  UNL1        0.2579
      7 O          -7.9278  -20.1452   22.8344 O.3     1  UNL1       -0.3426
      8 C          -6.8592  -19.7469   21.8600 C.3     1  UNL1        0.1387
      9 C          -7.2113  -18.9256   20.6552 C.3     1  UNL1        0.0342
     10 C          -5.4386  -20.1698   22.0903 C.3     1  UNL1        0.1384
     11 N          -4.3847  -19.8435   21.0740 N.ar    1  UNL1       -0.2918
     12 C          -4.0879  -20.6262   19.8293 C.ar    1  UNL1        0.1798
     13 N          -2.9624  -19.9437   19.1100 N.ar    1  UNL1       -0.2195
     14 C          -2.5636  -18.7392   19.9101 C.ar    1  UNL1        0.1481
     15 C          -1.5136  -17.6909   19.6902 C.ar    1  UNL1        0.1480
     16 N          -0.6346  -17.7528   18.4763 N.pl3   1  UNL1       -0.3413
     17 N          -1.3427  -16.5806   20.6842 N.ar    1  UNL1       -0.2078
     18 C          -2.2217  -16.5187   21.8980 C.ar    1  UNL1        0.2015
     19 N          -3.2717  -17.5671   22.1179 N.ar    1  UNL1       -0.2048
     20 C          -3.4427  -18.6773   21.1240 C.ar    1  UNL1        0.1674
     21 H          -0.7468  -18.4815   17.8240 H       1  UNL1        0.1438
     22 H           0.0545  -17.0647   18.3320 H       1  UNL1        0.1438
     23 C          -9.5707  -17.1191   24.5326 C.3     1  UNL1        0.1523
     24 C          -9.1095  -16.0379   25.4643 C.3     1  UNL1        0.0442
     25 C          -8.5551  -16.3950   26.8116 C.3     1  UNL1        0.0602
     26 S          -8.0585  -15.3164   27.7281 S.3     1  UNL1       -0.1402
     27 C          -6.5912  -15.0147   27.8057 C.3     1  UNL1        0.0576
     28 C          -5.8223  -14.7040   26.5558 C.3     1  UNL1        0.0116
     29 C          -5.1178  -15.8025   25.8160 C.3     1  UNL1        0.0009
     30 C          -5.0697  -15.7862   24.3169 C.3     1  UNL1        0.0000
     31 C          -6.2638  -16.2267   23.5232 C.3     1  UNL1        0.0000
     32 C          -6.7052  -15.4333   22.3293 C.3     1  UNL1        0.0000
     33 C          -8.1507  -15.0678   22.1643 C.3     1  UNL1        0.0000
     34 C          -9.0265  -15.8680   21.2463 C.3     1  UNL1        0.0000
     35 C         -10.4680  -15.4931   21.0693 C.3     1  UNL1        0.0000
     36 C         -11.2340  -15.9980   19.8826 C.3     1  UNL1        0.0000
     37 C         -11.6008  -17.4494   19.7889 C.3     1  UNL1        0.0000
     38 C         -11.8831  -18.2337   21.0359 C.3     1  UNL1        0.0000
     39 C         -12.2199  -17.5192   22.3111 C.3     1  UNL1        0.0000
     40 C         -13.6139  -17.5836   22.8612 C.3     1  UNL1        0.0000
     41 C         -15.1508  -18.5713   24.7086 C.3     1  UNL1        0.0000
     42 C         -13.8385  -17.9764   24.2914 C.3     1  UNL1        0.0000
@<TRIPOS>BOND
     1    41    42    1
     2    42    40    1
     3    40    39    1
     4    39    38    1
     5    38    37    1
     6    37    36    1
     7    36    35    1
     8    35    34    1
     9    34    33    1
    10    33    32    1
    11    32    31    1
    12    31    30    1
    13    30    29    1
    14    29    28    1
    15    28    27    1
    16    27    26    1
    17    26    25    1
    18    25    24    1
    19    24    23    1
    20    23     1    1
    21     1     2    1
    22     2     3    2
    23     2     4    1
    24     2     6    1
    25     6     7    1
    26     7     8    1
    27     8     9    1
    28     8    10    1
    29    10    11    1
    30    11    12   ar
    31    12    13   ar
    32    13    14   ar
    33    14    15   ar
    34    15    16    1
    35    15    17   ar
    36    17    18   ar
    37    18    19   ar
    38    19    20   ar
    39    20    11   ar
    40    20    14   ar
    41     4     5    1
    42    16    21    1
    43    16    22    1
