@<TRIPOS>MOLECULE
*****
 29 32 0 0 0
SMALL
GASTEIGER

@<TRIPOS>ATOM
      1 C           6.3297   -2.4150   31.6954 C.ar    1  UNL1        0.0636
      2 C           6.1596   -1.7334   30.3700 C.ar    1  UNL1        0.0168
      3 C           6.2892   -2.5205   29.0998 C.ar    1  UNL1        0.0183
      4 C           6.5888   -3.9892   29.1549 C.ar    1  UNL1        0.0785
      5 C           6.7589   -4.6708   30.4802 C.ar    1  UNL1        0.1547
      6 F           7.0585   -6.1396   30.5352 F       1  UNL1       -0.2028
      7 C           6.6293   -3.8837   31.7505 C.ar    1  UNL1        0.0462
      8 C           4.2647    1.1176   38.3947 C.3     1  UNL1        0.0310
      9 C           5.0766    0.6915   37.2076 C.ar    1  UNL1       -0.0217
     10 C           6.4760    1.2026   37.0335 C.ar    1  UNL1       -0.0041
     11 C           7.2879    0.7765   35.8464 C.ar    1  UNL1        0.0044
     12 C           6.7004   -0.1608   34.8334 C.ar    1  UNL1        0.0587
     13 C           5.3010   -0.6720   35.0074 C.ar    1  UNL1        0.0584
     14 C           4.4891   -0.2458   36.1945 C.ar    1  UNL1        0.0004
     15 C           4.9917   -1.5786   33.8531 C.2     1  UNL1        0.2589
     16 O           3.7008   -2.3080   33.6261 O.2     1  UNL1       -0.2691
     17 N           6.2001   -1.6278   32.9657 N.am    1  UNL1       -0.2010
     18 C           7.2561   -0.7515   33.5715 C.2     1  UNL1        0.2589
     19 O           8.6270   -0.5086   33.0135 O.2     1  UNL1       -0.2691
     20 N           6.7184   -4.7764   27.8846 N.am    1  UNL1       -0.2761
     21 C           8.0664   -4.9676   27.2549 C.2     1  UNL1        0.2840
     22 O           9.2848   -4.3715   27.8956 O.2     1  UNL1       -0.2665
     23 H           5.9188   -5.1676   27.4641 H       1  UNL1        0.1553
     24 C           8.1960   -5.7547   25.9847 C.ar    1  UNL1        0.1948
     25 O           8.3700   -5.1847   24.6082 O.2     1  UNL1       -0.4461
     26 C           8.4560   -6.3278   23.6407 C.ar    1  UNL1        0.1795
     27 C           8.3351   -7.6042   24.4193 C.ar    1  UNL1        0.0396
     28 C           8.1745   -7.2499   25.8680 C.ar    1  UNL1        0.0204
     29 C           8.0194   -8.2206   27.0010 C.3     1  UNL1        0.0345
@<TRIPOS>BOND
     1     8     9    1
     2     9    10   ar
     3    10    11   ar
     4    11    12   ar
     5    12    13   ar
     6    13    14   ar
     7    13    15    1
     8    15    16    2
     9    15    17   am
    10    17     1    1
    11     1     2   ar
    12     2     3   ar
    13     3     4   ar
    14     4    20    1
    15    20    21   am
    16    21    22    2
    17    21    24    1
    18    24    25   ar
    19    25    26   ar
    20    26    27   ar
    21    27    28   ar
    22    28    29    1
    23     4     5   ar
    24     5     6    1
    25     5     7   ar
    26    17    18   am
    27    18    19    2
    28    14     9   ar
    29     7     1   ar
    30    18    12    1
    31    28    24   ar
    32    20    23    1
@<TRIPOS>MOLECULE
*****
 29 32 0 0 0
SMALL
GASTEIGER

@<TRIPOS>ATOM
      1 C           6.3640   -2.4246   31.6183 C.ar    1  UNL1        0.0636
      2 C           6.1765   -1.7239   30.3054 C.ar    1  UNL1        0.0168
      3 C           6.2985   -2.4906   29.0219 C.ar    1  UNL1        0.0183
      4 C           6.6079   -3.9580   29.0515 C.ar    1  UNL1        0.0785
      5 C           6.7954   -4.6587   30.3644 C.ar    1  UNL1        0.1547
      6 F           7.1048   -6.1262   30.3939 F       1  UNL1       -0.2028
      7 C           6.6734   -3.8920   31.6479 C.ar    1  UNL1        0.0462
      8 C           7.1359    2.0274   38.0376 C.3     1  UNL1        0.0310
      9 C           6.5422    1.1068   37.0130 C.ar    1  UNL1       -0.0217
     10 C           5.1435    0.5936   37.1866 C.ar    1  UNL1       -0.0041
     11 C           4.5498   -0.3270   36.1619 C.ar    1  UNL1        0.0044
     12 C           5.3548   -0.7345   34.9636 C.ar    1  UNL1        0.0587
     13 C           6.7535   -0.2213   34.7900 C.ar    1  UNL1        0.0584
     14 C           7.3472    0.6993   35.8147 C.ar    1  UNL1        0.0004
     15 C           7.3019   -0.7919   33.5157 C.2     1  UNL1        0.2589
     16 O           8.6699   -0.5408   32.9540 O.2     1  UNL1       -0.2691
     17 N           6.2420   -1.6578   32.9018 N.am    1  UNL1       -0.2010
     18 C           5.0387   -1.6223   33.7966 C.2     1  UNL1        0.2589
     19 O           3.7461   -2.3473   33.5652 O.2     1  UNL1       -0.2691
     20 N           6.7299   -4.7248   27.7680 N.am    1  UNL1       -0.2761
     21 C           8.0802   -4.9516   27.1553 C.2     1  UNL1        0.2840
     22 O           9.3084   -4.4116   27.8261 O.2     1  UNL1       -0.2665
     23 H           5.9238   -5.0792   27.3278 H       1  UNL1        0.1553
     24 C           8.2022   -5.7183   25.8719 C.ar    1  UNL1        0.1948
     25 O           8.4447   -5.1304   24.5134 O.2     1  UNL1       -0.4461
     26 C           8.4955   -6.2564   23.5235 C.ar    1  UNL1        0.1795
     27 C           8.2845   -7.5400   24.2703 C.ar    1  UNL1        0.0396
     28 C           8.1032   -7.2074   25.7217 C.ar    1  UNL1        0.0204
     29 C           7.8647   -8.1913   26.8285 C.3     1  UNL1        0.0345
@<TRIPOS>BOND
     1     8     9    1
     2     9    10   ar
     3    10    11   ar
     4    11    12   ar
     5    12    13   ar
     6    13    14   ar
     7    13    15    1
     8    15    16    2
     9    15    17   am
    10    17     1    1
    11     1     2   ar
    12     2     3   ar
    13     3     4   ar
    14     4    20    1
    15    20    21   am
    16    21    22    2
    17    21    24    1
    18    24    25   ar
    19    25    26   ar
    20    26    27   ar
    21    27    28   ar
    22    28    29    1
    23     4     5   ar
    24     5     6    1
    25     5     7   ar
    26    17    18   am
    27    18    19    2
    28    14     9   ar
    29     7     1   ar
    30    18    12    1
    31    28    24   ar
    32    20    23    1
@<TRIPOS>MOLECULE
*****
 29 32 0 0 0
SMALL
GASTEIGER

@<TRIPOS>ATOM
      1 C          -0.1135    2.1067   23.7058 C.ar    1  UNL1        0.0636
      2 C          -0.6276    3.3182   22.9859 C.ar    1  UNL1        0.0168
      3 C          -1.5654    4.2611   23.6797 C.ar    1  UNL1        0.0183
      4 C          -1.9891    3.9926   25.0933 C.ar    1  UNL1        0.0785
      5 C          -1.4751    2.7812   25.8131 C.ar    1  UNL1        0.1547
      6 F          -1.8989    2.5127   27.2268 F       1  UNL1       -0.2028
      7 C          -0.5373    1.8382   25.1194 C.ar    1  UNL1        0.0462
      8 C           3.8420   -2.6919   18.9151 C.3     1  UNL1        0.0310
      9 C           3.4609   -1.8979   20.1293 C.ar    1  UNL1       -0.0217
     10 C           4.3228   -1.9432   21.3560 C.ar    1  UNL1       -0.0041
     11 C           3.9417   -1.1492   22.5702 C.ar    1  UNL1        0.0044
     12 C           2.6985   -0.3099   22.5577 C.ar    1  UNL1        0.0587
     13 C           1.8365   -0.2647   21.3310 C.ar    1  UNL1        0.0584
     14 C           2.2177   -1.0587   20.1168 C.ar    1  UNL1        0.0004
     15 C           0.6782    0.6461   21.6117 C.2     1  UNL1        0.2589
     16 O          -0.4314    0.9805   20.6594 O.2     1  UNL1       -0.2691
     17 N           0.8243    1.1637   23.0119 N.am    1  UNL1       -0.2010
     18 C           2.0729    0.5729   23.5966 C.2     1  UNL1        0.2589
     19 O           2.6030    0.8212   24.9777 O.2     1  UNL1       -0.2691
     20 N          -2.9270    4.9356   25.7871 N.am    1  UNL1       -0.2761
     21 C          -4.3757    4.5771   25.9376 C.2     1  UNL1        0.2840
     22 O          -4.8866    3.2756   25.3942 O.2     1  UNL1       -0.2665
     23 H          -2.5916    5.7898   26.1438 H       1  UNL1        0.1553
     24 C          -5.3135    5.5200   26.6314 C.ar    1  UNL1        0.1948
     25 O          -5.0898    6.1606   27.9691 O.2     1  UNL1       -0.4461
     26 C          -6.2778    7.0244   28.2738 C.ar    1  UNL1        0.1795
     27 C          -7.2355    6.9176   27.1243 C.ar    1  UNL1        0.0396
     28 C          -6.6395    5.9878   26.1093 C.ar    1  UNL1        0.0204
     29 C          -7.2606    5.5949   24.8017 C.3     1  UNL1        0.0345
@<TRIPOS>BOND
     1     8     9    1
     2     9    10   ar
     3    10    11   ar
     4    11    12   ar
     5    12    13   ar
     6    13    14   ar
     7    13    15    1
     8    15    16    2
     9    15    17   am
    10    17     1    1
    11     1     2   ar
    12     2     3   ar
    13     3     4   ar
    14     4    20    1
    15    20    21   am
    16    21    22    2
    17    21    24    1
    18    24    25   ar
    19    25    26   ar
    20    26    27   ar
    21    27    28   ar
    22    28    29    1
    23     4     5   ar
    24     5     6    1
    25     5     7   ar
    26    17    18   am
    27    18    19    2
    28    14     9   ar
    29     7     1   ar
    30    18    12    1
    31    28    24   ar
    32    20    23    1
@<TRIPOS>MOLECULE
*****
 29 32 0 0 0
SMALL
GASTEIGER

@<TRIPOS>ATOM
      1 C           4.7018   -1.2600   25.9063 C.ar    1  UNL1        0.0636
      2 C           6.0614   -0.7927   26.3343 C.ar    1  UNL1        0.0168
      3 C           6.2974   -0.3728   27.7549 C.ar    1  UNL1        0.0183
      4 C           5.1738   -0.4204   28.7474 C.ar    1  UNL1        0.0785
      5 C           3.8142   -0.8877   28.3195 C.ar    1  UNL1        0.1547
      6 F           2.6906   -0.9353   29.3121 F       1  UNL1       -0.2028
      7 C           3.5782   -1.3076   26.8989 C.ar    1  UNL1        0.0462
      8 C           4.3915   -4.5985   18.8083 C.3     1  UNL1        0.0310
      9 C           4.1450   -3.6439   19.9388 C.ar    1  UNL1       -0.0217
     10 C           3.2432   -2.4620   19.7393 C.ar    1  UNL1       -0.0041
     11 C           2.9967   -1.5075   20.8699 C.ar    1  UNL1        0.0044
     12 C           3.6519   -1.7349   22.1999 C.ar    1  UNL1        0.0587
     13 C           4.5536   -2.9168   22.3993 C.ar    1  UNL1        0.0584
     14 C           4.8002   -3.8713   21.2688 C.ar    1  UNL1        0.0004
     15 C           5.0567   -2.8828   23.8121 C.2     1  UNL1        0.2589
     16 O           5.9873   -3.8772   24.4408 O.2     1  UNL1       -0.2691
     17 N           4.4659   -1.6799   24.4857 N.am    1  UNL1       -0.2010
     18 C           3.5976   -0.9704   23.4893 C.2     1  UNL1        0.2589
     19 O           2.8129    0.2834   23.7385 O.2     1  UNL1       -0.2691
     20 N           5.4097   -0.0005   30.1681 N.am    1  UNL1       -0.2761
     21 C           5.9040   -0.9986   31.1728 C.2     1  UNL1        0.2840
     22 O           6.1624   -2.4165   30.7570 O.2     1  UNL1       -0.2665
     23 H           5.2401    0.9301   30.4410 H       1  UNL1        0.1553
     24 C           6.1400   -0.5788   32.5934 C.ar    1  UNL1        0.1948
     25 O           7.1570    0.4201   33.0602 O.2     1  UNL1       -0.4461
     26 C           7.0459    0.5320   34.5519 C.ar    1  UNL1        0.1795
     27 C           5.9603   -0.3977   35.0070 C.ar    1  UNL1        0.0396
     28 C           5.4004   -1.0842   33.7965 C.ar    1  UNL1        0.0204
     29 C           4.2951   -2.0981   33.7903 C.3     1  UNL1        0.0345
@<TRIPOS>BOND
     1     8     9    1
     2     9    10   ar
     3    10    11   ar
     4    11    12   ar
     5    12    13   ar
     6    13    14   ar
     7    13    15    1
     8    15    16    2
     9    15    17   am
    10    17     1    1
    11     1     2   ar
    12     2     3   ar
    13     3     4   ar
    14     4    20    1
    15    20    21   am
    16    21    22    2
    17    21    24    1
    18    24    25   ar
    19    25    26   ar
    20    26    27   ar
    21    27    28   ar
    22    28    29    1
    23     4     5   ar
    24     5     6    1
    25     5     7   ar
    26    17    18   am
    27    18    19    2
    28    14     9   ar
    29     7     1   ar
    30    18    12    1
    31    28    24   ar
    32    20    23    1
@<TRIPOS>MOLECULE
*****
 29 32 0 0 0
SMALL
GASTEIGER

@<TRIPOS>ATOM
      1 C           6.0457   -2.5130   32.1598 C.ar    1  UNL1        0.0636
      2 C           4.6869   -2.7244   32.7588 C.ar    1  UNL1        0.0168
      3 C           4.2721   -1.9446   33.9712 C.ar    1  UNL1        0.0183
      4 C           5.2161   -0.9533   34.5844 C.ar    1  UNL1        0.0785
      5 C           6.5750   -0.7419   33.9854 C.ar    1  UNL1        0.1547
      6 F           7.5190    0.2495   34.5987 F       1  UNL1       -0.2028
      7 C           6.9898   -1.5217   32.7730 C.ar    1  UNL1        0.0462
      8 C           8.2849   -7.7600   26.7673 C.3     1  UNL1        0.0310
      9 C           7.8714   -6.4641   27.3995 C.ar    1  UNL1       -0.0217
     10 C           7.7628   -5.2231   26.5641 C.ar    1  UNL1       -0.0041
     11 C           7.3493   -3.9272   27.1964 C.ar    1  UNL1        0.0044
     12 C           7.0444   -3.8723   28.6640 C.ar    1  UNL1        0.0587
     13 C           7.1530   -5.1134   29.4994 C.ar    1  UNL1        0.0584
     14 C           7.5665   -6.4093   28.8672 C.ar    1  UNL1        0.0004
     15 C           6.7921   -4.7553   30.9107 C.2     1  UNL1        0.2589
     16 O           6.7672   -5.6946   32.0798 O.2     1  UNL1       -0.2691
     17 N           6.4605   -3.2929   30.9474 N.am    1  UNL1       -0.2010
     18 C           6.6164   -2.7472   29.5589 C.2     1  UNL1        0.2589
     19 O           6.3850   -1.3259   29.1390 O.2     1  UNL1       -0.2691
     20 N           4.8014   -0.1734   35.7968 N.am    1  UNL1       -0.2761
     21 C           3.9831    1.0742   35.6423 C.2     1  UNL1        0.2840
     22 O           3.5796    1.5419   34.2753 O.2     1  UNL1       -0.2665
     23 H           5.0662   -0.4804   36.6940 H       1  UNL1        0.1553
     24 C           3.5683    1.8540   36.8546 C.ar    1  UNL1        0.1948
     25 O           2.1583    2.1187   37.2927 O.2     1  UNL1       -0.4461
     26 C           2.2093    2.9344   38.5505 C.ar    1  UNL1        0.1795
     27 C           3.6507    3.1739   38.8897 C.ar    1  UNL1        0.0396
     28 C           4.4906    2.5061   37.8415 C.ar    1  UNL1        0.0204
     29 C           5.9896    2.4929   37.7894 C.3     1  UNL1        0.0345
@<TRIPOS>BOND
     1     8     9    1
     2     9    10   ar
     3    10    11   ar
     4    11    12   ar
     5    12    13   ar
     6    13    14   ar
     7    13    15    1
     8    15    16    2
     9    15    17   am
    10    17     1    1
    11     1     2   ar
    12     2     3   ar
    13     3     4   ar
    14     4    20    1
    15    20    21   am
    16    21    22    2
    17    21    24    1
    18    24    25   ar
    19    25    26   ar
    20    26    27   ar
    21    27    28   ar
    22    28    29    1
    23     4     5   ar
    24     5     6    1
    25     5     7   ar
    26    17    18   am
    27    18    19    2
    28    14     9   ar
    29     7     1   ar
    30    18    12    1
    31    28    24   ar
    32    20    23    1
@<TRIPOS>MOLECULE
*****
 29 32 0 0 0
SMALL
GASTEIGER

@<TRIPOS>ATOM
      1 C          -1.7041    3.2595   25.5982 C.ar    1  UNL1        0.0636
      2 C          -0.9192    1.9974   25.8010 C.ar    1  UNL1        0.0168
      3 C          -0.0366    1.8483   27.0046 C.ar    1  UNL1        0.0183
      4 C           0.0611    2.9613   28.0054 C.ar    1  UNL1        0.0785
      5 C          -0.7238    4.2234   27.8026 C.ar    1  UNL1        0.1547
      6 F          -0.6260    5.3365   28.8034 F       1  UNL1       -0.2028
      7 C          -1.6064    4.3725   26.5989 C.ar    1  UNL1        0.0462
      8 C          -5.0338    3.9578   18.5236 C.3     1  UNL1        0.0310
      9 C          -4.8716    3.8624   20.0118 C.ar    1  UNL1       -0.0217
     10 C          -6.0760    3.9295   20.9033 C.ar    1  UNL1       -0.0041
     11 C          -5.9138    3.8340   22.3914 C.ar    1  UNL1        0.0044
     12 C          -4.5473    3.6714   22.9881 C.ar    1  UNL1        0.0587
     13 C          -3.3429    3.6042   22.0965 C.ar    1  UNL1        0.0584
     14 C          -3.5050    3.6997   20.6084 C.ar    1  UNL1        0.0004
     15 C          -2.1312    3.4418   22.9657 C.2     1  UNL1        0.2589
     16 O          -0.7130    3.3319   22.4898 O.2     1  UNL1       -0.2691
     17 N          -2.5868    3.4085   24.3945 N.am    1  UNL1       -0.2010
     18 C          -4.0800    3.5504   24.4083 C.2     1  UNL1        0.2589
     19 O          -4.9527    3.5682   25.6281 O.2     1  UNL1       -0.2691
     20 N           0.9438    2.8123   29.2091 N.am    1  UNL1       -0.2761
     21 C           0.6012    1.8095   30.2707 C.2     1  UNL1        0.2840
     22 O          -0.6240    0.9558   30.1287 O.2     1  UNL1       -0.2665
     23 H           1.7479    3.3726   29.3023 H       1  UNL1        0.1553
     24 C           1.4838    1.6605   31.4744 C.ar    1  UNL1        0.1948
     25 O           2.4392    0.5334   31.7329 O.2     1  UNL1       -0.4461
     26 C           3.1118    0.7887   33.0492 C.ar    1  UNL1        0.1795
     27 C           2.5721    2.0735   33.6040 C.ar    1  UNL1        0.0396
     28 C           1.5659    2.6123   32.6307 C.ar    1  UNL1        0.0204
     29 C           0.7799    3.8803   32.7865 C.3     1  UNL1        0.0345
@<TRIPOS>BOND
     1     8     9    1
     2     9    10   ar
     3    10    11   ar
     4    11    12   ar
     5    12    13   ar
     6    13    14   ar
     7    13    15    1
     8    15    16    2
     9    15    17   am
    10    17     1    1
    11     1     2   ar
    12     2     3   ar
    13     3     4   ar
    14     4    20    1
    15    20    21   am
    16    21    22    2
    17    21    24    1
    18    24    25   ar
    19    25    26   ar
    20    26    27   ar
    21    27    28   ar
    22    28    29    1
    23     4     5   ar
    24     5     6    1
    25     5     7   ar
    26    17    18   am
    27    18    19    2
    28    14     9   ar
    29     7     1   ar
    30    18    12    1
    31    28    24   ar
    32    20    23    1
@<TRIPOS>MOLECULE
*****
 29 32 0 0 0
SMALL
GASTEIGER

@<TRIPOS>ATOM
      1 C          -1.5804    3.3313   26.7069 C.ar    1  UNL1        0.0636
      2 C          -0.9352    4.4913   27.4055 C.ar    1  UNL1        0.0168
      3 C           0.1676    4.2525   28.3938 C.ar    1  UNL1        0.0183
      4 C           0.6252    2.8537   28.6834 C.ar    1  UNL1        0.0785
      5 C          -0.0199    1.6937   27.9848 C.ar    1  UNL1        0.1547
      6 F           0.4378    0.2949   28.2744 F       1  UNL1       -0.2028
      7 C          -1.1227    1.9325   26.9965 C.ar    1  UNL1        0.0462
      8 C          -6.2967    4.2766   20.5031 C.3     1  UNL1        0.0310
      9 C          -5.8161    4.2105   21.9225 C.ar    1  UNL1       -0.0217
     10 C          -6.7650    4.4920   23.0495 C.ar    1  UNL1       -0.0041
     11 C          -6.2844    4.4259   24.4689 C.ar    1  UNL1        0.0044
     12 C          -4.8549    4.0784   24.7613 C.ar    1  UNL1        0.0587
     13 C          -3.9059    3.7969   23.6342 C.ar    1  UNL1        0.0584
     14 C          -4.3865    3.8630   22.2149 C.ar    1  UNL1        0.0004
     15 C          -2.5637    3.4827   24.2259 C.2     1  UNL1        0.2589
     16 O          -1.3204    3.1412   23.4594 O.2     1  UNL1       -0.2691
     17 N          -2.6833    3.5701   25.7185 N.am    1  UNL1       -0.2010
     18 C          -4.0993    3.9382   26.0494 C.2     1  UNL1        0.2589
     19 O          -4.6610    4.1321   27.4267 O.2     1  UNL1       -0.2691
     20 N           1.7281    2.6149   29.6718 N.am    1  UNL1       -0.2761
     21 C           1.4178    2.0162   31.0117 C.2     1  UNL1        0.2840
     22 O           0.0046    1.6564   31.3632 O.2     1  UNL1       -0.2665
     23 H           2.6556    2.8511   29.4410 H       1  UNL1        0.1553
     24 C           2.5206    1.7774   32.0000 C.ar    1  UNL1        0.1948
     25 O           3.0071    2.7525   33.0307 O.2     1  UNL1       -0.4461
     26 C           4.1177    2.0993   33.7989 C.ar    1  UNL1        0.1795
     27 C           4.3174    0.7206   33.2428 C.ar    1  UNL1        0.0396
     28 C           3.3303    0.5217   32.1310 C.ar    1  UNL1        0.0204
     29 C           3.1796   -0.7157   31.2968 C.3     1  UNL1        0.0345
@<TRIPOS>BOND
     1     8     9    1
     2     9    10   ar
     3    10    11   ar
     4    11    12   ar
     5    12    13   ar
     6    13    14   ar
     7    13    15    1
     8    15    16    2
     9    15    17   am
    10    17     1    1
    11     1     2   ar
    12     2     3   ar
    13     3     4   ar
    14     4    20    1
    15    20    21   am
    16    21    22    2
    17    21    24    1
    18    24    25   ar
    19    25    26   ar
    20    26    27   ar
    21    27    28   ar
    22    28    29    1
    23     4     5   ar
    24     5     6    1
    25     5     7   ar
    26    17    18   am
    27    18    19    2
    28    14     9   ar
    29     7     1   ar
    30    18    12    1
    31    28    24   ar
    32    20    23    1
@<TRIPOS>MOLECULE
*****
 29 32 0 0 0
SMALL
GASTEIGER

@<TRIPOS>ATOM
      1 C          -1.2216    3.0770   26.8704 C.ar    1  UNL1        0.0636
      2 C          -0.4838    4.1939   27.5472 C.ar    1  UNL1        0.0168
      3 C           0.5348    3.8875   28.6048 C.ar    1  UNL1        0.0183
      4 C           0.8158    2.4641   28.9854 C.ar    1  UNL1        0.0785
      5 C           0.0780    1.3471   28.3085 C.ar    1  UNL1        0.1547
      6 F           0.3590   -0.0763   28.6892 F       1  UNL1       -0.2028
      7 C          -0.9406    1.6536   27.2510 C.ar    1  UNL1        0.0462
      8 C          -7.4729    4.9362   22.5014 C.3     1  UNL1        0.0310
      9 C          -6.0815    4.5283   22.8855 C.ar    1  UNL1       -0.0217
     10 C          -5.0629    4.2435   21.8219 C.ar    1  UNL1       -0.0041
     11 C          -3.6714    3.8357   22.2059 C.ar    1  UNL1        0.0044
     12 C          -3.2985    3.7127   23.6535 C.ar    1  UNL1        0.0587
     13 C          -4.3171    3.9975   24.7172 C.ar    1  UNL1        0.0584
     14 C          -5.7086    4.4053   24.3331 C.ar    1  UNL1        0.0004
     15 C          -3.6631    3.7940   26.0517 C.2     1  UNL1        0.2589
     16 O          -4.3170    3.9702   27.3901 O.2     1  UNL1       -0.2691
     17 N          -2.2403    3.3835   25.8128 N.am    1  UNL1       -0.2010
     18 C          -2.0150    3.3332   24.3307 C.2     1  UNL1        0.2589
     19 O          -0.7315    2.9677   23.6459 O.2     1  UNL1       -0.2691
     20 N           1.8345    2.1576   30.0430 N.am    1  UNL1       -0.2761
     21 C           1.3903    1.7549   31.4179 C.2     1  UNL1        0.2840
     22 O          -0.0727    1.6587   31.7353 O.2     1  UNL1       -0.2665
     23 H           2.7946    2.2207   29.8346 H       1  UNL1        0.1553
     24 C           2.4089    1.4484   32.4754 C.ar    1  UNL1        0.1948
     25 O           2.6823    2.2697   33.7005 O.2     1  UNL1       -0.4461
     26 C           3.7754    1.5956   34.4758 C.ar    1  UNL1        0.1795
     27 C           4.1774    0.3579   33.7299 C.ar    1  UNL1        0.0396
     28 C           3.3328    0.2670   32.4936 C.ar    1  UNL1        0.0204
     29 C           3.4004   -0.8155   31.4574 C.3     1  UNL1        0.0345
@<TRIPOS>BOND
     1     8     9    1
     2     9    10   ar
     3    10    11   ar
     4    11    12   ar
     5    12    13   ar
     6    13    14   ar
     7    13    15    1
     8    15    16    2
     9    15    17   am
    10    17     1    1
    11     1     2   ar
    12     2     3   ar
    13     3     4   ar
    14     4    20    1
    15    20    21   am
    16    21    22    2
    17    21    24    1
    18    24    25   ar
    19    25    26   ar
    20    26    27   ar
    21    27    28   ar
    22    28    29    1
    23     4     5   ar
    24     5     6    1
    25     5     7   ar
    26    17    18   am
    27    18    19    2
    28    14     9   ar
    29     7     1   ar
    30    18    12    1
    31    28    24   ar
    32    20    23    1
@<TRIPOS>MOLECULE
*****
 29 32 0 0 0
SMALL
GASTEIGER

@<TRIPOS>ATOM
      1 C           6.4962   -2.9976   29.4248 C.ar    1  UNL1        0.0636
      2 C           5.4120   -2.0242   29.0684 C.ar    1  UNL1        0.0168
      3 C           4.9818   -0.9845   30.0604 C.ar    1  UNL1        0.0183
      4 C           5.6358   -0.9183   31.4086 C.ar    1  UNL1        0.0785
      5 C           6.7199   -1.8918   31.7650 C.ar    1  UNL1        0.1547
      6 F           7.3739   -1.8255   33.1134 F       1  UNL1       -0.2028
      7 C           7.1502   -2.9314   30.7731 C.ar    1  UNL1        0.0462
      8 C           8.7845   -7.2875   23.2616 C.3     1  UNL1        0.0310
      9 C           8.3727   -6.9125   24.6544 C.ar    1  UNL1       -0.0217
     10 C           8.2944   -7.9634   25.7218 C.ar    1  UNL1       -0.0041
     11 C           7.8827   -7.5885   27.1147 C.ar    1  UNL1        0.0044
     12 C           7.5493   -6.1627   27.4400 C.ar    1  UNL1        0.0587
     13 C           7.6276   -5.1118   26.3725 C.ar    1  UNL1        0.0584
     14 C           8.0393   -5.4868   24.9797 C.ar    1  UNL1        0.0004
     15 C           7.2427   -3.7982   26.9861 C.2     1  UNL1        0.2589
     16 O           7.1842   -2.4775   26.2774 O.2     1  UNL1       -0.2691
     17 N           6.9264   -4.0373   28.4327 N.am    1  UNL1       -0.2010
     18 C           7.1160   -5.4986   28.7133 C.2     1  UNL1        0.2589
     19 O           6.9086   -6.1768   30.0350 O.2     1  UNL1       -0.2691
     20 N           5.2055    0.1214   32.4007 N.am    1  UNL1       -0.2761
     21 C           4.3431   -0.2650   33.5656 C.2     1  UNL1        0.2840
     22 O           3.9109   -1.6910   33.7384 O.2     1  UNL1       -0.2665
     23 H           5.4892    1.0572   32.2872 H       1  UNL1        0.1553
     24 C           3.9129    0.7746   34.5576 C.ar    1  UNL1        0.1948
     25 O           2.9283    1.8782   34.3071 O.2     1  UNL1       -0.4461
     26 C           2.7986    2.6788   35.5690 C.ar    1  UNL1        0.1795
     27 C           3.7030    2.0700   36.5992 C.ar    1  UNL1        0.0396
     28 C           4.3916    0.8932   35.9741 C.ar    1  UNL1        0.0204
     29 C           5.3847   -0.0071   36.6474 C.3     1  UNL1        0.0345
@<TRIPOS>BOND
     1     8     9    1
     2     9    10   ar
     3    10    11   ar
     4    11    12   ar
     5    12    13   ar
     6    13    14   ar
     7    13    15    1
     8    15    16    2
     9    15    17   am
    10    17     1    1
    11     1     2   ar
    12     2     3   ar
    13     3     4   ar
    14     4    20    1
    15    20    21   am
    16    21    22    2
    17    21    24    1
    18    24    25   ar
    19    25    26   ar
    20    26    27   ar
    21    27    28   ar
    22    28    29    1
    23     4     5   ar
    24     5     6    1
    25     5     7   ar
    26    17    18   am
    27    18    19    2
    28    14     9   ar
    29     7     1   ar
    30    18    12    1
    31    28    24   ar
    32    20    23    1
