@<TRIPOS>MOLECULE
*****
 36 39 0 0 0
SMALL
GASTEIGER

@<TRIPOS>ATOM
      1 C           1.2126    0.7394   20.9644 C.ar    1  UNL1        0.0154
      2 C           0.1308    1.4079   20.1687 C.ar    1  UNL1        0.0985
      3 N          -0.8254    2.3462   20.8432 N.ar    1  UNL1       -0.2423
      4 C          -0.7000    2.6162   22.3134 C.ar    1  UNL1        0.0985
      5 C           0.3817    1.9477   23.1091 C.ar    1  UNL1        0.0152
      6 C           1.3380    1.0093   22.4345 C.ar    1  UNL1       -0.0188
      7 C           2.4197    0.3409   23.2302 C.3     1  UNL1        0.0311
      8 C           3.6868   -2.3060   20.3695 C.ar    1  UNL1        0.1452
      9 C           2.7306   -1.3676   21.0440 C.ar    1  UNL1        0.0372
     10 C           2.1689   -0.1990   20.2898 C.ar    1  UNL1        0.0064
     11 C           2.5634    0.0313   18.8611 C.ar    1  UNL1        0.0300
     12 C           3.5197   -0.9071   18.1866 C.ar    1  UNL1        0.1474
     13 F           3.9143   -0.6769   16.7578 F       1  UNL1       -0.2039
     14 C           4.0814   -2.0757   18.9408 C.ar    1  UNL1        0.1144
     15 C           5.0377   -3.0141   18.2662 C.2     1  UNL1        0.2479
     16 N           4.7792   -4.4915   18.2873 N.am    1  UNL1       -0.3252
     17 O           6.2524   -2.4751   17.5707 O.2     1  UNL1       -0.2702
     18 H           3.9819   -4.8453   18.7438 H       1  UNL1        0.1453
     19 H           5.4068   -5.1074   17.8445 H       1  UNL1        0.1453
     20 C           4.5648   -3.3428   22.5840 C.3     1  UNL1        0.2525
     21 O           4.2485   -3.4746   21.1237 O.3     1  UNL1       -0.4712
     22 C           0.5071    2.2176   24.5792 C.ar    1  UNL1        0.0013
     23 C           1.3571    3.3549   25.0631 C.ar    1  UNL1        0.0013
     24 C           1.4825    3.6249   26.5333 C.ar    1  UNL1        0.0145
     25 C           0.7581    2.7575   27.5196 C.ar    1  UNL1        0.0479
     26 C          -0.0919    1.6201   27.0356 C.ar    1  UNL1        0.0145
     27 C          -0.2173    1.3502   25.5655 C.ar    1  UNL1        0.0013
     28 N           0.8835    3.0274   28.9897 N.pl3   1  UNL1       -0.3046
     29 C           0.9710    4.4394   29.4882 C.3     1  UNL1        0.1081
     30 C           1.0965    4.7093   30.9584 C.3     1  UNL1        0.0938
     31 N           1.1344    3.5672   31.9301 N.3     1  UNL1       -0.2711
     32 C           1.0469    2.1552   31.4315 C.3     1  UNL1        0.0938
     33 C           0.9214    1.8853   29.9614 C.3     1  UNL1        0.1081
     34 C           1.2598    3.8371   33.4002 C.3     1  UNL1        0.0577
     35 C           2.0419    2.8989   34.2710 C.3     1  UNL1        0.0173
     36 C           0.6033    5.0453   33.9997 C.3     1  UNL1        0.0173
@<TRIPOS>BOND
     1    20    21    1
     2    21     8    1
     3     8     9   ar
     4     9    10   ar
     5    10     1    1
     6     1     2   ar
     7     2     3   ar
     8     3     4   ar
     9     4     5   ar
    10     5    22    1
    11    22    23   ar
    12    23    24   ar
    13    24    25   ar
    14    25    28    1
    15    28    29    1
    16    29    30    1
    17    30    31    1
    18    31    34    1
    19    34    35    1
    20    34    36    1
    21    31    32    1
    22    32    33    1
    23    25    26   ar
    24    26    27   ar
    25     5     6   ar
    26     6     7    1
    27    10    11   ar
    28    11    12   ar
    29    12    13    1
    30    12    14   ar
    31    14    15    1
    32    15    16   am
    33    15    17    2
    34    14     8   ar
    35     6     1   ar
    36    27    22   ar
    37    33    28    1
    38    16    18    1
    39    16    19    1
@<TRIPOS>MOLECULE
*****
 36 39 0 0 0
SMALL
GASTEIGER

@<TRIPOS>ATOM
      1 C           5.6235    1.8046   35.8680 C.ar    1  UNL1        0.0154
      2 C           6.6733    2.8757   35.8948 C.ar    1  UNL1        0.0985
      3 N           7.8671    2.7786   34.9919 N.ar    1  UNL1       -0.2423
      4 C           8.0112    1.6103   34.0621 C.ar    1  UNL1        0.0985
      5 C           6.9615    0.5392   34.0353 C.ar    1  UNL1        0.0152
      6 C           5.7676    0.6363   34.9383 C.ar    1  UNL1       -0.0188
      7 C           4.7178   -0.4348   34.9115 C.3     1  UNL1        0.0311
      8 C           2.1655    3.0123   37.3956 C.ar    1  UNL1        0.1452
      9 C           3.3593    2.9151   36.4927 C.ar    1  UNL1        0.0372
     10 C           4.4296    1.9017   36.7710 C.ar    1  UNL1        0.0064
     11 C           4.3061    0.9855   37.9522 C.ar    1  UNL1        0.0300
     12 C           3.1123    1.0827   38.8551 C.ar    1  UNL1        0.1474
     13 F           2.9887    0.1665   40.0363 F       1  UNL1       -0.2039
     14 C           2.0420    2.0961   38.5768 C.ar    1  UNL1        0.1144
     15 C           0.8481    2.1933   39.4798 C.2     1  UNL1        0.2479
     16 N          -0.5326    2.0257   38.9181 N.am    1  UNL1       -0.3252
     17 O           1.0350    2.4581   40.9443 O.2     1  UNL1       -0.2702
     18 H          -0.6553    1.8519   37.9569 H       1  UNL1        0.1453
     19 H          -1.3162    2.0894   39.5107 H       1  UNL1        0.1453
     20 C           1.4244    5.2736   36.3528 C.3     1  UNL1        0.2525
     21 O           1.0952    4.0258   37.1173 O.3     1  UNL1       -0.4712
     22 C           7.1055   -0.6290   33.1056 C.ar    1  UNL1        0.0013
     23 C           6.1304   -0.8176   31.9815 C.ar    1  UNL1        0.0013
     24 C           6.2745   -1.9859   31.0517 C.ar    1  UNL1        0.0145
     25 C           7.3936   -2.9656   31.2460 C.ar    1  UNL1        0.0479
     26 C           8.3687   -2.7769   32.3702 C.ar    1  UNL1        0.0145
     27 C           8.2247   -1.6087   33.2999 C.ar    1  UNL1        0.0013
     28 N           7.5377   -4.1338   30.3163 N.pl3   1  UNL1       -0.3046
     29 C           8.5762   -5.1823   30.5847 C.3     1  UNL1        0.1081
     30 C           8.7203   -6.3506   29.6550 C.3     1  UNL1        0.0938
     31 N           7.8259   -6.4703   28.4568 N.3     1  UNL1       -0.2711
     32 C           6.7873   -5.4217   28.1884 C.3     1  UNL1        0.0938
     33 C           6.6432   -4.2535   29.1181 C.3     1  UNL1        0.1081
     34 C           7.9699   -7.6385   27.5271 C.3     1  UNL1        0.0577
     35 C           7.2159   -7.6627   26.2305 C.3     1  UNL1        0.0173
     36 C           8.8680   -8.7827   27.8938 C.3     1  UNL1        0.0173
@<TRIPOS>BOND
     1    20    21    1
     2    21     8    1
     3     8     9   ar
     4     9    10   ar
     5    10     1    1
     6     1     2   ar
     7     2     3   ar
     8     3     4   ar
     9     4     5   ar
    10     5    22    1
    11    22    23   ar
    12    23    24   ar
    13    24    25   ar
    14    25    28    1
    15    28    29    1
    16    29    30    1
    17    30    31    1
    18    31    34    1
    19    34    35    1
    20    34    36    1
    21    31    32    1
    22    32    33    1
    23    25    26   ar
    24    26    27   ar
    25     5     6   ar
    26     6     7    1
    27    10    11   ar
    28    11    12   ar
    29    12    13    1
    30    12    14   ar
    31    14    15    1
    32    15    16   am
    33    15    17    2
    34    14     8   ar
    35     6     1   ar
    36    27    22   ar
    37    33    28    1
    38    16    18    1
    39    16    19    1
@<TRIPOS>MOLECULE
*****
 36 39 0 0 0
SMALL
GASTEIGER

@<TRIPOS>ATOM
      1 C          -1.2015    4.2767   26.9804 C.ar    1  UNL1        0.0154
      2 C          -1.2372    5.5716   27.7366 C.ar    1  UNL1        0.0985
      3 N          -0.3126    5.7878   28.8977 N.ar    1  UNL1       -0.2423
      4 C           0.6478    4.7090   29.3028 C.ar    1  UNL1        0.0985
      5 C           0.6835    3.4141   28.5466 C.ar    1  UNL1        0.0152
      6 C          -0.2412    3.1979   27.3854 C.ar    1  UNL1       -0.0188
      7 C          -0.2055    1.9029   26.6292 C.3     1  UNL1        0.0311
      8 C          -2.5026    3.7911   23.2627 C.ar    1  UNL1        0.1452
      9 C          -1.5781    4.0072   24.4239 C.ar    1  UNL1        0.0372
     10 C          -2.1261    4.0605   25.8192 C.ar    1  UNL1        0.0064
     11 C          -3.5987    3.8977   26.0532 C.ar    1  UNL1        0.0300
     12 C          -4.5233    3.6815   24.8920 C.ar    1  UNL1        0.1474
     13 F          -5.9960    3.5187   25.1261 F       1  UNL1       -0.2039
     14 C          -3.9752    3.6282   23.4968 C.ar    1  UNL1        0.1144
     15 C          -4.8999    3.4121   22.3355 C.2     1  UNL1        0.2479
     16 N          -4.4912    2.5096   21.2093 N.am    1  UNL1       -0.3252
     17 O          -6.2332    4.0984   22.3006 O.2     1  UNL1       -0.2702
     18 H          -3.6161    2.0591   21.2322 H       1  UNL1        0.1453
     19 H          -5.0980    2.3677   20.4471 H       1  UNL1        0.1453
     20 C          -0.7766    2.8625   21.5573 C.3     1  UNL1        0.2525
     21 O          -1.9546    3.7378   21.8674 O.3     1  UNL1       -0.4712
     22 C           1.6437    2.3353   28.9516 C.ar    1  UNL1        0.0013
     23 C           1.1959    1.2398   29.8732 C.ar    1  UNL1        0.0013
     24 C           2.1562    0.1610   30.2782 C.ar    1  UNL1        0.0145
     25 C           3.5643    0.1777   29.7616 C.ar    1  UNL1        0.0479
     26 C           4.0122    1.2732   28.8400 C.ar    1  UNL1        0.0145
     27 C           3.0519    2.3520   28.4350 C.ar    1  UNL1        0.0013
     28 N           4.5246   -0.9011   30.1666 N.pl3   1  UNL1       -0.3046
     29 C           5.4220   -1.5296   29.1422 C.3     1  UNL1        0.1081
     30 C           6.3824   -2.6085   29.5471 C.3     1  UNL1        0.0938
     31 N           6.4452   -3.0587   30.9766 N.3     1  UNL1       -0.2711
     32 C           5.5478   -2.4301   32.0011 C.3     1  UNL1        0.0938
     33 C           4.5875   -1.3514   31.5961 C.3     1  UNL1        0.1081
     34 C           7.4055   -4.1375   31.3816 C.3     1  UNL1        0.0577
     35 C           6.9617   -5.5703   31.3952 C.3     1  UNL1        0.0173
     36 C           8.8096   -3.7835   31.7729 C.3     1  UNL1        0.0173
@<TRIPOS>BOND
     1    20    21    1
     2    21     8    1
     3     8     9   ar
     4     9    10   ar
     5    10     1    1
     6     1     2   ar
     7     2     3   ar
     8     3     4   ar
     9     4     5   ar
    10     5    22    1
    11    22    23   ar
    12    23    24   ar
    13    24    25   ar
    14    25    28    1
    15    28    29    1
    16    29    30    1
    17    30    31    1
    18    31    34    1
    19    34    35    1
    20    34    36    1
    21    31    32    1
    22    32    33    1
    23    25    26   ar
    24    26    27   ar
    25     5     6   ar
    26     6     7    1
    27    10    11   ar
    28    11    12   ar
    29    12    13    1
    30    12    14   ar
    31    14    15    1
    32    15    16   am
    33    15    17    2
    34    14     8   ar
    35     6     1   ar
    36    27    22   ar
    37    33    28    1
    38    16    18    1
    39    16    19    1
@<TRIPOS>MOLECULE
*****
 36 39 0 0 0
SMALL
GASTEIGER

@<TRIPOS>ATOM
      1 C           1.5655    0.7982   20.9857 C.ar    1  UNL1        0.0154
      2 C           0.4511    1.2501   20.0891 C.ar    1  UNL1        0.0985
      3 N          -0.6636    2.0875   20.6421 N.ar    1  UNL1       -0.2423
      4 C          -0.6641    2.4732   22.0917 C.ar    1  UNL1        0.0985
      5 C           0.4504    2.0213   22.9883 C.ar    1  UNL1        0.0152
      6 C           1.5652    1.1837   22.4353 C.ar    1  UNL1       -0.0188
      7 C           2.6796    0.7318   23.3318 C.3     1  UNL1        0.0311
      8 C           5.1373   -0.2604   19.6173 C.ar    1  UNL1        0.1452
      9 C           4.0225    0.5770   20.1703 C.ar    1  UNL1        0.0372
     10 C           2.6804   -0.0394   20.4326 C.ar    1  UNL1        0.0064
     11 C           2.4531   -1.4932   20.1419 C.ar    1  UNL1        0.0300
     12 C           3.5678   -2.3307   19.5889 C.ar    1  UNL1        0.1474
     13 F           3.3406   -3.7847   19.2982 F       1  UNL1       -0.2039
     14 C           4.9099   -1.7143   19.3266 C.ar    1  UNL1        0.1144
     15 C           6.0248   -2.5518   18.7736 C.2     1  UNL1        0.2479
     16 N           6.6616   -3.6097   19.6252 N.am    1  UNL1       -0.3252
     17 O           6.5027   -2.3315   17.3689 O.2     1  UNL1       -0.2702
     18 H           6.3480   -3.7543   20.5471 H       1  UNL1        0.1453
     19 H           7.3933   -4.1594   19.2623 H       1  UNL1        0.1453
     20 C           6.6900    1.2034   18.1355 C.3     1  UNL1        0.2525
     21 O           6.4794    0.3560   19.3550 O.3     1  UNL1       -0.4712
     22 C           0.4500    2.4069   24.4379 C.ar    1  UNL1        0.0013
     23 C           1.2085    3.6187   24.8917 C.ar    1  UNL1        0.0013
     24 C           1.2082    4.0044   26.3414 C.ar    1  UNL1        0.0145
     25 C           0.4493    3.1781   27.3371 C.ar    1  UNL1        0.0479
     26 C          -0.3092    1.9662   26.8831 C.ar    1  UNL1        0.0145
     27 C          -0.3089    1.5806   25.4336 C.ar    1  UNL1        0.0013
     28 N           0.4489    3.5637   28.7866 N.pl3   1  UNL1       -0.3046
     29 C           0.6403    2.5148   29.8417 C.3     1  UNL1        0.1081
     30 C           0.6399    2.9004   31.2913 C.3     1  UNL1        0.0938
     31 N           0.4482    4.3349   31.6858 N.3     1  UNL1       -0.2711
     32 C           0.2568    5.3837   30.6307 C.3     1  UNL1        0.0938
     33 C           0.2572    4.9981   29.1811 C.3     1  UNL1        0.1081
     34 C           0.4478    4.7204   33.1354 C.3     1  UNL1        0.0577
     35 C           1.4092    4.0692   34.0850 C.3     1  UNL1        0.0173
     36 C          -0.5139    5.7573   33.6354 C.3     1  UNL1        0.0173
@<TRIPOS>BOND
     1    20    21    1
     2    21     8    1
     3     8     9   ar
     4     9    10   ar
     5    10     1    1
     6     1     2   ar
     7     2     3   ar
     8     3     4   ar
     9     4     5   ar
    10     5    22    1
    11    22    23   ar
    12    23    24   ar
    13    24    25   ar
    14    25    28    1
    15    28    29    1
    16    29    30    1
    17    30    31    1
    18    31    34    1
    19    34    35    1
    20    34    36    1
    21    31    32    1
    22    32    33    1
    23    25    26   ar
    24    26    27   ar
    25     5     6   ar
    26     6     7    1
    27    10    11   ar
    28    11    12   ar
    29    12    13    1
    30    12    14   ar
    31    14    15    1
    32    15    16   am
    33    15    17    2
    34    14     8   ar
    35     6     1   ar
    36    27    22   ar
    37    33    28    1
    38    16    18    1
    39    16    19    1
@<TRIPOS>MOLECULE
*****
 36 39 0 0 0
SMALL
GASTEIGER

@<TRIPOS>ATOM
      1 C           7.6891   -4.7822   23.3341 C.ar    1  UNL1        0.0154
      2 C           8.6597   -5.3178   22.3236 C.ar    1  UNL1        0.0985
      3 N           8.5724   -4.8766   20.8926 N.ar    1  UNL1       -0.2423
      4 C           7.5145   -3.8998   20.4721 C.ar    1  UNL1        0.0985
      5 C           6.5439   -3.3643   21.4825 C.ar    1  UNL1        0.0152
      6 C           6.6312   -3.8055   22.9136 C.ar    1  UNL1       -0.0188
      7 C           5.6606   -3.2699   23.9241 C.3     1  UNL1        0.0311
      8 C           8.0662   -4.6504   27.2826 C.ar    1  UNL1        0.1452
      9 C           7.9789   -4.2092   25.8516 C.ar    1  UNL1        0.0372
     10 C           7.7764   -5.2234   24.7651 C.ar    1  UNL1        0.0064
     11 C           7.6611   -6.6787   25.1096 C.ar    1  UNL1        0.0300
     12 C           7.7484   -7.1199   26.5406 C.ar    1  UNL1        0.1474
     13 F           7.6331   -8.5752   26.8852 F       1  UNL1       -0.2039
     14 C           7.9509   -6.1057   27.6271 C.ar    1  UNL1        0.1144
     15 C           8.0382   -6.5469   29.0581 C.2     1  UNL1        0.2479
     16 N           7.0194   -6.0739   30.0522 N.am    1  UNL1       -0.3252
     17 O           9.1443   -7.4611   29.4949 O.2     1  UNL1       -0.2702
     18 H           6.2934   -5.4739   29.7655 H       1  UNL1        0.1453
     19 H           7.0767   -6.3635   30.9914 H       1  UNL1        0.1453
     20 C           7.1476   -2.7183   28.7567 C.3     1  UNL1        0.2525
     21 O           8.2688   -3.6362   28.3690 O.3     1  UNL1       -0.4712
     22 C           5.4860   -2.3875   21.0621 C.ar    1  UNL1        0.0013
     23 C           4.1953   -2.8839   20.4811 C.ar    1  UNL1        0.0013
     24 C           3.1373   -1.9072   20.0606 C.ar    1  UNL1        0.0145
     25 C           3.3702   -0.4341   20.2210 C.ar    1  UNL1        0.0479
     26 C           4.6610    0.0623   20.8020 C.ar    1  UNL1        0.0145
     27 C           5.7189   -0.9144   21.2225 C.ar    1  UNL1        0.0013
     28 N           2.3123    0.5426   19.8005 N.pl3   1  UNL1       -0.3046
     29 C           2.5655    1.4744   18.6527 C.3     1  UNL1        0.1081
     30 C           1.5076    2.4512   18.2321 C.3     1  UNL1        0.0938
     31 N           0.1965    2.4961   18.9595 N.3     1  UNL1       -0.2711
     32 C          -0.0567    1.5643   20.1074 C.3     1  UNL1        0.0938
     33 C           1.0012    0.5875   20.5279 C.3     1  UNL1        0.1081
     34 C          -0.8614    3.4729   18.5390 C.3     1  UNL1        0.0577
     35 C          -1.8712    3.9600   19.5355 C.3     1  UNL1        0.0173
     36 C          -0.9094    3.9626   17.1220 C.3     1  UNL1        0.0173
@<TRIPOS>BOND
     1    20    21    1
     2    21     8    1
     3     8     9   ar
     4     9    10   ar
     5    10     1    1
     6     1     2   ar
     7     2     3   ar
     8     3     4   ar
     9     4     5   ar
    10     5    22    1
    11    22    23   ar
    12    23    24   ar
    13    24    25   ar
    14    25    28    1
    15    28    29    1
    16    29    30    1
    17    30    31    1
    18    31    34    1
    19    34    35    1
    20    34    36    1
    21    31    32    1
    22    32    33    1
    23    25    26   ar
    24    26    27   ar
    25     5     6   ar
    26     6     7    1
    27    10    11   ar
    28    11    12   ar
    29    12    13    1
    30    12    14   ar
    31    14    15    1
    32    15    16   am
    33    15    17    2
    34    14     8   ar
    35     6     1   ar
    36    27    22   ar
    37    33    28    1
    38    16    18    1
    39    16    19    1
@<TRIPOS>MOLECULE
*****
 36 39 0 0 0
SMALL
GASTEIGER

@<TRIPOS>ATOM
      1 C          -2.8073    3.9643   23.9083 C.ar    1  UNL1        0.0154
      2 C          -4.0823    4.5936   24.3862 C.ar    1  UNL1        0.0985
      3 N          -4.4100    4.6057   25.8499 N.ar    1  UNL1       -0.2423
      4 C          -3.4628    3.9885   26.8357 C.ar    1  UNL1        0.0985
      5 C          -2.1878    3.3592   26.3578 C.ar    1  UNL1        0.0152
      6 C          -1.8601    3.3471   24.8940 C.ar    1  UNL1       -0.0188
      7 C          -0.5851    2.7178   24.4161 C.3     1  UNL1        0.0311
      8 C          -0.7711    4.3000   20.5184 C.ar    1  UNL1        0.1452
      9 C          -1.0988    4.3121   21.9821 C.ar    1  UNL1        0.0372
     10 C          -2.4796    3.9522   22.4445 C.ar    1  UNL1        0.0064
     11 C          -3.5327    3.5802   21.4432 C.ar    1  UNL1        0.0300
     12 C          -3.2050    3.5682   19.9796 C.ar    1  UNL1        0.1474
     13 F          -4.2581    3.1962   18.9782 F       1  UNL1       -0.2039
     14 C          -1.8242    3.9280   19.5172 C.ar    1  UNL1        0.1144
     15 C          -1.4965    3.9159   18.0534 C.2     1  UNL1        0.2479
     16 N          -0.3784    3.0565   17.5423 N.am    1  UNL1       -0.3252
     17 O          -2.2868    4.7632   17.1009 O.2     1  UNL1       -0.2702
     18 H           0.1404    2.5004   18.1675 H       1  UNL1        0.1453
     19 H          -0.1633    3.0486   16.5816 H       1  UNL1        0.1453
     20 C           1.7763    3.7963   20.4347 C.3     1  UNL1        0.2525
     21 O           0.6098    4.6599   20.0560 O.3     1  UNL1       -0.4712
     22 C          -1.2406    2.7420   27.3436 C.ar    1  UNL1        0.0013
     23 C          -1.3530    1.2846   27.6803 C.ar    1  UNL1        0.0013
     24 C          -0.4057    0.6674   28.6661 C.ar    1  UNL1        0.0145
     25 C           0.6539    1.5075   29.3151 C.ar    1  UNL1        0.0479
     26 C           0.7663    2.9649   28.9783 C.ar    1  UNL1        0.0145
     27 C          -0.1809    3.5821   27.9926 C.ar    1  UNL1        0.0013
     28 N           1.6012    0.8903   30.3009 N.pl3   1  UNL1       -0.3046
     29 C           1.9365    1.6126   31.5720 C.3     1  UNL1        0.1081
     30 C           2.8838    0.9954   32.5578 C.3     1  UNL1        0.0938
     31 N           3.4957   -0.3441   32.2725 N.3     1  UNL1       -0.2711
     32 C           3.1603   -1.0664   31.0013 C.3     1  UNL1        0.0938
     33 C           2.2130   -0.4492   30.0155 C.3     1  UNL1        0.1081
     34 C           4.4429   -0.9613   33.2582 C.3     1  UNL1        0.0577
     35 C           5.1857   -2.2146   32.9010 C.3     1  UNL1        0.0173
     36 C           4.6475   -0.3252   34.6012 C.3     1  UNL1        0.0173
@<TRIPOS>BOND
     1    20    21    1
     2    21     8    1
     3     8     9   ar
     4     9    10   ar
     5    10     1    1
     6     1     2   ar
     7     2     3   ar
     8     3     4   ar
     9     4     5   ar
    10     5    22    1
    11    22    23   ar
    12    23    24   ar
    13    24    25   ar
    14    25    28    1
    15    28    29    1
    16    29    30    1
    17    30    31    1
    18    31    34    1
    19    34    35    1
    20    34    36    1
    21    31    32    1
    22    32    33    1
    23    25    26   ar
    24    26    27   ar
    25     5     6   ar
    26     6     7    1
    27    10    11   ar
    28    11    12   ar
    29    12    13    1
    30    12    14   ar
    31    14    15    1
    32    15    16   am
    33    15    17    2
    34    14     8   ar
    35     6     1   ar
    36    27    22   ar
    37    33    28    1
    38    16    18    1
    39    16    19    1
@<TRIPOS>MOLECULE
*****
 36 39 0 0 0
SMALL
GASTEIGER

@<TRIPOS>ATOM
      1 C           5.8066   -0.9682   27.0534 C.ar    1  UNL1        0.0154
      2 C           6.8717   -0.5074   26.1029 C.ar    1  UNL1        0.0985
      3 N           6.5556    0.5327   25.0694 N.ar    1  UNL1       -0.2423
      4 C           5.1745    1.1121   24.9863 C.ar    1  UNL1        0.0985
      5 C           4.1095    0.6514   25.9367 C.ar    1  UNL1        0.0152
      6 C           4.4256   -0.3888   26.9703 C.ar    1  UNL1       -0.0188
      7 C           3.3605   -0.8496   27.9208 C.3     1  UNL1        0.0311
      8 C           6.6757   -2.6425   30.5450 C.ar    1  UNL1        0.1452
      9 C           6.3596   -1.6024   29.5115 C.ar    1  UNL1        0.0372
     10 C           6.1227   -2.0083   28.0870 C.ar    1  UNL1        0.0064
     11 C           6.2019   -3.4543   27.6961 C.ar    1  UNL1        0.0300
     12 C           6.5180   -4.4944   28.7296 C.ar    1  UNL1        0.1474
     13 F           6.5972   -5.9404   28.3388 F       1  UNL1       -0.2039
     14 C           6.7549   -4.0885   30.1541 C.ar    1  UNL1        0.1144
     15 C           7.0709   -5.1286   31.1877 C.2     1  UNL1        0.2479
     16 N           6.3126   -5.1549   32.4816 N.am    1  UNL1       -0.3252
     17 O           8.1453   -6.1424   30.9274 O.2     1  UNL1       -0.2702
     18 H           5.6074   -4.4895   32.6525 H       1  UNL1        0.1453
     19 H           6.5200   -5.8376   33.1600 H       1  UNL1        0.1453
     20 C           5.8311   -1.5396   32.7405 C.3     1  UNL1        0.2525
     21 O           6.9125   -2.2366   31.9695 O.3     1  UNL1       -0.4712
     22 C           2.7284    1.2307   25.8536 C.ar    1  UNL1        0.0013
     23 C           2.3030    2.2968   26.8192 C.ar    1  UNL1        0.0013
     24 C           0.9219    2.8762   26.7362 C.ar    1  UNL1        0.0145
     25 C          -0.0338    2.3895   25.6875 C.ar    1  UNL1        0.0479
     26 C           0.3916    1.3233   24.7219 C.ar    1  UNL1        0.0145
     27 C           1.7727    0.7439   24.8050 C.ar    1  UNL1        0.0013
     28 N          -1.4149    2.9688   25.6044 N.pl3   1  UNL1       -0.3046
     29 C          -2.2032    3.2110   26.8574 C.3     1  UNL1        0.1081
     30 C          -3.5843    3.7904   26.7743 C.3     1  UNL1        0.0938
     31 N          -4.1771    4.1275   25.4383 N.3     1  UNL1       -0.2711
     32 C          -3.3887    3.8853   24.1853 C.3     1  UNL1        0.0938
     33 C          -2.0077    3.3060   24.2684 C.3     1  UNL1        0.1081
     34 C          -5.5582    4.7069   25.3552 C.3     1  UNL1        0.0577
     35 C          -6.4596    4.3363   24.2149 C.3     1  UNL1        0.0173
     36 C          -6.0379    5.6568   26.4124 C.3     1  UNL1        0.0173
@<TRIPOS>BOND
     1    20    21    1
     2    21     8    1
     3     8     9   ar
     4     9    10   ar
     5    10     1    1
     6     1     2   ar
     7     2     3   ar
     8     3     4   ar
     9     4     5   ar
    10     5    22    1
    11    22    23   ar
    12    23    24   ar
    13    24    25   ar
    14    25    28    1
    15    28    29    1
    16    29    30    1
    17    30    31    1
    18    31    34    1
    19    34    35    1
    20    34    36    1
    21    31    32    1
    22    32    33    1
    23    25    26   ar
    24    26    27   ar
    25     5     6   ar
    26     6     7    1
    27    10    11   ar
    28    11    12   ar
    29    12    13    1
    30    12    14   ar
    31    14    15    1
    32    15    16   am
    33    15    17    2
    34    14     8   ar
    35     6     1   ar
    36    27    22   ar
    37    33    28    1
    38    16    18    1
    39    16    19    1
@<TRIPOS>MOLECULE
*****
 36 39 0 0 0
SMALL
GASTEIGER

@<TRIPOS>ATOM
      1 C           3.8061    0.3534   18.3799 C.ar    1  UNL1        0.0154
      2 C           4.0746   -0.3585   17.0871 C.ar    1  UNL1        0.0985
      3 N           4.7787   -1.6829   17.0924 N.ar    1  UNL1       -0.2423
      4 C           5.2144   -2.2955   18.3905 C.ar    1  UNL1        0.0985
      5 C           4.9459   -1.5836   19.6833 C.ar    1  UNL1        0.0152
      6 C           4.2418   -0.2591   19.6779 C.ar    1  UNL1       -0.0188
      7 C           3.9733    0.4527   20.9706 C.3     1  UNL1        0.0311
      8 C           0.9140    3.0637   18.5806 C.ar    1  UNL1        0.1452
      9 C           1.6182    1.7393   18.5859 C.ar    1  UNL1        0.0372
     10 C           3.1019    1.6779   18.3745 C.ar    1  UNL1        0.0064
     11 C           3.8815    2.9409   18.1577 C.ar    1  UNL1        0.0300
     12 C           3.1773    4.2653   18.1524 C.ar    1  UNL1        0.1474
     13 F           3.9569    5.5284   17.9356 F       1  UNL1       -0.2039
     14 C           1.6936    4.3267   18.3638 C.ar    1  UNL1        0.1144
     15 C           0.9894    5.6511   18.3585 C.2     1  UNL1        0.2479
     16 N          -0.1595    5.8859   17.4231 N.am    1  UNL1       -0.3252
     17 O           1.4342    6.7408   19.2884 O.2     1  UNL1       -0.2702
     18 H          -0.4515    5.1707   16.8128 H       1  UNL1        0.1453
     19 H          -0.6217    6.7552   17.4196 H       1  UNL1        0.1453
     20 C          -1.1353    3.0132   20.1768 C.3     1  UNL1        0.2525
     21 O          -0.5698    3.1250   18.7920 O.3     1  UNL1       -0.4712
     22 C           5.3816   -2.1962   20.9813 C.ar    1  UNL1        0.0013
     23 C           4.3992   -2.9635   21.8156 C.ar    1  UNL1        0.0013
     24 C           4.8348   -3.5761   23.1137 C.ar    1  UNL1        0.0145
     25 C           6.2529   -3.4213   23.5774 C.ar    1  UNL1        0.0479
     26 C           7.2354   -2.6539   22.7431 C.ar    1  UNL1        0.0145
     27 C           6.7997   -2.0414   21.4451 C.ar    1  UNL1        0.0013
     28 N           6.6886   -4.0338   24.8755 N.pl3   1  UNL1       -0.3046
     29 C           6.3518   -3.3605   26.1728 C.3     1  UNL1        0.1081
     30 C           6.7875   -3.9731   27.4710 C.3     1  UNL1        0.0938
     31 N           7.5599   -5.2589   27.4716 N.3     1  UNL1       -0.2711
     32 C           7.8967   -5.9322   26.1742 C.3     1  UNL1        0.0938
     33 C           7.4610   -5.3197   24.8761 C.3     1  UNL1        0.1081
     34 C           7.9956   -5.8714   28.7697 C.3     1  UNL1        0.0577
     35 C           9.2332   -6.7174   28.8218 C.3     1  UNL1        0.0173
     36 C           7.1936   -5.6381   30.0157 C.3     1  UNL1        0.0173
@<TRIPOS>BOND
     1    20    21    1
     2    21     8    1
     3     8     9   ar
     4     9    10   ar
     5    10     1    1
     6     1     2   ar
     7     2     3   ar
     8     3     4   ar
     9     4     5   ar
    10     5    22    1
    11    22    23   ar
    12    23    24   ar
    13    24    25   ar
    14    25    28    1
    15    28    29    1
    16    29    30    1
    17    30    31    1
    18    31    34    1
    19    34    35    1
    20    34    36    1
    21    31    32    1
    22    32    33    1
    23    25    26   ar
    24    26    27   ar
    25     5     6   ar
    26     6     7    1
    27    10    11   ar
    28    11    12   ar
    29    12    13    1
    30    12    14   ar
    31    14    15    1
    32    15    16   am
    33    15    17    2
    34    14     8   ar
    35     6     1   ar
    36    27    22   ar
    37    33    28    1
    38    16    18    1
    39    16    19    1
@<TRIPOS>MOLECULE
*****
 36 39 0 0 0
SMALL
GASTEIGER

@<TRIPOS>ATOM
      1 C           7.5081   -4.7952   23.6886 C.ar    1  UNL1        0.0154
      2 C           8.0877   -6.1775   23.6303 C.ar    1  UNL1        0.0985
      3 N           8.4399   -6.8972   24.8983 N.ar    1  UNL1       -0.2423
      4 C           8.2125   -6.2346   26.2248 C.ar    1  UNL1        0.0985
      5 C           7.6329   -4.8523   26.2831 C.ar    1  UNL1        0.0152
      6 C           7.2807   -4.1326   25.0149 C.ar    1  UNL1       -0.0188
      7 C           6.7010   -2.7504   25.0732 C.3     1  UNL1        0.0311
      8 C           5.3849   -3.3453   20.6653 C.ar    1  UNL1        0.1452
      9 C           5.7372   -4.0649   21.9334 C.ar    1  UNL1        0.0372
     10 C           7.1559   -4.0755   22.4205 C.ar    1  UNL1        0.0064
     11 C           8.2223   -3.3666   21.6395 C.ar    1  UNL1        0.0300
     12 C           7.8701   -2.6470   20.3714 C.ar    1  UNL1        0.1474
     13 F           8.9366   -1.9379   19.5903 F       1  UNL1       -0.2039
     14 C           6.4514   -2.6363   19.8843 C.ar    1  UNL1        0.1144
     15 C           6.0992   -1.9166   18.6162 C.2     1  UNL1        0.2479
     16 N           5.0470   -0.8476   18.6280 N.am    1  UNL1       -0.3252
     17 O           6.7991   -2.2660   17.3364 O.2     1  UNL1       -0.2702
     18 H           4.5877   -0.6183   19.4680 H       1  UNL1        0.1453
     19 H           4.8159   -0.3752   17.7957 H       1  UNL1        0.1453
     20 C           3.4758   -4.4255   19.2732 C.3     1  UNL1        0.2525
     21 O           3.9663   -3.3346   20.1783 O.3     1  UNL1       -0.4712
     22 C           7.4054   -4.1897   27.6094 C.ar    1  UNL1        0.0013
     23 C           6.6973   -4.9292   28.7055 C.ar    1  UNL1        0.0013
     24 C           6.4698   -4.2666   30.0320 C.ar    1  UNL1        0.0145
     25 C           6.9506   -2.8645   30.2622 C.ar    1  UNL1        0.0479
     26 C           7.6588   -2.1250   29.1659 C.ar    1  UNL1        0.0145
     27 C           7.8862   -2.7876   27.8396 C.ar    1  UNL1        0.0013
     28 N           6.7232   -2.2020   31.5885 N.pl3   1  UNL1       -0.3046
     29 C           5.3731   -2.2689   32.2386 C.3     1  UNL1        0.1081
     30 C           5.1456   -1.6063   33.5650 C.3     1  UNL1        0.0938
     31 N           6.2683   -0.8768   34.2412 N.3     1  UNL1       -0.2711
     32 C           7.6185   -0.8098   33.5911 C.3     1  UNL1        0.0938
     33 C           7.8459   -1.4724   32.2648 C.3     1  UNL1        0.1081
     34 C           6.0409   -0.2142   35.5676 C.3     1  UNL1        0.0577
     35 C           7.1855    0.4351   36.2877 C.3     1  UNL1        0.0173
     36 C           4.6690   -0.2008   36.1739 C.3     1  UNL1        0.0173
@<TRIPOS>BOND
     1    20    21    1
     2    21     8    1
     3     8     9   ar
     4     9    10   ar
     5    10     1    1
     6     1     2   ar
     7     2     3   ar
     8     3     4   ar
     9     4     5   ar
    10     5    22    1
    11    22    23   ar
    12    23    24   ar
    13    24    25   ar
    14    25    28    1
    15    28    29    1
    16    29    30    1
    17    30    31    1
    18    31    34    1
    19    34    35    1
    20    34    36    1
    21    31    32    1
    22    32    33    1
    23    25    26   ar
    24    26    27   ar
    25     5     6   ar
    26     6     7    1
    27    10    11   ar
    28    11    12   ar
    29    12    13    1
    30    12    14   ar
    31    14    15    1
    32    15    16   am
    33    15    17    2
    34    14     8   ar
    35     6     1   ar
    36    27    22   ar
    37    33    28    1
    38    16    18    1
    39    16    19    1
