@<TRIPOS>MOLECULE
*****
 44 49 0 0 0
SMALL
GASTEIGER

@<TRIPOS>ATOM
      1 C           1.6380    1.2111   25.1308 C.2     1  UNL1        0.2461
      2 O           2.2286    2.5552   25.4381 O.2     1  UNL1       -0.2701
      3 N           0.2772    0.8533   25.6503 N.am    1  UNL1       -0.2964
      4 H          -0.1104   -0.0290   25.4486 H       1  UNL1        0.1501
      5 C           6.1035   -2.5897   25.7674 C.3     1  UNL1        0.1305
      6 N           5.4380   -2.4621   24.4292 N.ar    1  UNL1       -0.3242
      7 C           5.7984   -3.2249   23.1889 C.ar    1  UNL1        0.0738
      8 C           4.8782   -2.7835   22.0896 C.ar    1  UNL1       -0.0038
      9 C           3.9492   -1.7480   22.6504 C.ar    1  UNL1        0.0133
     10 C           2.8329   -0.9603   22.0312 C.ar    1  UNL1        0.0013
     11 C           2.0625    0.0260   22.8580 C.ar    1  UNL1        0.0046
     12 C           2.4085    0.2247   24.3040 C.ar    1  UNL1        0.0548
     13 C           3.5247   -0.5630   24.9232 C.ar    1  UNL1        0.0217
     14 C           4.2951   -1.5494   24.0964 C.ar    1  UNL1        0.0598
     15 C           6.8876   -4.2492   23.0690 C.ar    1  UNL1        0.0967
     16 C           7.8837   -4.1574   21.9513 C.ar    1  UNL1        0.0206
     17 C           8.9730   -5.1817   21.8314 C.ar    1  UNL1        0.0032
     18 C           9.0662   -6.2977   22.8293 C.ar    1  UNL1        0.0207
     19 C           8.0702   -6.3894   23.9470 C.ar    1  UNL1        0.0989
     20 N           6.9809   -5.3651   24.0669 N.ar    1  UNL1       -0.2424
     21 C           4.8858   -3.2889   20.6773 C.3     1  UNL1        0.0238
     22 C           5.5349   -2.6170   19.5039 C.3     1  UNL1        0.0044
     23 C           5.2959   -3.4678   18.2918 C.3     1  UNL1        0.0003
     24 C           4.4990   -4.6657   18.7163 C.3     1  UNL1        0.0003
     25 C           4.2456   -4.5551   20.1906 C.3     1  UNL1        0.0044
     26 C          -0.4933    1.8397   26.4771 C.3     1  UNL1        0.1260
     27 C          -1.1232    2.3909   25.2325 C.3     1  UNL1        0.0270
     28 C          -1.8936    3.3772   26.0592 C.3     1  UNL1        0.0043
     29 C          -1.2637    2.8260   27.3039 C.3     1  UNL1        0.0270
     30 C           0.1367    1.2884   27.7218 C.2     1  UNL1        0.2419
     31 O          -0.3560   -0.0038   28.3028 O.2     1  UNL1       -0.2731
     32 N           1.2593    2.0294   28.3856 N.am    1  UNL1       -0.2826
     33 H           1.5827    2.8775   28.0044 H       1  UNL1        0.1549
     34 C           1.8893    1.4781   29.6304 C.ar    1  UNL1        0.0503
     35 C           2.9061    0.3796   29.5331 C.ar    1  UNL1        0.0147
     36 C           3.5360   -0.1717   30.7777 C.ar    1  UNL1        0.0013
     37 C           3.1491    0.3755   32.1198 C.ar    1  UNL1        0.0001
     38 C           2.1323    1.4739   32.2171 C.ar    1  UNL1        0.0013
     39 C           1.5023    2.0252   30.9723 C.ar    1  UNL1        0.0147
     40 C           3.7791   -0.1758   33.3644 C.2     1  UNL1        0.0012
     41 C           4.0695    0.7314   34.5231 C.2     1  UNL1        0.0151
     42 C           4.6994    0.1801   35.7678 C.2     1  UNL1        0.0729
     43 O           4.0750    0.4460   37.1055 O.co2   1  UNL1       -0.5446
     44 O           5.9538   -0.6372   35.6748 O.co2   1  UNL1       -0.5446
@<TRIPOS>UNITY_ATOM_ATTR
43 1
charge -1
@<TRIPOS>BOND
     1     5     6    1
     2     6     7   ar
     3     7    15    1
     4    15    16   ar
     5    16    17   ar
     6    17    18   ar
     7    18    19   ar
     8    19    20   ar
     9     7     8   ar
    10     8    21    1
    11    21    22    1
    12    22    23    1
    13    23    24    1
    14    24    25    1
    15     8     9   ar
    16     9    10   ar
    17    10    11   ar
    18    11    12   ar
    19    12     1    1
    20     1     2    2
    21     1     3   am
    22     3    26    1
    23    26    30    1
    24    30    31    2
    25    30    32   am
    26    32    34    1
    27    34    35   ar
    28    35    36   ar
    29    36    37   ar
    30    37    40    1
    31    40    41    2
    32    41    42    1
    33    42    43   ar
    34    42    44   ar
    35    37    38   ar
    36    38    39   ar
    37    26    27    1
    38    27    28    1
    39    28    29    1
    40    12    13   ar
    41    13    14   ar
    42    14     6   ar
    43    20    15   ar
    44    25    21    1
    45    14     9   ar
    46    29    26    1
    47    39    34   ar
    48     3     4    1
    49    32    33    1
@<TRIPOS>MOLECULE
*****
 44 49 0 0 0
SMALL
GASTEIGER

@<TRIPOS>ATOM
      1 C          -0.5030    2.3568   26.4334 C.2     1  UNL1        0.2461
      2 O          -0.5489    1.0101   27.0925 O.2     1  UNL1       -0.2701
      3 N           0.7862    3.1216   26.3790 N.am    1  UNL1       -0.2964
      4 H           0.8163    4.0054   25.9464 H       1  UNL1        0.1501
      5 C          -2.6582    3.6595   21.0996 C.3     1  UNL1        0.1305
      6 N          -3.4939    3.9393   22.3134 N.ar    1  UNL1       -0.3242
      7 C          -4.8697    4.5368   22.3180 C.ar    1  UNL1        0.0738
      8 C          -5.3265    4.6374   23.7432 C.ar    1  UNL1       -0.0038
      9 C          -4.2330    4.1021   24.6194 C.ar    1  UNL1        0.0133
     10 C          -4.1224    3.9519   26.1077 C.ar    1  UNL1        0.0013
     11 C          -2.8791    3.3701   26.7124 C.ar    1  UNL1        0.0046
     12 C          -1.7464    2.9386   25.8287 C.ar    1  UNL1        0.0548
     13 C          -1.8571    3.0888   24.3404 C.ar    1  UNL1        0.0217
     14 C          -3.1004    3.6706   23.7358 C.ar    1  UNL1        0.0598
     15 C          -5.6515    4.9595   21.1096 C.ar    1  UNL1        0.0967
     16 C          -6.1774    3.9265   20.1576 C.ar    1  UNL1        0.0206
     17 C          -6.9592    4.3492   18.9492 C.ar    1  UNL1        0.0032
     18 C          -7.2150    5.8048   18.6928 C.ar    1  UNL1        0.0207
     19 C          -6.6890    6.8377   19.6448 C.ar    1  UNL1        0.0989
     20 N          -5.9073    6.4150   20.8532 N.ar    1  UNL1       -0.2424
     21 C          -6.6453    5.1784   24.2103 C.3     1  UNL1        0.0238
     22 C          -7.9971    4.6324   23.8576 C.3     1  UNL1        0.0044
     23 C          -9.0311    5.4769   24.5413 C.3     1  UNL1        0.0003
     24 C          -8.3183    6.5450   25.3167 C.3     1  UNL1        0.0003
     25 C          -6.8438    6.3606   25.1120 C.3     1  UNL1        0.0044
     26 C           2.0295    2.5398   26.9837 C.3     1  UNL1        0.1260
     27 C           1.6531    3.1192   28.3150 C.3     1  UNL1        0.0270
     28 C           2.8964    2.5375   28.9198 C.3     1  UNL1        0.0043
     29 C           3.2728    1.9580   27.5884 C.3     1  UNL1        0.0270
     30 C           2.4060    1.9604   25.6524 C.2     1  UNL1        0.2419
     31 O           3.1318    2.8031   24.6458 O.2     1  UNL1       -0.2731
     32 N           2.0566    0.5382   25.3275 N.am    1  UNL1       -0.2826
     33 H           1.5803   -0.0149   25.9881 H       1  UNL1        0.1549
     34 C           2.4331   -0.0412   23.9961 C.ar    1  UNL1        0.0503
     35 C           1.7324    0.4197   22.7524 C.ar    1  UNL1        0.0147
     36 C           2.1088   -0.1596   21.4211 C.ar    1  UNL1        0.0013
     37 C           3.1860   -1.2000   21.3333 C.ar    1  UNL1        0.0001
     38 C           3.8866   -1.6609   22.5769 C.ar    1  UNL1        0.0013
     39 C           3.5102   -1.0814   23.9083 C.ar    1  UNL1        0.0147
     40 C           3.5624   -1.7793   20.0019 C.2     1  UNL1        0.0012
     41 C           4.1132   -0.8910   18.9261 C.2     1  UNL1        0.0151
     42 C           4.4896   -1.4703   17.5947 C.2     1  UNL1        0.0729
     43 O           5.5535   -2.5244   17.5091 O.co2   1  UNL1       -0.5446
     44 O           3.8022   -0.9957   16.3488 O.co2   1  UNL1       -0.5446
@<TRIPOS>UNITY_ATOM_ATTR
43 1
charge -1
@<TRIPOS>BOND
     1     5     6    1
     2     6     7   ar
     3     7    15    1
     4    15    16   ar
     5    16    17   ar
     6    17    18   ar
     7    18    19   ar
     8    19    20   ar
     9     7     8   ar
    10     8    21    1
    11    21    22    1
    12    22    23    1
    13    23    24    1
    14    24    25    1
    15     8     9   ar
    16     9    10   ar
    17    10    11   ar
    18    11    12   ar
    19    12     1    1
    20     1     2    2
    21     1     3   am
    22     3    26    1
    23    26    30    1
    24    30    31    2
    25    30    32   am
    26    32    34    1
    27    34    35   ar
    28    35    36   ar
    29    36    37   ar
    30    37    40    1
    31    40    41    2
    32    41    42    1
    33    42    43   ar
    34    42    44   ar
    35    37    38   ar
    36    38    39   ar
    37    26    27    1
    38    27    28    1
    39    28    29    1
    40    12    13   ar
    41    13    14   ar
    42    14     6   ar
    43    20    15   ar
    44    25    21    1
    45    14     9   ar
    46    29    26    1
    47    39    34   ar
    48     3     4    1
    49    32    33    1
@<TRIPOS>MOLECULE
*****
 44 49 0 0 0
SMALL
GASTEIGER

@<TRIPOS>ATOM
      1 C           4.0435   -0.6158   21.7273 C.2     1  UNL1        0.2461
      2 O           5.3652    0.0323   21.4393 O.2     1  UNL1       -0.2701
      3 N           3.6144   -1.8231   20.9474 N.am    1  UNL1       -0.2964
      4 H           2.7469   -2.2484   21.1364 H       1  UNL1        0.1501
      5 C          -0.5148    3.0962   22.2124 C.3     1  UNL1        0.1305
      6 N           0.0236    2.4351   23.4466 N.ar    1  UNL1       -0.3242
      7 C          -0.4909    2.6228   24.8431 C.ar    1  UNL1        0.0738
      8 C           0.3385    1.7740   25.7605 C.ar    1  UNL1       -0.0038
      9 C           1.3656    1.0618   24.9311 C.ar    1  UNL1        0.0133
     10 C           2.4528    0.0940   25.2932 C.ar    1  UNL1        0.0013
     11 C           3.3454   -0.4652   24.2253 C.ar    1  UNL1        0.0046
     12 C           3.1508   -0.0565   22.7952 C.ar    1  UNL1        0.0548
     13 C           2.0635    0.9112   22.4331 C.ar    1  UNL1        0.0217
     14 C           1.1709    1.4704   23.5010 C.ar    1  UNL1        0.0598
     15 C          -1.6340    3.5044   25.2506 C.ar    1  UNL1        0.0967
     16 C          -1.3783    4.7307   26.0755 C.ar    1  UNL1        0.0206
     17 C          -2.5214    5.6124   26.4830 C.ar    1  UNL1        0.0032
     18 C          -3.9202    5.2676   26.0655 C.ar    1  UNL1        0.0207
     19 C          -4.1760    4.0412   25.2406 C.ar    1  UNL1        0.0989
     20 N          -3.0328    3.1596   24.8331 N.ar    1  UNL1       -0.2424
     21 C           0.1704    1.6578   27.2465 C.3     1  UNL1        0.0238
     22 C          -0.6842    0.6536   27.9613 C.3     1  UNL1        0.0044
     23 C          -0.5554    0.9005   29.4353 C.3     1  UNL1        0.0003
     24 C           0.3790    2.0575   29.6313 C.3     1  UNL1        0.0003
     25 C           0.8275    2.5255   28.2786 C.3     1  UNL1        0.0044
     26 C           4.5071   -2.3823   19.8794 C.3     1  UNL1        0.1260
     27 C           3.9373   -1.4070   18.8925 C.3     1  UNL1        0.0270
     28 C           4.8299   -1.9662   17.8245 C.3     1  UNL1        0.0043
     29 C           5.3997   -2.9415   18.8115 C.3     1  UNL1        0.0270
     30 C           5.0770   -3.3576   20.8663 C.2     1  UNL1        0.2419
     31 O           4.4240   -4.6937   21.0630 O.2     1  UNL1       -0.2731
     32 N           6.2997   -2.9968   21.6567 N.am    1  UNL1       -0.2826
     33 H           6.7283   -2.1199   21.5277 H       1  UNL1        0.1549
     34 C           6.8696   -3.9721   22.6437 C.ar    1  UNL1        0.0503
     35 C           7.9552   -4.9176   22.2225 C.ar    1  UNL1        0.0147
     36 C           8.5250   -5.8929   23.2093 C.ar    1  UNL1        0.0013
     37 C           8.0092   -5.9228   24.6176 C.ar    1  UNL1        0.0001
     38 C           6.9236   -4.9773   25.0389 C.ar    1  UNL1        0.0013
     39 C           6.3537   -4.0020   24.0519 C.ar    1  UNL1        0.0147
     40 C           8.5791   -6.8981   25.6045 C.2     1  UNL1        0.0012
     41 C           7.6642   -7.6814   26.4986 C.2     1  UNL1        0.0151
     42 C           8.2340   -8.6567   27.4855 C.2     1  UNL1        0.0729
     43 O           7.6744  -10.0455   27.5761 O.co2   1  UNL1       -0.5446
     44 O           9.3634   -8.2433   28.3818 O.co2   1  UNL1       -0.5446
@<TRIPOS>UNITY_ATOM_ATTR
43 1
charge -1
@<TRIPOS>BOND
     1     5     6    1
     2     6     7   ar
     3     7    15    1
     4    15    16   ar
     5    16    17   ar
     6    17    18   ar
     7    18    19   ar
     8    19    20   ar
     9     7     8   ar
    10     8    21    1
    11    21    22    1
    12    22    23    1
    13    23    24    1
    14    24    25    1
    15     8     9   ar
    16     9    10   ar
    17    10    11   ar
    18    11    12   ar
    19    12     1    1
    20     1     2    2
    21     1     3   am
    22     3    26    1
    23    26    30    1
    24    30    31    2
    25    30    32   am
    26    32    34    1
    27    34    35   ar
    28    35    36   ar
    29    36    37   ar
    30    37    40    1
    31    40    41    2
    32    41    42    1
    33    42    43   ar
    34    42    44   ar
    35    37    38   ar
    36    38    39   ar
    37    26    27    1
    38    27    28    1
    39    28    29    1
    40    12    13   ar
    41    13    14   ar
    42    14     6   ar
    43    20    15   ar
    44    25    21    1
    45    14     9   ar
    46    29    26    1
    47    39    34   ar
    48     3     4    1
    49    32    33    1
@<TRIPOS>MOLECULE
*****
 44 49 0 0 0
SMALL
GASTEIGER

@<TRIPOS>ATOM
      1 C           2.6170    0.9416   27.6032 C.2     1  UNL1        0.2461
      2 O           2.9270    2.4088   27.5702 O.2     1  UNL1       -0.2701
      3 N           1.6052    0.4105   28.5748 N.am    1  UNL1       -0.2964
      4 H           1.4018   -0.5525   28.5965 H       1  UNL1        0.1501
      5 C           2.4761   -0.5659   21.9024 C.3     1  UNL1        0.1305
      6 N           3.4612   -1.2387   22.8118 N.ar    1  UNL1       -0.3242
      7 C           4.4514   -2.2927   22.4137 C.ar    1  UNL1        0.0738
      8 C           5.2312   -2.6810   23.6348 C.ar    1  UNL1       -0.0038
      9 C           4.7229   -1.8669   24.7876 C.ar    1  UNL1        0.0133
     10 C           5.1149   -1.8221   26.2348 C.ar    1  UNL1        0.0013
     11 C           4.4129   -0.8860   27.1733 C.ar    1  UNL1        0.0046
     12 C           3.3190    0.0054   26.6646 C.ar    1  UNL1        0.0548
     13 C           2.9270   -0.0394   25.2175 C.ar    1  UNL1        0.0217
     14 C           3.6290   -0.9755   24.2790 C.ar    1  UNL1        0.0598
     15 C           4.6304   -2.8590   21.0363 C.ar    1  UNL1        0.0967
     16 C           4.0471   -4.1979   20.6942 C.ar    1  UNL1        0.0206
     17 C           4.2261   -4.7643   19.3168 C.ar    1  UNL1        0.0032
     18 C           4.9883   -3.9917   18.2815 C.ar    1  UNL1        0.0207
     19 C           5.5716   -2.6528   18.6235 C.ar    1  UNL1        0.0989
     20 N           5.3926   -2.0864   20.0009 N.ar    1  UNL1       -0.2424
     21 C           6.3269   -3.7037   23.6929 C.3     1  UNL1        0.0238
     22 C           7.3047   -4.0115   22.5980 C.3     1  UNL1        0.0044
     23 C           8.2193   -5.0963   23.0845 C.3     1  UNL1        0.0003
     24 C           7.8067   -5.4589   24.4804 C.3     1  UNL1        0.0003
     25 C           6.6371   -4.5983   24.8564 C.3     1  UNL1        0.0044
     26 C           0.9032    1.3466   29.5134 C.3     1  UNL1        0.1260
     27 C           1.9663    1.1097   30.5447 C.3     1  UNL1        0.0270
     28 C           1.2644    2.0459   31.4833 C.3     1  UNL1        0.0043
     29 C           0.2013    2.2828   30.4520 C.3     1  UNL1        0.0270
     30 C          -0.1599    1.5836   28.4821 C.2     1  UNL1        0.2419
     31 O          -1.1844    0.5237   28.2039 O.2     1  UNL1       -0.2731
     32 N          -0.1986    2.8802   27.7291 N.am    1  UNL1       -0.2826
     33 H           0.4737    3.5758   27.9117 H       1  UNL1        0.1549
     34 C          -1.2618    3.1171   26.6977 C.ar    1  UNL1        0.0503
     35 C          -2.6323    3.5564   27.1206 C.ar    1  UNL1        0.0147
     36 C          -3.6954    3.7932   26.0893 C.ar    1  UNL1        0.0013
     37 C          -3.3881    3.5908   24.6351 C.ar    1  UNL1        0.0001
     38 C          -2.0176    3.1516   24.2122 C.ar    1  UNL1        0.0013
     39 C          -0.9545    2.9147   25.2436 C.ar    1  UNL1        0.0147
     40 C          -4.4513    3.8277   23.6038 C.2     1  UNL1        0.0012
     41 C          -5.8699    4.0646   24.0298 C.2     1  UNL1        0.0151
     42 C          -6.9330    4.3015   22.9986 C.2     1  UNL1        0.0729
     43 O          -6.5761    4.3101   21.5416 O.co2   1  UNL1       -0.5446
     44 O          -8.3532    4.5297   23.4241 O.co2   1  UNL1       -0.5446
@<TRIPOS>UNITY_ATOM_ATTR
43 1
charge -1
@<TRIPOS>BOND
     1     5     6    1
     2     6     7   ar
     3     7    15    1
     4    15    16   ar
     5    16    17   ar
     6    17    18   ar
     7    18    19   ar
     8    19    20   ar
     9     7     8   ar
    10     8    21    1
    11    21    22    1
    12    22    23    1
    13    23    24    1
    14    24    25    1
    15     8     9   ar
    16     9    10   ar
    17    10    11   ar
    18    11    12   ar
    19    12     1    1
    20     1     2    2
    21     1     3   am
    22     3    26    1
    23    26    30    1
    24    30    31    2
    25    30    32   am
    26    32    34    1
    27    34    35   ar
    28    35    36   ar
    29    36    37   ar
    30    37    40    1
    31    40    41    2
    32    41    42    1
    33    42    43   ar
    34    42    44   ar
    35    37    38   ar
    36    38    39   ar
    37    26    27    1
    38    27    28    1
    39    28    29    1
    40    12    13   ar
    41    13    14   ar
    42    14     6   ar
    43    20    15   ar
    44    25    21    1
    45    14     9   ar
    46    29    26    1
    47    39    34   ar
    48     3     4    1
    49    32    33    1
@<TRIPOS>MOLECULE
*****
 44 49 0 0 0
SMALL
GASTEIGER

@<TRIPOS>ATOM
      1 C           7.0964   -4.4686   25.2373 C.2     1  UNL1        0.2461
      2 O           8.5634   -4.3142   24.9649 O.2     1  UNL1       -0.2701
      3 N           6.6160   -5.5366   26.1746 N.am    1  UNL1       -0.2964
      4 H           5.6532   -5.6379   26.3534 H       1  UNL1        0.1501
      5 C           3.5842    0.0561   26.6454 C.3     1  UNL1        0.1305
      6 N           3.6024   -0.4417   25.2306 N.ar    1  UNL1       -0.3242
      7 C           2.7941    0.1070   24.0924 C.ar    1  UNL1        0.0738
      8 C           3.1244   -0.6878   22.8639 C.ar    1  UNL1       -0.0038
      9 C           4.1369   -1.7277   23.2428 C.ar    1  UNL1        0.0133
     10 C           4.8279   -2.7934   22.4449 C.ar    1  UNL1        0.0013
     11 C           5.8144   -3.7070   23.1098 C.ar    1  UNL1        0.0046
     12 C           6.1099   -3.5549   24.5725 C.ar    1  UNL1        0.0548
     13 C           5.4188   -2.4892   25.3704 C.ar    1  UNL1        0.0217
     14 C           4.4323   -1.5756   24.7055 C.ar    1  UNL1        0.0598
     15 C           1.8255    1.2498   24.1692 C.ar    1  UNL1        0.0967
     16 C           0.5017    1.0665   24.8502 C.ar    1  UNL1        0.0206
     17 C          -0.4668    2.2093   24.9270 C.ar    1  UNL1        0.0032
     18 C          -0.1116    3.5354   24.3228 C.ar    1  UNL1        0.0207
     19 C           1.2122    3.7187   23.6417 C.ar    1  UNL1        0.0989
     20 N           2.1808    2.5759   23.5649 N.ar    1  UNL1       -0.2424
     21 C           2.5441   -0.4793   21.4964 C.3     1  UNL1        0.0238
     22 C           1.0875   -0.3341   21.1695 C.3     1  UNL1        0.0044
     23 C           0.9617   -0.1445   19.6869 C.3     1  UNL1        0.0003
     24 C           2.3408   -0.1725   19.0975 C.3     1  UNL1        0.0003
     25 C           3.3188   -0.3795   20.2158 C.3     1  UNL1        0.0044
     26 C           7.6026   -6.4503   26.8394 C.3     1  UNL1        0.1260
     27 C           7.5120   -7.3939   25.6770 C.3     1  UNL1        0.0270
     28 C           8.4985   -8.3076   26.3418 C.3     1  UNL1        0.0043
     29 C           8.5891   -7.3640   27.5042 C.3     1  UNL1        0.0270
     30 C           7.6932   -5.5067   28.0019 C.2     1  UNL1        0.2419
     31 O           9.0344   -5.1203   28.5516 O.2     1  UNL1       -0.2731
     32 N           6.4427   -4.9494   28.6148 N.am    1  UNL1       -0.2826
     33 H           5.5624   -5.2030   28.2540 H       1  UNL1        0.1549
     34 C           6.5333   -4.0058   29.7773 C.ar    1  UNL1        0.0503
     35 C           6.7491   -4.5403   31.1621 C.ar    1  UNL1        0.0147
     36 C           6.8398   -3.5967   32.3246 C.ar    1  UNL1        0.0013
     37 C           6.7146   -2.1185   32.1023 C.ar    1  UNL1        0.0001
     38 C           6.4988   -1.5840   30.7175 C.ar    1  UNL1        0.0013
     39 C           6.4082   -2.5276   29.5550 C.ar    1  UNL1        0.0147
     40 C           6.8053   -1.1750   33.2648 C.2     1  UNL1        0.0012
     41 C           5.6031   -0.9308   34.1281 C.2     1  UNL1        0.0151
     42 C           5.6938    0.0128   35.2906 C.2     1  UNL1        0.0729
     43 O           5.5756    1.4914   35.0674 O.co2   1  UNL1       -0.5446
     44 O           5.9026   -0.5222   36.6763 O.co2   1  UNL1       -0.5446
@<TRIPOS>UNITY_ATOM_ATTR
43 1
charge -1
@<TRIPOS>BOND
     1     5     6    1
     2     6     7   ar
     3     7    15    1
     4    15    16   ar
     5    16    17   ar
     6    17    18   ar
     7    18    19   ar
     8    19    20   ar
     9     7     8   ar
    10     8    21    1
    11    21    22    1
    12    22    23    1
    13    23    24    1
    14    24    25    1
    15     8     9   ar
    16     9    10   ar
    17    10    11   ar
    18    11    12   ar
    19    12     1    1
    20     1     2    2
    21     1     3   am
    22     3    26    1
    23    26    30    1
    24    30    31    2
    25    30    32   am
    26    32    34    1
    27    34    35   ar
    28    35    36   ar
    29    36    37   ar
    30    37    40    1
    31    40    41    2
    32    41    42    1
    33    42    43   ar
    34    42    44   ar
    35    37    38   ar
    36    38    39   ar
    37    26    27    1
    38    27    28    1
    39    28    29    1
    40    12    13   ar
    41    13    14   ar
    42    14     6   ar
    43    20    15   ar
    44    25    21    1
    45    14     9   ar
    46    29    26    1
    47    39    34   ar
    48     3     4    1
    49    32    33    1
@<TRIPOS>MOLECULE
*****
 44 49 0 0 0
SMALL
GASTEIGER

@<TRIPOS>ATOM
      1 C           4.2788   -0.7337   21.5131 C.2     1  UNL1        0.2461
      2 O           4.9251    0.5872   21.2175 O.2     1  UNL1       -0.2701
      3 N           2.9996   -1.1129   20.8279 N.am    1  UNL1       -0.2964
      4 H           2.5754   -1.9799   21.0220 H       1  UNL1        0.1501
      5 C           6.0793   -0.7477   27.1300 C.3     1  UNL1        0.1305
      6 N           6.2391   -1.9926   26.3086 N.ar    1  UNL1       -0.3242
      7 C           6.8291   -3.2892   26.7784 C.ar    1  UNL1        0.0738
      8 C           6.7915   -4.2573   25.6333 C.ar    1  UNL1       -0.0038
      9 C           6.1782   -3.5591   24.4559 C.ar    1  UNL1        0.0133
     10 C           5.8865   -4.0171   23.0576 C.ar    1  UNL1        0.0013
     11 C           5.2534   -3.0753   22.0767 C.ar    1  UNL1        0.0046
     12 C           4.9120   -1.6755   22.4941 C.ar    1  UNL1        0.0548
     13 C           5.2037   -1.2176   23.8924 C.ar    1  UNL1        0.0217
     14 C           5.8368   -2.1594   24.8732 C.ar    1  UNL1        0.0598
     15 C           7.3631   -3.5685   28.1520 C.ar    1  UNL1        0.0967
     16 C           8.8331   -3.7866   28.3553 C.ar    1  UNL1        0.0206
     17 C           9.3671   -4.0659   29.7289 C.ar    1  UNL1        0.0032
     18 C           8.4309   -4.1272   30.8993 C.ar    1  UNL1        0.0207
     19 C           6.9609   -3.9092   30.6961 C.ar    1  UNL1        0.0989
     20 N           6.4270   -3.6298   29.3224 N.ar    1  UNL1       -0.2424
     21 C           7.2812   -5.6749   25.6608 C.3     1  UNL1        0.0238
     22 C           6.8792   -6.7275   26.6508 C.3     1  UNL1        0.0044
     23 C           7.6084   -7.9919   26.3050 C.3     1  UNL1        0.0003
     24 C           8.4612   -7.7206   25.1012 C.3     1  UNL1        0.0003
     25 C           8.2589   -6.2886   24.7030 C.3     1  UNL1        0.0044
     26 C           2.3664   -0.1711   19.8469 C.3     1  UNL1        0.1260
     27 C           3.3227   -0.6320   18.7873 C.3     1  UNL1        0.0270
     28 C           2.6897    0.3097   17.8063 C.3     1  UNL1        0.0043
     29 C           1.7334    0.7706   18.8660 C.3     1  UNL1        0.0270
     30 C           1.4101    0.2898   20.9066 C.2     1  UNL1        0.2419
     31 O          -0.0042   -0.2103   20.9095 O.2     1  UNL1       -0.2731
     32 N           1.8679    1.2508   21.9634 N.am    1  UNL1       -0.2826
     33 H           2.7961    1.5790   21.9616 H       1  UNL1        0.1549
     34 C           0.9115    1.7117   23.0232 C.ar    1  UNL1        0.0503
     35 C           0.8697    1.0141   24.3504 C.ar    1  UNL1        0.0147
     36 C          -0.0867    1.4749   25.4101 C.ar    1  UNL1        0.0013
     37 C          -1.0013    2.6334   25.1425 C.ar    1  UNL1        0.0001
     38 C          -0.9594    3.3310   23.8153 C.ar    1  UNL1        0.0013
     39 C          -0.0030    2.8701   22.7556 C.ar    1  UNL1        0.0147
     40 C          -1.9576    3.0943   26.2022 C.2     1  UNL1        0.0012
     41 C          -2.6003    4.4455   26.0962 C.2     1  UNL1        0.0151
     42 C          -3.5566    4.9063   27.1559 C.2     1  UNL1        0.0729
     43 O          -3.2142    6.0895   28.0120 O.co2   1  UNL1       -0.5446
     44 O          -4.8554    4.1840   27.3595 O.co2   1  UNL1       -0.5446
@<TRIPOS>UNITY_ATOM_ATTR
43 1
charge -1
@<TRIPOS>BOND
     1     5     6    1
     2     6     7   ar
     3     7    15    1
     4    15    16   ar
     5    16    17   ar
     6    17    18   ar
     7    18    19   ar
     8    19    20   ar
     9     7     8   ar
    10     8    21    1
    11    21    22    1
    12    22    23    1
    13    23    24    1
    14    24    25    1
    15     8     9   ar
    16     9    10   ar
    17    10    11   ar
    18    11    12   ar
    19    12     1    1
    20     1     2    2
    21     1     3   am
    22     3    26    1
    23    26    30    1
    24    30    31    2
    25    30    32   am
    26    32    34    1
    27    34    35   ar
    28    35    36   ar
    29    36    37   ar
    30    37    40    1
    31    40    41    2
    32    41    42    1
    33    42    43   ar
    34    42    44   ar
    35    37    38   ar
    36    38    39   ar
    37    26    27    1
    38    27    28    1
    39    28    29    1
    40    12    13   ar
    41    13    14   ar
    42    14     6   ar
    43    20    15   ar
    44    25    21    1
    45    14     9   ar
    46    29    26    1
    47    39    34   ar
    48     3     4    1
    49    32    33    1
@<TRIPOS>MOLECULE
*****
 44 49 0 0 0
SMALL
GASTEIGER

@<TRIPOS>ATOM
      1 C           7.6890   -4.9291   25.2973 C.2     1  UNL1        0.2461
      2 O           9.1251   -4.6442   25.6237 O.2     1  UNL1       -0.2701
      3 N           6.9582   -6.0217   26.0198 N.am    1  UNL1       -0.2964
      4 H           6.0156   -6.2086   25.8055 H       1  UNL1        0.1501
      5 C           3.4337   -0.8602   24.9394 C.3     1  UNL1        0.1305
      6 N           4.1064   -1.3262   23.6823 N.ar    1  UNL1       -0.3242
      7 C           3.8028   -0.8519   22.2920 C.ar    1  UNL1        0.0738
      8 C           4.7096   -1.5810   21.3453 C.ar    1  UNL1       -0.0038
      9 C           5.5735   -2.5058   22.1505 C.ar    1  UNL1        0.0133
     10 C           6.6515   -3.4710   21.7550 C.ar    1  UNL1        0.0013
     11 C           7.3566   -4.2787   22.8039 C.ar    1  UNL1        0.0046
     12 C           6.9838   -4.1213   24.2483 C.ar    1  UNL1        0.0548
     13 C           5.9058   -3.1561   24.6438 C.ar    1  UNL1        0.0217
     14 C           5.2007   -2.3484   23.5948 C.ar    1  UNL1        0.0598
     15 C           2.7733    0.1717   21.9147 C.ar    1  UNL1        0.0967
     16 C           1.5738   -0.2324   21.1099 C.ar    1  UNL1        0.0206
     17 C           0.5443    0.7912   20.7326 C.ar    1  UNL1        0.0032
     18 C           0.7143    2.2189   21.1602 C.ar    1  UNL1        0.0207
     19 C           1.9138    2.6229   21.9650 C.ar    1  UNL1        0.0989
     20 N           2.9433    1.5993   22.3423 N.ar    1  UNL1       -0.2424
     21 C           4.7460   -1.4144   19.8550 C.3     1  UNL1        0.0238
     22 C           3.8605   -2.1148   18.8676 C.3     1  UNL1        0.0044
     23 C           4.2416   -1.6515   17.4928 C.3     1  UNL1        0.0003
     24 C           5.3628   -0.6646   17.6306 C.3     1  UNL1        0.0003
     25 C           5.6746   -0.5181   19.0906 C.3     1  UNL1        0.0044
     26 C           7.6634   -6.8295   27.0687 C.3     1  UNL1        0.1260
     27 C           8.0884   -7.8168   26.0226 C.3     1  UNL1        0.0270
     28 C           8.7936   -8.6246   27.0714 C.3     1  UNL1        0.0043
     29 C           8.3686   -7.6372   28.1176 C.3     1  UNL1        0.0270
     30 C           7.2384   -5.8421   28.1149 C.2     1  UNL1        0.2419
     31 O           5.8063   -5.4029   28.1940 O.2     1  UNL1       -0.2731
     32 N           8.2455   -5.2938   29.0819 N.am    1  UNL1       -0.2826
     33 H           9.1854   -5.5820   29.0300 H       1  UNL1        0.1549
     34 C           7.8205   -4.3064   30.1281 C.ar    1  UNL1        0.0503
     35 C           8.2052   -2.8626   29.9970 C.ar    1  UNL1        0.0147
     36 C           7.7802   -1.8752   31.0431 C.ar    1  UNL1        0.0013
     37 C           6.9704   -2.3316   32.2204 C.ar    1  UNL1        0.0001
     38 C           6.5856   -3.7755   32.3515 C.ar    1  UNL1        0.0013
     39 C           7.0107   -4.7629   31.3053 C.ar    1  UNL1        0.0147
     40 C           6.5454   -1.3442   33.2665 C.2     1  UNL1        0.0012
     41 C           5.1660   -1.4180   33.8511 C.2     1  UNL1        0.0151
     42 C           4.7410   -0.4306   34.8972 C.2     1  UNL1        0.0729
     43 O           3.9531    0.7844   34.5057 O.co2   1  UNL1       -0.5446
     44 O           5.1039   -0.6580   36.3347 O.co2   1  UNL1       -0.5446
@<TRIPOS>UNITY_ATOM_ATTR
43 1
charge -1
@<TRIPOS>BOND
     1     5     6    1
     2     6     7   ar
     3     7    15    1
     4    15    16   ar
     5    16    17   ar
     6    17    18   ar
     7    18    19   ar
     8    19    20   ar
     9     7     8   ar
    10     8    21    1
    11    21    22    1
    12    22    23    1
    13    23    24    1
    14    24    25    1
    15     8     9   ar
    16     9    10   ar
    17    10    11   ar
    18    11    12   ar
    19    12     1    1
    20     1     2    2
    21     1     3   am
    22     3    26    1
    23    26    30    1
    24    30    31    2
    25    30    32   am
    26    32    34    1
    27    34    35   ar
    28    35    36   ar
    29    36    37   ar
    30    37    40    1
    31    40    41    2
    32    41    42    1
    33    42    43   ar
    34    42    44   ar
    35    37    38   ar
    36    38    39   ar
    37    26    27    1
    38    27    28    1
    39    28    29    1
    40    12    13   ar
    41    13    14   ar
    42    14     6   ar
    43    20    15   ar
    44    25    21    1
    45    14     9   ar
    46    29    26    1
    47    39    34   ar
    48     3     4    1
    49    32    33    1
@<TRIPOS>MOLECULE
*****
 44 49 0 0 0
SMALL
GASTEIGER

@<TRIPOS>ATOM
      1 C           1.3520    0.9794   27.6152 C.2     1  UNL1        0.2461
      2 O           0.0363    0.5502   28.1938 O.2     1  UNL1       -0.2701
      3 N           2.4068    1.5671   28.5052 N.am    1  UNL1       -0.2964
      4 H           3.2703    1.8487   28.1254 H       1  UNL1        0.1501
      5 C           4.7510   -2.2433   24.0301 C.3     1  UNL1        0.1305
      6 N           3.8123   -1.2354   23.4360 N.ar    1  UNL1       -0.3242
      7 C           3.6377   -0.9474   21.9743 C.ar    1  UNL1        0.0738
      8 C           2.6009    0.1274   21.8343 C.ar    1  UNL1       -0.0038
      9 C           2.1347    0.5038   23.2094 C.ar    1  UNL1        0.0133
     10 C           1.1251    1.5046   23.6880 C.ar    1  UNL1        0.0013
     11 C           0.8643    1.6631   25.1566 C.ar    1  UNL1        0.0046
     12 C           1.6129    0.8208   26.1466 C.ar    1  UNL1        0.0548
     13 C           2.6225   -0.1800   25.6679 C.ar    1  UNL1        0.0217
     14 C           2.8833   -0.3385   24.1994 C.ar    1  UNL1        0.0598
     15 C           4.3712   -1.6168   20.8501 C.ar    1  UNL1        0.0967
     16 C           3.6796   -2.6535   20.0154 C.ar    1  UNL1        0.0206
     17 C           4.4130   -3.3229   18.8912 C.ar    1  UNL1        0.0032
     18 C           5.8382   -2.9555   18.6016 C.ar    1  UNL1        0.0207
     19 C           6.5299   -1.9188   19.4362 C.ar    1  UNL1        0.0989
     20 N           5.7964   -1.2494   20.5605 N.ar    1  UNL1       -0.2424
     21 C           2.1155    0.7217   20.5454 C.3     1  UNL1        0.0238
     22 C           1.1587    0.0810   19.5842 C.3     1  UNL1        0.0044
     23 C           0.9535    1.0243   18.4361 C.3     1  UNL1        0.0003
     24 C           1.7836    2.2481   18.6878 C.3     1  UNL1        0.0003
     25 C           2.5017    2.0611   19.9914 C.3     1  UNL1        0.0044
     26 C           2.1459    1.7256   29.9738 C.3     1  UNL1        0.1260
     27 C           1.4265    3.0145   29.7068 C.3     1  UNL1        0.0270
     28 C           1.1656    3.1731   31.1754 C.3     1  UNL1        0.0043
     29 C           1.8850    1.8843   31.4424 C.3     1  UNL1        0.0270
     30 C           2.8652    0.4368   30.2408 C.2     1  UNL1        0.2419
     31 O           2.0856   -0.8257   30.4608 O.2     1  UNL1       -0.2731
     32 N           4.3643    0.4103   30.2879 N.am    1  UNL1       -0.2826
     33 H           4.8760    1.2389   30.1435 H       1  UNL1        0.1549
     34 C           5.0836   -0.8786   30.5549 C.ar    1  UNL1        0.0503
     35 C           5.8070   -1.5781   29.4425 C.ar    1  UNL1        0.0147
     36 C           6.5264   -2.8670   29.7095 C.ar    1  UNL1        0.0013
     37 C           6.5223   -3.4564   31.0888 C.ar    1  UNL1        0.0001
     38 C           5.7989   -2.7569   32.2012 C.ar    1  UNL1        0.0013
     39 C           5.0796   -1.4680   31.9342 C.ar    1  UNL1        0.0147
     40 C           7.2417   -4.7453   31.3558 C.2     1  UNL1        0.0012
     41 C           8.0760   -5.3753   30.2802 C.2     1  UNL1        0.0151
     42 C           8.7953   -6.6642   30.5471 C.2     1  UNL1        0.0729
     43 O           9.3126   -7.4853   29.4033 O.co2   1  UNL1       -0.5446
     44 O           8.9974   -7.1320   31.9579 O.co2   1  UNL1       -0.5446
@<TRIPOS>UNITY_ATOM_ATTR
43 1
charge -1
@<TRIPOS>BOND
     1     5     6    1
     2     6     7   ar
     3     7    15    1
     4    15    16   ar
     5    16    17   ar
     6    17    18   ar
     7    18    19   ar
     8    19    20   ar
     9     7     8   ar
    10     8    21    1
    11    21    22    1
    12    22    23    1
    13    23    24    1
    14    24    25    1
    15     8     9   ar
    16     9    10   ar
    17    10    11   ar
    18    11    12   ar
    19    12     1    1
    20     1     2    2
    21     1     3   am
    22     3    26    1
    23    26    30    1
    24    30    31    2
    25    30    32   am
    26    32    34    1
    27    34    35   ar
    28    35    36   ar
    29    36    37   ar
    30    37    40    1
    31    40    41    2
    32    41    42    1
    33    42    43   ar
    34    42    44   ar
    35    37    38   ar
    36    38    39   ar
    37    26    27    1
    38    27    28    1
    39    28    29    1
    40    12    13   ar
    41    13    14   ar
    42    14     6   ar
    43    20    15   ar
    44    25    21    1
    45    14     9   ar
    46    29    26    1
    47    39    34   ar
    48     3     4    1
    49    32    33    1
@<TRIPOS>MOLECULE
*****
 44 49 0 0 0
SMALL
GASTEIGER

@<TRIPOS>ATOM
      1 C           0.0766    1.3757   28.1718 C.2     1  UNL1        0.2461
      2 O          -1.3347    0.8898   28.3211 O.2     1  UNL1       -0.2701
      3 N           0.4326    2.3149   27.0578 N.am    1  UNL1       -0.2964
      4 H           1.3589    2.6337   26.9598 H       1  UNL1        0.1501
      5 C           2.0361    2.7261   33.5689 C.3     1  UNL1        0.1305
      6 N           2.6961    1.6137   32.8092 N.ar    1  UNL1       -0.3242
      7 C           3.8433    0.7762   33.2913 C.ar    1  UNL1        0.0738
      8 C           4.1809   -0.2115   32.2141 C.ar    1  UNL1       -0.0038
      9 C           3.2424    0.0155   31.0663 C.ar    1  UNL1        0.0133
     10 C           3.1048   -0.6592   29.7337 C.ar    1  UNL1        0.0013
     11 C           2.0496   -0.2058   28.7689 C.ar    1  UNL1        0.0046
     12 C           1.1319    0.9223   29.1367 C.ar    1  UNL1        0.0548
     13 C           1.2694    1.5970   30.4693 C.ar    1  UNL1        0.0217
     14 C           2.3247    1.1436   31.4341 C.ar    1  UNL1        0.0598
     15 C           4.5320    0.9040   34.6178 C.ar    1  UNL1        0.0967
     16 C           4.6613   -0.2919   35.5140 C.ar    1  UNL1        0.0206
     17 C           5.3500   -0.1641   36.8404 C.ar    1  UNL1        0.0032
     18 C           5.9094    1.1595   37.2706 C.ar    1  UNL1        0.0207
     19 C           5.7800    2.3554   36.3744 C.ar    1  UNL1        0.0989
     20 N           5.0914    2.2276   35.0480 N.ar    1  UNL1       -0.2424
     21 C           5.2665   -1.2449   32.2742 C.3     1  UNL1        0.0238
     22 C           5.0725   -2.7156   32.4962 C.3     1  UNL1        0.0044
     23 C           6.4228   -3.3687   32.4820 C.3     1  UNL1        0.0003
     24 C           7.4514   -2.3015   32.2512 C.3     1  UNL1        0.0003
     25 C           6.7367   -0.9890   32.1228 C.3     1  UNL1        0.0044
     26 C          -0.6227    2.7682   26.0929 C.3     1  UNL1        0.1260
     27 C          -1.1321    3.7463   27.1097 C.3     1  UNL1        0.0270
     28 C          -2.1873    4.1997   26.1449 C.3     1  UNL1        0.0043
     29 C          -1.6779    3.2216   25.1281 C.3     1  UNL1        0.0270
     30 C          -0.1133    1.7902   25.0761 C.2     1  UNL1        0.2419
     31 O          -0.2146    0.3164   25.3366 O.2     1  UNL1       -0.2731
     32 N           0.4974    2.2858   23.7989 N.am    1  UNL1       -0.2826
     33 H           0.5639    3.2531   23.6279 H       1  UNL1        0.1549
     34 C           1.0068    1.3076   22.7821 C.ar    1  UNL1        0.0503
     35 C           2.2759    0.5507   23.0396 C.ar    1  UNL1        0.0147
     36 C           2.7853   -0.4274   22.0229 C.ar    1  UNL1        0.0013
     37 C           2.0256   -0.6486   20.7486 C.ar    1  UNL1        0.0001
     38 C           0.7564    0.1082   20.4910 C.ar    1  UNL1        0.0013
     39 C           0.2470    1.0864   21.5078 C.ar    1  UNL1        0.0147
     40 C           2.5350   -1.6268   19.7319 C.2     1  UNL1        0.0012
     41 C           3.8869   -2.2531   19.9053 C.2     1  UNL1        0.0151
     42 C           4.3963   -3.2312   18.8886 C.2     1  UNL1        0.0729
     43 O           5.3943   -2.7912   17.8588 O.co2   1  UNL1       -0.5446
     44 O           3.9077   -4.6493   18.9015 O.co2   1  UNL1       -0.5446
@<TRIPOS>UNITY_ATOM_ATTR
43 1
charge -1
@<TRIPOS>BOND
     1     5     6    1
     2     6     7   ar
     3     7    15    1
     4    15    16   ar
     5    16    17   ar
     6    17    18   ar
     7    18    19   ar
     8    19    20   ar
     9     7     8   ar
    10     8    21    1
    11    21    22    1
    12    22    23    1
    13    23    24    1
    14    24    25    1
    15     8     9   ar
    16     9    10   ar
    17    10    11   ar
    18    11    12   ar
    19    12     1    1
    20     1     2    2
    21     1     3   am
    22     3    26    1
    23    26    30    1
    24    30    31    2
    25    30    32   am
    26    32    34    1
    27    34    35   ar
    28    35    36   ar
    29    36    37   ar
    30    37    40    1
    31    40    41    2
    32    41    42    1
    33    42    43   ar
    34    42    44   ar
    35    37    38   ar
    36    38    39   ar
    37    26    27    1
    38    27    28    1
    39    28    29    1
    40    12    13   ar
    41    13    14   ar
    42    14     6   ar
    43    20    15   ar
    44    25    21    1
    45    14     9   ar
    46    29    26    1
    47    39    34   ar
    48     3     4    1
    49    32    33    1
