@<TRIPOS>MOLECULE
*****
 22 26 0 0 0
SMALL
GASTEIGER

@<TRIPOS>ATOM
      1 C          -2.3736  -17.8432   22.7624 C.3     1  UNL1        0.1537
      2 N          -3.8684  -17.8983   22.6499 N.ar    1  UNL1       -0.2491
      3 N          -4.8392  -16.9946   23.3507 N.ar    1  UNL1       -0.1719
      4 C          -6.2255  -17.4046   22.9508 C.ar    1  UNL1        0.1002
      5 C          -6.1115  -18.5616   22.0029 C.ar    1  UNL1        0.0386
      6 C          -7.1461  -19.3767   21.2851 C.ar    1  UNL1        0.0563
      7 C          -6.7239  -20.4969   20.3814 C.ar    1  UNL1        0.0047
      8 C          -5.2671  -20.8020   20.1954 C.ar    1  UNL1        0.0017
      9 C          -4.2325  -19.9869   20.9132 C.ar    1  UNL1        0.0188
     10 C          -4.6547  -18.8667   21.8170 C.ar    1  UNL1        0.0793
     11 C          -8.5101  -18.8539   21.6545 C.2     1  UNL1        0.2494
     12 O          -9.6524  -19.5785   21.0064 O.2     1  UNL1       -0.2699
     13 N          -8.7797  -17.7089   22.5855 N.am    1  UNL1       -0.2706
     14 C          -7.6374  -16.9843   23.2336 C.3     1  UNL1        0.1413
     15 C         -11.4320  -17.3801   22.7373 C.3     1  UNL1        0.0920
     16 C         -11.8957  -18.1866   23.7243 C.3     1  UNL1        0.0921
     17 N         -12.2237  -18.6591   24.3135 N.3     1  UNL1       -0.2713
     18 C         -13.1764  -17.7963   23.5402 C.3     1  UNL1        0.0722
     19 C         -12.6635  -16.9044   22.4487 C.3     1  UNL1        0.0191
     20 C         -11.1980  -16.8753   22.1304 C.3     1  UNL1        0.0224
     21 C         -10.2453  -17.7381   22.9037 C.3     1  UNL1        0.0191
     22 C         -10.7581  -18.6300   23.9953 C.3     1  UNL1        0.0722
@<TRIPOS>BOND
     1     1     2    1
     2     2     3   ar
     3     3     4   ar
     4     4     5   ar
     5     5     6   ar
     6     6     7   ar
     7     7     8   ar
     8     8     9   ar
     9     9    10   ar
    10     6    11    1
    11    11    12    2
    12    11    13   am
    13    15    13    1
    14    15    16    1
    15    16    17    1
    16    17    18    1
    17    18    19    1
    18    19    20    1
    19    20    21    1
    20    21    22    1
    21    13    14    1
    22    10     2   ar
    23    20    15    1
    24    14     4    1
    25    10     5   ar
    26    22    17    1
@<TRIPOS>MOLECULE
*****
 22 26 0 0 0
SMALL
GASTEIGER

@<TRIPOS>ATOM
      1 C         -13.4315  -18.5599   25.0413 C.3     1  UNL1        0.1537
      2 N         -12.1953  -18.7757   24.2195 N.ar    1  UNL1       -0.2491
      3 N         -10.9557  -19.4941   24.6635 N.ar    1  UNL1       -0.1719
      4 C          -9.9760  -19.4734   23.5278 C.ar    1  UNL1        0.1002
      5 C         -10.6102  -18.7421   22.3819 C.ar    1  UNL1        0.0386
      6 C         -10.1160  -18.4132   21.0044 C.ar    1  UNL1        0.0563
      7 C         -10.9933  -17.6531   20.0544 C.ar    1  UNL1        0.0047
      8 C         -12.3648  -17.2219   20.4819 C.ar    1  UNL1        0.0017
      9 C         -12.8591  -17.5509   21.8594 C.ar    1  UNL1        0.0188
     10 C         -11.9818  -18.3110   22.8094 C.ar    1  UNL1        0.0793
     11 C          -8.7215  -18.9629   20.8510 C.2     1  UNL1        0.2494
     12 O          -8.0941  -18.7077   19.5125 O.2     1  UNL1       -0.2699
     13 N          -7.9615  -19.7127   21.9047 N.am    1  UNL1       -0.2706
     14 C          -8.5888  -19.9679   23.2431 C.3     1  UNL1        0.1413
     15 C          -5.5698  -20.3582   20.8905 C.3     1  UNL1        0.0920
     16 C          -4.6517  -19.5094   21.4161 C.3     1  UNL1        0.0921
     17 N          -4.0591  -19.0180   21.7083 N.3     1  UNL1       -0.2713
     18 C          -3.6309  -20.0787   20.7380 C.3     1  UNL1        0.0722
     19 C          -4.6461  -21.0175   20.1566 C.3     1  UNL1        0.0191
     20 C          -6.0897  -20.8955   20.5455 C.3     1  UNL1        0.0224
     21 C          -6.5179  -19.8347   21.5158 C.3     1  UNL1        0.0191
     22 C          -5.5027  -18.8960   22.0972 C.3     1  UNL1        0.0722
@<TRIPOS>BOND
     1     1     2    1
     2     2     3   ar
     3     3     4   ar
     4     4     5   ar
     5     5     6   ar
     6     6     7   ar
     7     7     8   ar
     8     8     9   ar
     9     9    10   ar
    10     6    11    1
    11    11    12    2
    12    11    13   am
    13    15    13    1
    14    15    16    1
    15    16    17    1
    16    17    18    1
    17    18    19    1
    18    19    20    1
    19    20    21    1
    20    21    22    1
    21    13    14    1
    22    10     2   ar
    23    20    15    1
    24    14     4    1
    25    10     5   ar
    26    22    17    1
@<TRIPOS>MOLECULE
*****
 22 26 0 0 0
SMALL
GASTEIGER

@<TRIPOS>ATOM
      1 C         -13.2475    2.3197   17.0574 C.3     1  UNL1        0.1537
      2 N         -12.8530    0.9197   17.4238 N.ar    1  UNL1       -0.2491
      3 N         -11.5918    0.2217   17.0089 N.ar    1  UNL1       -0.1719
      4 C         -11.6099   -1.1575   17.5981 C.ar    1  UNL1        0.1002
      5 C         -12.8823   -1.3120   18.3773 C.ar    1  UNL1        0.0386
      6 C         -13.4406   -2.4559   19.1710 C.ar    1  UNL1        0.0563
      7 C         -14.7672   -2.3160   19.8569 C.ar    1  UNL1        0.0047
      8 C         -15.5355   -1.0322   19.7492 C.ar    1  UNL1        0.0017
      9 C         -14.9772    0.1116   18.9555 C.ar    1  UNL1        0.0188
     10 C         -13.6506   -0.0283   18.2696 C.ar    1  UNL1        0.0793
     11 C         -12.4676   -3.6045   19.1070 C.2     1  UNL1        0.2494
     12 O         -12.8964   -4.8280   19.8615 O.2     1  UNL1       -0.2699
     13 N         -11.1608   -3.5972   18.3704 N.am    1  UNL1       -0.2706
     14 C         -10.7320   -2.3737   17.6160 C.3     1  UNL1        0.1413
     15 C         -10.0046   -5.9854   18.7241 C.3     1  UNL1        0.0920
     16 C         -10.5819   -6.8593   17.8624 C.3     1  UNL1        0.0921
     17 N         -10.9020   -7.4256   17.3575 N.3     1  UNL1       -0.2713
     18 C          -9.8148   -7.8902   18.2807 C.3     1  UNL1        0.0722
     19 C          -9.1762   -6.9237   19.2337 C.3     1  UNL1        0.0191
     20 C          -9.6249   -5.4928   19.2636 C.3     1  UNL1        0.0224
     21 C         -10.7121   -5.0282   18.3405 C.3     1  UNL1        0.0191
     22 C         -11.3507   -5.9946   17.3874 C.3     1  UNL1        0.0722
@<TRIPOS>BOND
     1     1     2    1
     2     2     3   ar
     3     3     4   ar
     4     4     5   ar
     5     5     6   ar
     6     6     7   ar
     7     7     8   ar
     8     8     9   ar
     9     9    10   ar
    10     6    11    1
    11    11    12    2
    12    11    13   am
    13    15    13    1
    14    15    16    1
    15    16    17    1
    16    17    18    1
    17    18    19    1
    18    19    20    1
    19    20    21    1
    20    21    22    1
    21    13    14    1
    22    10     2   ar
    23    20    15    1
    24    14     4    1
    25    10     5   ar
    26    22    17    1
@<TRIPOS>MOLECULE
*****
 22 26 0 0 0
SMALL
GASTEIGER

@<TRIPOS>ATOM
      1 C          -9.9636   -4.3797   18.9234 C.3     1  UNL1        0.1537
      2 N         -11.2633   -5.1285   18.9105 N.ar    1  UNL1       -0.2491
      3 N         -11.4815   -6.5063   18.3589 N.ar    1  UNL1       -0.1719
      4 C         -12.9259   -6.8604   18.5545 C.ar    1  UNL1        0.1002
      5 C         -13.6004   -5.7014   19.2268 C.ar    1  UNL1        0.0386
      6 C         -15.0175   -5.4824   19.6671 C.ar    1  UNL1        0.0563
      7 C         -15.4070   -4.1932   20.3274 C.ar    1  UNL1        0.0047
      8 C         -14.3794   -3.1229   20.5474 C.ar    1  UNL1        0.0017
      9 C         -12.9623   -3.3418   20.1071 C.ar    1  UNL1        0.0188
     10 C         -12.5728   -4.6311   19.4468 C.ar    1  UNL1        0.0793
     11 C         -15.8217   -6.7096   19.3240 C.2     1  UNL1        0.2494
     12 O         -17.2695   -6.6342   19.7088 O.2     1  UNL1       -0.2699
     13 N         -15.2868   -7.9405   18.6540 N.am    1  UNL1       -0.2706
     14 C         -13.8389   -8.0159   18.2692 C.3     1  UNL1        0.1413
     15 C         -17.3086   -9.6740   18.3845 C.3     1  UNL1        0.0920
     16 C         -18.0779   -9.2586   17.3476 C.3     1  UNL1        0.0921
     17 N         -18.5748   -9.0461   16.7263 N.3     1  UNL1       -0.2713
     18 C         -18.9427  -10.2881   17.4827 C.3     1  UNL1        0.0722
     19 C         -18.0920  -10.7476   18.6295 C.3     1  UNL1        0.0191
     20 C         -16.8734   -9.9650   19.0199 C.3     1  UNL1        0.0224
     21 C         -16.5054   -8.7230   18.2636 C.3     1  UNL1        0.0191
     22 C         -17.3561   -8.2636   17.1168 C.3     1  UNL1        0.0722
@<TRIPOS>BOND
     1     1     2    1
     2     2     3   ar
     3     3     4   ar
     4     4     5   ar
     5     5     6   ar
     6     6     7   ar
     7     7     8   ar
     8     8     9   ar
     9     9    10   ar
    10     6    11    1
    11    11    12    2
    12    11    13   am
    13    15    13    1
    14    15    16    1
    15    16    17    1
    16    17    18    1
    17    18    19    1
    18    19    20    1
    19    20    21    1
    20    21    22    1
    21    13    14    1
    22    10     2   ar
    23    20    15    1
    24    14     4    1
    25    10     5   ar
    26    22    17    1
@<TRIPOS>MOLECULE
*****
 22 26 0 0 0
SMALL
GASTEIGER

@<TRIPOS>ATOM
      1 C          -8.8728   -3.9533   16.3128 C.3     1  UNL1        0.1537
      2 N         -10.1877   -4.5841   16.6636 N.ar    1  UNL1       -0.2491
      3 N         -10.7152   -5.8808   16.1248 N.ar    1  UNL1       -0.1719
      4 C         -12.0594   -6.1271   16.7431 C.ar    1  UNL1        0.1002
      5 C         -12.3627   -4.9825   17.6641 C.ar    1  UNL1        0.0386
      6 C         -13.5428   -4.6855   18.5411 C.ar    1  UNL1        0.0563
      7 C         -13.5661   -3.4350   19.3690 C.ar    1  UNL1        0.0047
      8 C         -12.4093   -2.4814   19.3199 C.ar    1  UNL1        0.0017
      9 C         -11.2292   -2.7784   18.4429 C.ar    1  UNL1        0.0188
     10 C         -11.2059   -4.0290   17.6150 C.ar    1  UNL1        0.0793
     11 C         -14.5435   -5.8023   18.3935 C.2     1  UNL1        0.2494
     12 O         -15.7856   -5.6399   19.2187 O.2     1  UNL1       -0.2699
     13 N         -14.3794   -7.0065   17.5142 N.am    1  UNL1       -0.2706
     14 C         -13.1373   -7.1688   16.6890 C.3     1  UNL1        0.1413
     15 C         -16.5642   -8.5285   17.7886 C.3     1  UNL1        0.0920
     16 C         -16.3502   -9.3820   18.8207 C.3     1  UNL1        0.0921
     17 N         -16.2663   -9.9191   19.4392 N.3     1  UNL1       -0.2713
     18 C         -17.5649   -9.9595   18.6895 C.3     1  UNL1        0.0722
     19 C         -17.8017   -9.0156   17.5480 C.3     1  UNL1        0.0191
     20 C         -16.7398   -8.0312   17.1563 C.3     1  UNL1        0.0224
     21 C         -15.4412   -7.9908   17.9060 C.3     1  UNL1        0.0191
     22 C         -15.2045   -8.9347   19.0474 C.3     1  UNL1        0.0722
@<TRIPOS>BOND
     1     1     2    1
     2     2     3   ar
     3     3     4   ar
     4     4     5   ar
     5     5     6   ar
     6     6     7   ar
     7     7     8   ar
     8     8     9   ar
     9     9    10   ar
    10     6    11    1
    11    11    12    2
    12    11    13   am
    13    15    13    1
    14    15    16    1
    15    16    17    1
    16    17    18    1
    17    18    19    1
    18    19    20    1
    19    20    21    1
    20    21    22    1
    21    13    14    1
    22    10     2   ar
    23    20    15    1
    24    14     4    1
    25    10     5   ar
    26    22    17    1
