@<TRIPOS>MOLECULE
*****
 27 30 0 0 0
SMALL
GASTEIGER

@<TRIPOS>ATOM
      1 C         -10.8014  -19.9563   22.7640 C.3     1  UNL1        0.0759
      2 N          -9.5058  -19.7468   22.0375 N.3     1  UNL1       -0.2726
      3 C          -8.2057  -19.8460   22.7789 C.3     1  UNL1        0.0721
      4 C          -6.9102  -19.6365   22.0525 C.3     1  UNL1        0.0178
      5 C          -6.9149  -19.3277   20.5846 C.3     1  UNL1        0.0087
      6 C          -8.2150  -19.2285   19.8432 C.3     1  UNL1        0.0178
      7 C          -9.5105  -19.4380   20.5696 C.3     1  UNL1        0.0721
      8 C          -5.6193  -19.1182   19.8582 C.3     1  UNL1        0.0453
      9 C          -4.3195  -19.2096   20.6012 C.ar    1  UNL1        0.0541
     10 C          -3.3587  -20.3607   20.5588 C.ar    1  UNL1        0.1131
     11 N          -2.1977  -20.0284   21.4485 N.ar    1  UNL1       -0.2229
     12 C          -2.4409  -18.6719   22.0409 C.ar    1  UNL1        0.1748
     13 N          -3.7523  -18.1659   21.5172 N.ar    1  UNL1       -0.3382
     14 H          -4.1678  -17.3006   21.7363 H       1  UNL1        0.1672
     15 C         -11.3782  -18.8540   23.6019 C.3     1  UNL1        0.0646
     16 C         -12.1002  -17.7137   22.9474 C.3     1  UNL1        0.2068
     17 O         -11.4090  -16.3952   22.7633 O.3     1  UNL1       -0.4754
     18 C          -6.5621  -15.4609   27.0511 C.ar    1  UNL1        0.0207
     19 C          -5.4419  -15.4923   26.0540 C.ar    1  UNL1        0.0988
     20 N          -5.7392  -15.6981   24.5982 N.ar    1  UNL1       -0.2438
     21 C          -7.1566  -15.8723   24.1395 C.ar    1  UNL1        0.0815
     22 C          -7.4538  -16.0781   22.6837 C.ar    1  UNL1        0.0222
     23 C          -8.8713  -16.2523   22.2250 C.ar    1  UNL1        0.0384
     24 C          -9.9915  -16.2209   23.2220 C.ar    1  UNL1        0.1386
     25 C          -9.6943  -16.0152   24.6778 C.ar    1  UNL1        0.0384
     26 C          -8.2768  -15.8409   25.1365 C.ar    1  UNL1        0.0207
     27 C          -7.9795  -15.6352   26.5923 C.ar    1  UNL1        0.0032
@<TRIPOS>BOND
     1    18    19   ar
     2    19    20   ar
     3    20    21   ar
     4    21    22   ar
     5    22    23   ar
     6    23    24   ar
     7    24    17    1
     8    17    16    1
     9    16    15    1
    10    15     1    1
    11     1     2    1
    12     2     3    1
    13     3     4    1
    14     4     5    1
    15     5     8    1
    16     8     9    1
    17     9    10   ar
    18    10    11   ar
    19    11    12   ar
    20    12    13   ar
    21     5     6    1
    22     6     7    1
    23    24    25   ar
    24    25    26   ar
    25    26    27   ar
    26    27    18   ar
    27    26    21   ar
    28     7     2    1
    29    13     9   ar
    30    13    14    1
@<TRIPOS>MOLECULE
*****
 27 30 0 0 0
SMALL
GASTEIGER

@<TRIPOS>ATOM
      1 C         -10.6246  -19.6647   20.4695 C.3     1  UNL1        0.0759
      2 N         -10.2384  -18.6811   21.5341 N.3     1  UNL1       -0.2726
      3 C         -10.3930  -17.2097   21.2875 C.3     1  UNL1        0.0721
      4 C         -10.0068  -16.2261   22.3521 C.3     1  UNL1        0.0178
      5 C          -9.4659  -16.7140   23.6633 C.3     1  UNL1        0.0087
      6 C          -9.3112  -18.1855   23.9100 C.3     1  UNL1        0.0178
      7 C          -9.6974  -19.1690   22.8454 C.3     1  UNL1        0.0721
      8 C          -9.0796  -15.7304   24.7280 C.3     1  UNL1        0.0453
      9 C          -7.6313  -15.4641   25.0132 C.ar    1  UNL1        0.0541
     10 C          -6.5459  -15.3056   23.9902 C.ar    1  UNL1        0.1131
     11 N          -5.2578  -15.0531   24.7163 N.ar    1  UNL1       -0.2229
     12 C          -5.5472  -15.0556   26.1882 C.ar    1  UNL1        0.1748
     13 N          -7.0141  -15.3096   26.3716 N.ar    1  UNL1       -0.3382
     14 H          -7.4885  -15.3652   27.2325 H       1  UNL1        0.1672
     15 C          -9.7218  -19.8895   19.2929 C.3     1  UNL1        0.0646
     16 C          -8.2730  -19.5101   19.3760 C.3     1  UNL1        0.2068
     17 O          -7.3339  -20.3164   20.2234 O.3     1  UNL1       -0.4754
     18 C          -1.2695  -17.9919   19.4690 C.ar    1  UNL1        0.0207
     19 C          -1.0185  -17.6928   20.9173 C.ar    1  UNL1        0.0988
     20 N          -2.0807  -17.9783   21.9371 N.ar    1  UNL1       -0.2438
     21 C          -3.3940  -18.5628   21.5087 C.ar    1  UNL1        0.0815
     22 C          -4.4563  -18.8482   22.5286 C.ar    1  UNL1        0.0222
     23 C          -5.7696  -19.4328   22.1001 C.ar    1  UNL1        0.0384
     24 C          -6.0206  -19.7319   20.6518 C.ar    1  UNL1        0.1386
     25 C          -4.9583  -19.4464   19.6320 C.ar    1  UNL1        0.0384
     26 C          -3.6450  -18.8619   20.0604 C.ar    1  UNL1        0.0207
     27 C          -2.5827  -18.5764   19.0406 C.ar    1  UNL1        0.0032
@<TRIPOS>BOND
     1    18    19   ar
     2    19    20   ar
     3    20    21   ar
     4    21    22   ar
     5    22    23   ar
     6    23    24   ar
     7    24    17    1
     8    17    16    1
     9    16    15    1
    10    15     1    1
    11     1     2    1
    12     2     3    1
    13     3     4    1
    14     4     5    1
    15     5     8    1
    16     8     9    1
    17     9    10   ar
    18    10    11   ar
    19    11    12   ar
    20    12    13   ar
    21     5     6    1
    22     6     7    1
    23    24    25   ar
    24    25    26   ar
    25    26    27   ar
    26    27    18   ar
    27    26    21   ar
    28     7     2    1
    29    13     9   ar
    30    13    14    1
@<TRIPOS>MOLECULE
*****
 27 30 0 0 0
SMALL
GASTEIGER

@<TRIPOS>ATOM
      1 C          -6.8441  -15.3660   24.4917 C.3     1  UNL1        0.0759
      2 N          -5.9644  -16.3462   23.7737 N.3     1  UNL1       -0.2726
      3 C          -6.5767  -17.4598   22.9769 C.3     1  UNL1        0.0721
      4 C          -5.6971  -18.4399   22.2589 C.3     1  UNL1        0.0178
      5 C          -4.2051  -18.3066   22.3379 C.3     1  UNL1        0.0087
      6 C          -3.5928  -17.1930   23.1347 C.3     1  UNL1        0.0178
      7 C          -4.4724  -16.2129   23.8527 C.3     1  UNL1        0.0721
      8 C          -3.3255  -19.2868   21.6199 C.3     1  UNL1        0.0453
      9 C          -2.2837  -18.7957   20.6589 C.ar    1  UNL1        0.0541
     10 C          -2.4351  -18.6954   19.1699 C.ar    1  UNL1        0.1131
     11 N          -1.1527  -18.1564   18.6089 N.ar    1  UNL1       -0.2229
     12 C          -0.2086  -17.9238   19.7511 C.ar    1  UNL1        0.1748
     13 N          -0.9076  -18.3189   21.0181 N.ar    1  UNL1       -0.3382
     14 H          -0.5297  -18.2732   21.9260 H       1  UNL1        0.1672
     15 C          -7.1753  -15.5760   25.9395 C.3     1  UNL1        0.0646
     16 C          -8.5836  -15.8915   26.3485 C.3     1  UNL1        0.2068
     17 O          -9.1248  -17.2785   26.1659 O.3     1  UNL1       -0.4754
     18 C         -11.3281  -16.5967   20.0479 C.ar    1  UNL1        0.0207
     19 C         -11.4065  -18.0604   19.7292 C.ar    1  UNL1        0.0988
     20 N         -11.0129  -19.0749   20.7615 N.ar    1  UNL1       -0.2438
     21 C         -10.5409  -18.6258   22.1126 C.ar    1  UNL1        0.0815
     22 C         -10.1473  -19.6404   23.1450 C.ar    1  UNL1        0.0222
     23 C          -9.6753  -19.1913   24.4961 C.ar    1  UNL1        0.0384
     24 C          -9.5968  -17.7276   24.8148 C.ar    1  UNL1        0.1386
     25 C          -9.9904  -16.7131   23.7825 C.ar    1  UNL1        0.0384
     26 C         -10.4625  -17.1622   22.4313 C.ar    1  UNL1        0.0207
     27 C         -10.8560  -16.1477   21.3989 C.ar    1  UNL1        0.0032
@<TRIPOS>BOND
     1    18    19   ar
     2    19    20   ar
     3    20    21   ar
     4    21    22   ar
     5    22    23   ar
     6    23    24   ar
     7    24    17    1
     8    17    16    1
     9    16    15    1
    10    15     1    1
    11     1     2    1
    12     2     3    1
    13     3     4    1
    14     4     5    1
    15     5     8    1
    16     8     9    1
    17     9    10   ar
    18    10    11   ar
    19    11    12   ar
    20    12    13   ar
    21     5     6    1
    22     6     7    1
    23    24    25   ar
    24    25    26   ar
    25    26    27   ar
    26    27    18   ar
    27    26    21   ar
    28     7     2    1
    29    13     9   ar
    30    13    14    1
@<TRIPOS>MOLECULE
*****
 27 30 0 0 0
SMALL
GASTEIGER

@<TRIPOS>ATOM
      1 C          -2.7122  -19.9279   21.0700 C.3     1  UNL1        0.0759
      2 N          -3.2232  -18.7446   21.8374 N.3     1  UNL1       -0.2726
      3 C          -4.3235  -18.9203   22.8417 C.3     1  UNL1        0.0721
      4 C          -4.8344  -17.7371   23.6091 C.3     1  UNL1        0.0178
      5 C          -4.2451  -16.3782   23.3722 C.3     1  UNL1        0.0087
      6 C          -3.1448  -16.2025   22.3680 C.3     1  UNL1        0.0178
      7 C          -2.6339  -17.3857   21.6006 C.3     1  UNL1        0.0721
      8 C          -4.7561  -15.1950   24.1397 C.3     1  UNL1        0.0453
      9 C          -6.0061  -15.3160   24.9599 C.ar    1  UNL1        0.0541
     10 C          -7.4107  -15.1789   24.4518 C.ar    1  UNL1        0.1131
     11 N          -8.3437  -15.3735   25.6100 N.ar    1  UNL1       -0.2229
     12 C          -7.5157  -15.6310   26.8341 C.ar    1  UNL1        0.1748
     13 N          -6.0710  -15.5954   26.4322 N.ar    1  UNL1       -0.3382
     14 H          -5.3006  -15.7315   27.0299 H       1  UNL1        0.1672
     15 C          -3.5608  -20.5529   20.0027 C.3     1  UNL1        0.0646
     16 C          -5.0536  -20.5740   20.1480 C.3     1  UNL1        0.2068
     17 O          -5.8651  -19.3847   19.7271 O.3     1  UNL1       -0.4754
     18 C         -10.8564  -17.9873   23.7126 C.ar    1  UNL1        0.0207
     19 C         -11.9490  -18.3976   22.7703 C.ar    1  UNL1        0.0988
     20 N         -11.6063  -18.9232   21.4078 N.ar    1  UNL1       -0.2438
     21 C         -10.1710  -19.0386   20.9877 C.ar    1  UNL1        0.0815
     22 C          -9.8283  -19.5642   19.6252 C.ar    1  UNL1        0.0222
     23 C          -8.3930  -19.6796   19.2050 C.ar    1  UNL1        0.0384
     24 C          -7.3003  -19.2693   20.1473 C.ar    1  UNL1        0.1386
     25 C          -7.6430  -18.7437   21.5098 C.ar    1  UNL1        0.0384
     26 C          -9.0784  -18.6283   21.9299 C.ar    1  UNL1        0.0207
     27 C          -9.4211  -18.1027   23.2924 C.ar    1  UNL1        0.0032
@<TRIPOS>BOND
     1    18    19   ar
     2    19    20   ar
     3    20    21   ar
     4    21    22   ar
     5    22    23   ar
     6    23    24   ar
     7    24    17    1
     8    17    16    1
     9    16    15    1
    10    15     1    1
    11     1     2    1
    12     2     3    1
    13     3     4    1
    14     4     5    1
    15     5     8    1
    16     8     9    1
    17     9    10   ar
    18    10    11   ar
    19    11    12   ar
    20    12    13   ar
    21     5     6    1
    22     6     7    1
    23    24    25   ar
    24    25    26   ar
    25    26    27   ar
    26    27    18   ar
    27    26    21   ar
    28     7     2    1
    29    13     9   ar
    30    13    14    1
@<TRIPOS>MOLECULE
*****
 27 30 0 0 0
SMALL
GASTEIGER

@<TRIPOS>ATOM
      1 C          -4.7920  -20.1525   20.4024 C.3     1  UNL1        0.0759
      2 N          -6.2201  -19.9792   20.8275 N.3     1  UNL1       -0.2726
      3 C          -6.6477  -20.3905   22.2051 C.3     1  UNL1        0.0721
      4 C          -8.0758  -20.2172   22.6301 C.3     1  UNL1        0.0178
      5 C          -9.0761  -19.6326   21.6774 C.3     1  UNL1        0.0087
      6 C          -8.6485  -19.2213   20.2998 C.3     1  UNL1        0.0178
      7 C          -7.2205  -19.3946   19.8748 C.3     1  UNL1        0.0721
      8 C         -10.5042  -19.4593   22.1025 C.3     1  UNL1        0.0453
      9 C         -11.1990  -18.1486   21.8807 C.ar    1  UNL1        0.0541
     10 C         -11.2542  -17.0049   22.8496 C.ar    1  UNL1        0.1131
     11 N         -12.0499  -15.9009   22.2187 N.ar    1  UNL1       -0.2229
     12 C         -12.4865  -16.3623   20.8598 C.ar    1  UNL1        0.1748
     13 N         -11.9607  -17.7514   20.6509 N.ar    1  UNL1       -0.3382
     14 H         -12.0923  -18.3053   19.8477 H       1  UNL1        0.1672
     15 C          -3.7857  -19.0806   20.6997 C.3     1  UNL1        0.0646
     16 C          -3.6468  -18.5485   22.0952 C.3     1  UNL1        0.2068
     17 O          -3.9538  -17.1087   22.3829 O.3     1  UNL1       -0.4754
     18 C          -7.0760  -14.9454   27.7048 C.ar    1  UNL1        0.0207
     19 C          -8.4671  -15.1288   27.1746 C.ar    1  UNL1        0.0988
     20 N          -8.6774  -15.6716   25.7921 N.ar    1  UNL1       -0.2438
     21 C          -7.4965  -16.0309   24.9398 C.ar    1  UNL1        0.0815
     22 C          -7.7067  -16.5736   23.5574 C.ar    1  UNL1        0.0222
     23 C          -6.5259  -16.9329   22.7051 C.ar    1  UNL1        0.0384
     24 C          -5.1347  -16.7494   23.2352 C.ar    1  UNL1        0.1386
     25 C          -4.9245  -16.2067   24.6177 C.ar    1  UNL1        0.0384
     26 C          -6.1054  -15.8474   25.4700 C.ar    1  UNL1        0.0207
     27 C          -5.8952  -15.3046   26.8525 C.ar    1  UNL1        0.0032
@<TRIPOS>BOND
     1    18    19   ar
     2    19    20   ar
     3    20    21   ar
     4    21    22   ar
     5    22    23   ar
     6    23    24   ar
     7    24    17    1
     8    17    16    1
     9    16    15    1
    10    15     1    1
    11     1     2    1
    12     2     3    1
    13     3     4    1
    14     4     5    1
    15     5     8    1
    16     8     9    1
    17     9    10   ar
    18    10    11   ar
    19    11    12   ar
    20    12    13   ar
    21     5     6    1
    22     6     7    1
    23    24    25   ar
    24    25    26   ar
    25    26    27   ar
    26    27    18   ar
    27    26    21   ar
    28     7     2    1
    29    13     9   ar
    30    13    14    1
@<TRIPOS>MOLECULE
*****
 27 30 0 0 0
SMALL
GASTEIGER

@<TRIPOS>ATOM
      1 C          -2.3438  -19.6506   21.2271 C.3     1  UNL1        0.0759
      2 N          -2.9883  -18.5217   21.9756 N.3     1  UNL1       -0.2726
      3 C          -2.5355  -17.1111   21.7411 C.3     1  UNL1        0.0721
      4 C          -3.1800  -15.9823   22.4896 C.3     1  UNL1        0.0178
      5 C          -4.2773  -16.2641   23.4727 C.3     1  UNL1        0.0087
      6 C          -4.7301  -17.6747   23.7073 C.3     1  UNL1        0.0178
      7 C          -4.0856  -18.8035   22.9588 C.3     1  UNL1        0.0721
      8 C          -4.9218  -15.1352   24.2213 C.3     1  UNL1        0.0453
      9 C          -6.2882  -15.3119   24.8143 C.ar    1  UNL1        0.0541
     10 C          -6.5992  -15.5125   26.2679 C.ar    1  UNL1        0.1131
     11 N          -8.0867  -15.6437   26.4099 N.ar    1  UNL1       -0.2229
     12 C          -8.6950  -15.5241   25.0439 C.ar    1  UNL1        0.1748
     13 N          -7.5835  -15.3191   24.0579 N.ar    1  UNL1       -0.3382
     14 H          -7.6860  -15.2087   23.0850 H       1  UNL1        0.1672
     15 C          -3.0790  -20.3235   20.1061 C.3     1  UNL1        0.0646
     16 C          -4.4580  -19.8666   19.7326 C.3     1  UNL1        0.2068
     17 O          -5.6352  -20.7666   19.9659 O.3     1  UNL1       -0.4754
     18 C         -11.5702  -18.0386   20.2538 C.ar    1  UNL1        0.0207
     19 C         -11.6958  -18.0572   21.7484 C.ar    1  UNL1        0.0988
     20 N         -10.5841  -18.6139   22.5876 N.ar    1  UNL1       -0.2438
     21 C          -9.3469  -19.1521   21.9322 C.ar    1  UNL1        0.0815
     22 C          -8.2352  -19.7089   22.7714 C.ar    1  UNL1        0.0222
     23 C          -6.9980  -20.2470   22.1160 C.ar    1  UNL1        0.0384
     24 C          -6.8724  -20.2284   20.6213 C.ar    1  UNL1        0.1386
     25 C          -7.9841  -19.6717   19.7821 C.ar    1  UNL1        0.0384
     26 C          -9.2213  -19.1335   20.4376 C.ar    1  UNL1        0.0207
     27 C         -10.3330  -18.5767   19.5984 C.ar    1  UNL1        0.0032
@<TRIPOS>BOND
     1    18    19   ar
     2    19    20   ar
     3    20    21   ar
     4    21    22   ar
     5    22    23   ar
     6    23    24   ar
     7    24    17    1
     8    17    16    1
     9    16    15    1
    10    15     1    1
    11     1     2    1
    12     2     3    1
    13     3     4    1
    14     4     5    1
    15     5     8    1
    16     8     9    1
    17     9    10   ar
    18    10    11   ar
    19    11    12   ar
    20    12    13   ar
    21     5     6    1
    22     6     7    1
    23    24    25   ar
    24    25    26   ar
    25    26    27   ar
    26    27    18   ar
    27    26    21   ar
    28     7     2    1
    29    13     9   ar
    30    13    14    1
@<TRIPOS>MOLECULE
*****
 27 30 0 0 0
SMALL
GASTEIGER

@<TRIPOS>ATOM
      1 C          -4.1082  -19.4539   21.1389 C.3     1  UNL1        0.0759
      2 N          -4.3858  -18.4222   22.1918 N.3     1  UNL1       -0.2726
      3 C          -5.6732  -17.6528   22.1670 C.3     1  UNL1        0.0721
      4 C          -5.9507  -16.6212   23.2199 C.3     1  UNL1        0.0178
      5 C          -4.9409  -16.3589   24.2976 C.3     1  UNL1        0.0087
      6 C          -3.6536  -17.1283   24.3224 C.3     1  UNL1        0.0178
      7 C          -3.3760  -18.1599   23.2695 C.3     1  UNL1        0.0721
      8 C          -5.2185  -15.3272   25.3505 C.3     1  UNL1        0.0453
      9 C          -6.5535  -15.2930   26.0335 C.ar    1  UNL1        0.0541
     10 C          -7.8703  -15.6570   25.4142 C.ar    1  UNL1        0.1131
     11 N          -8.9368  -15.4778   26.4537 N.ar    1  UNL1       -0.2229
     12 C          -8.2791  -15.0031   27.7155 C.ar    1  UNL1        0.1748
     13 N          -6.8062  -14.8889   27.4558 N.ar    1  UNL1       -0.3382
     14 H          -6.1249  -14.5996   28.1049 H       1  UNL1        0.1672
     15 C          -5.2072  -19.9060   20.2236 C.3     1  UNL1        0.0646
     16 C          -6.2567  -20.8541   20.7230 C.3     1  UNL1        0.2068
     17 O          -6.7956  -20.7106   22.1156 O.3     1  UNL1       -0.4754
     18 C         -12.1139  -17.1823   20.6952 C.ar    1  UNL1        0.0207
     19 C         -12.8671  -17.4919   21.9548 C.ar    1  UNL1        0.0988
     20 N         -12.2555  -18.3833   22.9947 N.ar    1  UNL1       -0.2438
     21 C         -10.8905  -18.9651   22.7749 C.ar    1  UNL1        0.0815
     22 C         -10.2789  -19.8565   23.8148 C.ar    1  UNL1        0.0222
     23 C          -8.9139  -20.4383   23.5950 C.ar    1  UNL1        0.0384
     24 C          -8.1605  -20.1288   22.3354 C.ar    1  UNL1        0.1386
     25 C          -8.7722  -19.2374   21.2955 C.ar    1  UNL1        0.0384
     26 C         -10.1372  -18.6555   21.5153 C.ar    1  UNL1        0.0207
     27 C         -10.7489  -17.7641   20.4755 C.ar    1  UNL1        0.0032
@<TRIPOS>BOND
     1    18    19   ar
     2    19    20   ar
     3    20    21   ar
     4    21    22   ar
     5    22    23   ar
     6    23    24   ar
     7    24    17    1
     8    17    16    1
     9    16    15    1
    10    15     1    1
    11     1     2    1
    12     2     3    1
    13     3     4    1
    14     4     5    1
    15     5     8    1
    16     8     9    1
    17     9    10   ar
    18    10    11   ar
    19    11    12   ar
    20    12    13   ar
    21     5     6    1
    22     6     7    1
    23    24    25   ar
    24    25    26   ar
    25    26    27   ar
    26    27    18   ar
    27    26    21   ar
    28     7     2    1
    29    13     9   ar
    30    13    14    1
@<TRIPOS>MOLECULE
*****
 27 30 0 0 0
SMALL
GASTEIGER

@<TRIPOS>ATOM
      1 C           0.3602    3.7374   22.2508 C.3     1  UNL1        0.0759
      2 N          -0.0206    3.1649   23.5840 N.3     1  UNL1       -0.2726
      3 C           0.6504    1.9205   24.0851 C.3     1  UNL1        0.0721
      4 C           0.2697    1.3481   25.4182 C.3     1  UNL1        0.0178
      5 C          -0.7821    2.0201   26.2503 C.3     1  UNL1        0.0087
      6 C          -1.4531    3.2645   25.7491 C.3     1  UNL1        0.0178
      7 C          -1.0723    3.8369   24.4160 C.3     1  UNL1        0.0721
      8 C          -1.1628    1.4476   27.5835 C.3     1  UNL1        0.0453
      9 C          -0.1012    1.1320   28.5950 C.ar    1  UNL1        0.0541
     10 C           0.3459   -0.2398   29.0052 C.ar    1  UNL1        0.1131
     11 N           1.4232   -0.0868   30.0377 N.ar    1  UNL1       -0.2229
     12 C           1.6420    1.3796   30.2656 C.ar    1  UNL1        0.1748
     13 N           0.6999    2.1328   29.3739 N.ar    1  UNL1       -0.3382
     14 H           0.6211    3.1122   29.3110 H       1  UNL1        0.1672
     15 C           0.7549    2.8248   21.1277 C.3     1  UNL1        0.0646
     16 C          -0.2701    1.9357   20.4883 C.3     1  UNL1        0.2068
     17 O          -0.0321    0.4571   20.4032 O.3     1  UNL1       -0.4754
     18 C           5.1538   -3.4177   19.4849 C.ar    1  UNL1        0.0207
     19 C           5.6116   -2.7910   18.2013 C.ar    1  UNL1        0.0988
     20 N           4.8491   -1.6401   17.6148 N.ar    1  UNL1       -0.2438
     21 C           3.6288   -1.1158   18.3119 C.ar    1  UNL1        0.0815
     22 C           2.8663    0.0351   17.7253 C.ar    1  UNL1        0.0222
     23 C           1.6461    0.5594   18.4224 C.ar    1  UNL1        0.0384
     24 C           1.1882   -0.0672   19.7061 C.ar    1  UNL1        0.1386
     25 C           1.9507   -1.2181   20.2926 C.ar    1  UNL1        0.0384
     26 C           3.1710   -1.7424   19.5955 C.ar    1  UNL1        0.0207
     27 C           3.9335   -2.8934   20.1820 C.ar    1  UNL1        0.0032
@<TRIPOS>BOND
     1    18    19   ar
     2    19    20   ar
     3    20    21   ar
     4    21    22   ar
     5    22    23   ar
     6    23    24   ar
     7    24    17    1
     8    17    16    1
     9    16    15    1
    10    15     1    1
    11     1     2    1
    12     2     3    1
    13     3     4    1
    14     4     5    1
    15     5     8    1
    16     8     9    1
    17     9    10   ar
    18    10    11   ar
    19    11    12   ar
    20    12    13   ar
    21     5     6    1
    22     6     7    1
    23    24    25   ar
    24    25    26   ar
    25    26    27   ar
    26    27    18   ar
    27    26    21   ar
    28     7     2    1
    29    13     9   ar
    30    13    14    1
@<TRIPOS>MOLECULE
*****
 27 30 0 0 0
SMALL
GASTEIGER

@<TRIPOS>ATOM
      1 C           6.8431   -4.3407   25.9802 C.3     1  UNL1        0.0759
      2 N           7.3442   -5.6889   26.4062 N.3     1  UNL1       -0.2726
      3 C           7.6559   -6.7332   25.3756 C.3     1  UNL1        0.0721
      4 C           8.1570   -8.0813   25.8017 C.3     1  UNL1        0.0178
      5 C           8.3464   -8.3850   27.2584 C.3     1  UNL1        0.0087
      6 C           8.0348   -7.3407   28.2890 C.3     1  UNL1        0.0178
      7 C           7.5337   -5.9926   27.8629 C.3     1  UNL1        0.0721
      8 C           8.8476   -9.7332   27.6844 C.3     1  UNL1        0.0453
      9 C           7.8801  -10.8585   27.9021 C.ar    1  UNL1        0.0541
     10 C           8.2387  -12.2891   28.1757 C.ar    1  UNL1        0.1131
     11 N           6.9644  -13.0656   28.3270 N.ar    1  UNL1       -0.2229
     12 C           5.8181  -12.1150   28.1470 C.ar    1  UNL1        0.1748
     13 N           6.3840  -10.7510   27.8844 N.ar    1  UNL1       -0.3382
     14 H           5.8648   -9.9293   27.7279 H       1  UNL1        0.1672
     15 C           6.5305   -4.0786   24.5368 C.3     1  UNL1        0.0646
     16 C           5.5528   -3.0037   24.1644 C.3     1  UNL1        0.2068
     17 O           4.4251   -3.3088   23.2235 O.3     1  UNL1       -0.4754
     18 C           2.9650   -0.0665   17.7366 C.ar    1  UNL1        0.0207
     19 C           3.9693   -0.7527   16.8589 C.ar    1  UNL1        0.0988
     20 N           4.8639   -1.8129   17.4296 N.ar    1  UNL1       -0.2438
     21 C           4.7542   -2.1869   18.8780 C.ar    1  UNL1        0.0815
     22 C           5.6487   -3.2471   19.4487 C.ar    1  UNL1        0.0222
     23 C           5.5391   -3.6211   20.8972 C.ar    1  UNL1        0.0384
     24 C           4.5348   -2.9348   21.7750 C.ar    1  UNL1        0.1386
     25 C           3.6402   -1.8746   21.2043 C.ar    1  UNL1        0.0384
     26 C           3.7499   -1.5007   19.7558 C.ar    1  UNL1        0.0207
     27 C           2.8554   -0.4405   19.1851 C.ar    1  UNL1        0.0032
@<TRIPOS>BOND
     1    18    19   ar
     2    19    20   ar
     3    20    21   ar
     4    21    22   ar
     5    22    23   ar
     6    23    24   ar
     7    24    17    1
     8    17    16    1
     9    16    15    1
    10    15     1    1
    11     1     2    1
    12     2     3    1
    13     3     4    1
    14     4     5    1
    15     5     8    1
    16     8     9    1
    17     9    10   ar
    18    10    11   ar
    19    11    12   ar
    20    12    13   ar
    21     5     6    1
    22     6     7    1
    23    24    25   ar
    24    25    26   ar
    25    26    27   ar
    26    27    18   ar
    27    26    21   ar
    28     7     2    1
    29    13     9   ar
    30    13    14    1
