@<TRIPOS>MOLECULE
*****
 29 33 0 0 0
SMALL
GASTEIGER

@<TRIPOS>ATOM
      1 O           5.7333    1.6550   17.4344 O.2     1  UNL1       -0.2911
      2 C           4.5716    0.9468   18.0660 C.2     1  UNL1        0.1795
      3 C           3.3285    1.7097   18.4162 C.3     1  UNL1        0.1092
      4 C           2.1667    1.0014   19.0477 C.3     1  UNL1        0.1436
      5 C           1.0051    0.2932   19.6793 C.3     1  UNL1        0.0620
      6 C          -0.2380    1.0560   20.0294 C.3     1  UNL1        0.0985
      7 N          -0.3195    2.5272   19.7481 N.am    1  UNL1       -0.2640
      8 C          -1.5627    3.2900   20.0983 C.2     1  UNL1        0.3042
      9 O          -1.6441    4.7612   19.8170 O.2     1  UNL1       -0.2526
     10 N          -2.7243    2.5818   20.7299 N.am    1  UNL1       -0.2866
     11 C           0.8422    3.2354   19.1166 C.3     1  UNL1        0.0985
     12 C           2.0853    2.4725   18.7664 C.3     1  UNL1        0.0620
     13 O           2.2482   -0.4697   19.3291 O.3     1  UNL1       -0.4819
     14 C           3.4914   -1.2326   18.9788 C.ar    1  UNL1        0.1409
     15 C           3.5728   -2.7037   19.2602 C.ar    1  UNL1        0.0370
     16 C           4.8159   -3.4666   18.9100 C.ar    1  UNL1        0.0031
     17 C           5.9777   -2.7583   18.2784 C.ar    1  UNL1        0.0003
     18 C           5.8962   -1.2872   17.9971 C.ar    1  UNL1        0.0059
     19 C           4.6530   -0.5243   18.3473 C.ar    1  UNL1        0.0687
     20 H          -2.6709    1.6162   20.9145 H       1  UNL1        0.1512
     21 C          -3.9675    3.3446   21.0801 C.3     1  UNL1        0.0956
     22 C          -4.9253    3.9644   20.1061 C.3     1  UNL1        0.0288
     23 C          -6.0209    4.6245   20.8898 C.3     1  UNL1        0.0281
     24 C          -5.7402    4.4126   22.3480 C.ar    1  UNL1       -0.0245
     25 C          -6.4761    4.8377   23.5840 C.ar    1  UNL1       -0.0045
     26 C          -5.9431    4.4719   24.9374 C.ar    1  UNL1       -0.0003
     27 C          -4.6740    3.6808   25.0550 C.ar    1  UNL1       -0.0003
     28 C          -3.9380    3.2557   23.8191 C.ar    1  UNL1       -0.0030
     29 C          -4.4711    3.6216   22.4656 C.ar    1  UNL1       -0.0084
@<TRIPOS>BOND
     1     1     2    2
     2     2     3    1
     3     3     4    1
     4     4     5    1
     5     5     6    1
     6     6     7    1
     7     7     8   am
     8     8     9    2
     9     8    10   am
    10    10    21    1
    11    21    22    1
    12    22    23    1
    13    23    24    1
    14    24    25   ar
    15    25    26   ar
    16    26    27   ar
    17    27    28   ar
    18    28    29   ar
    19     7    11    1
    20    11    12    1
    21     4    13    1
    22    13    14    1
    23    14    15   ar
    24    15    16   ar
    25    16    17   ar
    26    17    18   ar
    27    18    19   ar
    28    19     2    1
    29    12     4    1
    30    19    14   ar
    31    29    21    1
    32    29    24   ar
    33    10    20    1
@<TRIPOS>MOLECULE
*****
 29 33 0 0 0
SMALL
GASTEIGER

@<TRIPOS>ATOM
      1 O           4.6091   -0.6497   16.4212 O.2     1  UNL1       -0.2911
      2 C           3.8579   -0.7188   17.7178 C.2     1  UNL1        0.1795
      3 C           2.7619    0.2647   18.0030 C.3     1  UNL1        0.1092
      4 C           2.0107    0.1955   19.2996 C.3     1  UNL1        0.1436
      5 C           1.2596    0.1264   20.5961 C.3     1  UNL1        0.0620
      6 C           0.1636    1.1099   20.8812 C.3     1  UNL1        0.0985
      7 N          -0.1814    2.1625   19.8699 N.am    1  UNL1       -0.2640
      8 C          -1.2775    3.1461   20.1551 C.2     1  UNL1        0.3042
      9 O          -1.6225    4.1987   19.1437 O.2     1  UNL1       -0.2526
     10 N          -2.0286    3.0769   21.4516 N.am    1  UNL1       -0.2866
     11 C           0.5697    2.2317   18.5733 C.3     1  UNL1        0.0985
     12 C           1.6657    1.2482   18.2882 C.3     1  UNL1        0.0620
     13 O           2.3557   -0.8571   20.3109 O.3     1  UNL1       -0.4819
     14 C           3.4518   -1.8407   20.0257 C.ar    1  UNL1        0.1409
     15 C           3.7968   -2.8933   21.0371 C.ar    1  UNL1        0.0370
     16 C           4.8928   -3.8768   20.7520 C.ar    1  UNL1        0.0031
     17 C           5.6440   -3.8077   19.4554 C.ar    1  UNL1        0.0003
     18 C           5.2990   -2.7550   18.4440 C.ar    1  UNL1        0.0059
     19 C           4.2029   -1.7715   18.7292 C.ar    1  UNL1        0.0687
     20 H          -1.8022    2.3860   22.1154 H       1  UNL1        0.1512
     21 C          -3.1247    4.0604   21.7368 C.3     1  UNL1        0.0956
     22 C          -3.1103    5.1105   22.8079 C.3     1  UNL1        0.0288
     23 C          -4.4043    5.8656   22.7341 C.3     1  UNL1        0.0281
     24 C          -5.2184    5.2822   21.6174 C.ar    1  UNL1       -0.0245
     25 C          -6.5777    5.6226   21.0822 C.ar    1  UNL1       -0.0045
     26 C          -7.1461    4.8475   19.9307 C.ar    1  UNL1       -0.0003
     27 C          -6.3552    3.7318   19.3143 C.ar    1  UNL1       -0.0003
     28 C          -4.9960    3.3913   19.8495 C.ar    1  UNL1       -0.0030
     29 C          -4.4276    4.1665   21.0011 C.ar    1  UNL1       -0.0084
@<TRIPOS>BOND
     1     1     2    2
     2     2     3    1
     3     3     4    1
     4     4     5    1
     5     5     6    1
     6     6     7    1
     7     7     8   am
     8     8     9    2
     9     8    10   am
    10    10    21    1
    11    21    22    1
    12    22    23    1
    13    23    24    1
    14    24    25   ar
    15    25    26   ar
    16    26    27   ar
    17    27    28   ar
    18    28    29   ar
    19     7    11    1
    20    11    12    1
    21     4    13    1
    22    13    14    1
    23    14    15   ar
    24    15    16   ar
    25    16    17   ar
    26    17    18   ar
    27    18    19   ar
    28    19     2    1
    29    12     4    1
    30    19    14   ar
    31    29    21    1
    32    29    24   ar
    33    10    20    1
@<TRIPOS>MOLECULE
*****
 29 33 0 0 0
SMALL
GASTEIGER

@<TRIPOS>ATOM
      1 O           6.3215   -1.5157   17.4031 O.2     1  UNL1       -0.2911
      2 C           5.5680   -1.6587   18.6923 C.2     1  UNL1        0.1795
      3 C           6.1783   -2.4098   19.8383 C.3     1  UNL1        0.1092
      4 C           5.4248   -2.5528   21.1275 C.3     1  UNL1        0.1436
      5 C           4.6714   -2.6957   22.4166 C.3     1  UNL1        0.0620
      6 C           5.2816   -3.4468   23.5626 C.3     1  UNL1        0.0985
      7 N           6.6453   -4.0549   23.4196 N.am    1  UNL1       -0.2640
      8 C           7.2556   -4.8061   24.5657 C.2     1  UNL1        0.3042
      9 O           8.6193   -5.4142   24.4226 O.2     1  UNL1       -0.2526
     10 N           6.5021   -4.9490   25.8548 N.am    1  UNL1       -0.2866
     11 C           7.3988   -3.9120   22.1305 C.3     1  UNL1        0.0985
     12 C           6.7885   -3.1609   20.9844 C.3     1  UNL1        0.0620
     13 O           4.0611   -1.9446   21.2706 O.3     1  UNL1       -0.4819
     14 C           3.4509   -1.1935   20.1245 C.ar    1  UNL1        0.1409
     15 C           2.0872   -0.5854   20.2676 C.ar    1  UNL1        0.0370
     16 C           1.4769    0.1657   19.1216 C.ar    1  UNL1        0.0031
     17 C           2.2304    0.3087   17.8324 C.ar    1  UNL1        0.0003
     18 C           3.5941   -0.2994   17.6893 C.ar    1  UNL1        0.0059
     19 C           4.2043   -1.0505   18.8354 C.ar    1  UNL1        0.0687
     20 H           5.6071   -4.5499   25.9487 H       1  UNL1        0.1512
     21 C           7.1124   -5.7001   27.0009 C.3     1  UNL1        0.0956
     22 C           7.7841   -7.0389   26.9197 C.3     1  UNL1        0.0288
     23 C           8.2449   -7.4106   28.2980 C.3     1  UNL1        0.0281
     24 C           7.8579   -6.3015   29.2309 C.ar    1  UNL1       -0.0245
     25 C           8.0524   -6.1176   30.7068 C.ar    1  UNL1       -0.0045
     26 C           7.5471   -4.8767   31.3810 C.ar    1  UNL1       -0.0003
     27 C           6.8471   -3.8196   30.5794 C.ar    1  UNL1       -0.0003
     28 C           6.6525   -4.0035   29.1035 C.ar    1  UNL1       -0.0030
     29 C           7.1580   -5.2444   28.4292 C.ar    1  UNL1       -0.0084
@<TRIPOS>BOND
     1     1     2    2
     2     2     3    1
     3     3     4    1
     4     4     5    1
     5     5     6    1
     6     6     7    1
     7     7     8   am
     8     8     9    2
     9     8    10   am
    10    10    21    1
    11    21    22    1
    12    22    23    1
    13    23    24    1
    14    24    25   ar
    15    25    26   ar
    16    26    27   ar
    17    27    28   ar
    18    28    29   ar
    19     7    11    1
    20    11    12    1
    21     4    13    1
    22    13    14    1
    23    14    15   ar
    24    15    16   ar
    25    16    17   ar
    26    17    18   ar
    27    18    19   ar
    28    19     2    1
    29    12     4    1
    30    19    14   ar
    31    29    21    1
    32    29    24   ar
    33    10    20    1
@<TRIPOS>MOLECULE
*****
 29 33 0 0 0
SMALL
GASTEIGER

@<TRIPOS>ATOM
      1 O           8.4455   -7.9173   28.5435 O.2     1  UNL1       -0.2911
      2 C           7.8896   -6.5777   28.1607 C.2     1  UNL1        0.1795
      3 C           7.7701   -6.2010   26.7137 C.3     1  UNL1        0.1092
      4 C           7.2141   -4.8614   26.3308 C.3     1  UNL1        0.1436
      5 C           6.6582   -3.5218   25.9481 C.3     1  UNL1        0.0620
      6 C           6.5387   -3.1451   24.5011 C.3     1  UNL1        0.0985
      7 N           6.9751   -4.1080   23.4369 N.am    1  UNL1       -0.2640
      8 C           6.8555   -3.7312   21.9899 C.2     1  UNL1        0.3042
      9 O           7.2919   -4.6940   20.9257 O.2     1  UNL1       -0.2526
     10 N           6.2996   -2.3917   21.6071 N.am    1  UNL1       -0.2866
     11 C           7.5310   -5.4475   23.8197 C.3     1  UNL1        0.0985
     12 C           7.6505   -5.8242   25.2667 C.3     1  UNL1        0.0620
     13 O           6.7777   -3.8985   27.3950 O.3     1  UNL1       -0.4819
     14 C           6.8972   -4.2753   28.8421 C.ar    1  UNL1        0.1409
     15 C           6.4608   -3.3125   29.9063 C.ar    1  UNL1        0.0370
     16 C           6.5803   -3.6892   31.3532 C.ar    1  UNL1        0.0031
     17 C           7.1363   -5.0288   31.7361 C.ar    1  UNL1        0.0003
     18 C           7.5727   -5.9916   30.6719 C.ar    1  UNL1        0.0059
     19 C           7.4532   -5.6148   29.2249 C.ar    1  UNL1        0.0687
     20 H           6.0132   -1.7597   22.3056 H       1  UNL1        0.1512
     21 C           6.1801   -2.0149   20.1601 C.3     1  UNL1        0.0956
     22 C           7.2351   -2.2019   19.1103 C.3     1  UNL1        0.0288
     23 C           6.6916   -1.6876   17.8102 C.3     1  UNL1        0.0281
     24 C           5.3007   -1.1827   18.0566 C.ar    1  UNL1       -0.0245
     25 C           4.2812   -0.5650   17.1461 C.ar    1  UNL1       -0.0045
     26 C           2.9457   -0.1496   17.6878 C.ar    1  UNL1       -0.0003
     27 C           2.6295   -0.3519   19.1402 C.ar    1  UNL1       -0.0003
     28 C           3.6490   -0.9696   20.0506 C.ar    1  UNL1       -0.0030
     29 C           4.9846   -1.3851   19.5088 C.ar    1  UNL1       -0.0084
@<TRIPOS>BOND
     1     1     2    2
     2     2     3    1
     3     3     4    1
     4     4     5    1
     5     5     6    1
     6     6     7    1
     7     7     8   am
     8     8     9    2
     9     8    10   am
    10    10    21    1
    11    21    22    1
    12    22    23    1
    13    23    24    1
    14    24    25   ar
    15    25    26   ar
    16    26    27   ar
    17    27    28   ar
    18    28    29   ar
    19     7    11    1
    20    11    12    1
    21     4    13    1
    22    13    14    1
    23    14    15   ar
    24    15    16   ar
    25    16    17   ar
    26    17    18   ar
    27    18    19   ar
    28    19     2    1
    29    12     4    1
    30    19    14   ar
    31    29    21    1
    32    29    24   ar
    33    10    20    1
@<TRIPOS>MOLECULE
*****
 29 33 0 0 0
SMALL
GASTEIGER

@<TRIPOS>ATOM
      1 O         -14.0375   -8.3061   18.6134 O.2     1  UNL1       -0.2911
      2 C         -13.6479   -6.8758   18.8426 C.2     1  UNL1        0.1795
      3 C         -14.7058   -5.8384   19.0763 C.3     1  UNL1        0.1092
      4 C         -14.3161   -4.4081   19.3055 C.3     1  UNL1        0.1436
      5 C         -13.9264   -2.9779   19.5347 C.3     1  UNL1        0.0620
      6 C         -14.9844   -1.9406   19.7684 C.3     1  UNL1        0.0985
      7 N         -16.4320   -2.3335   19.7729 N.am    1  UNL1       -0.2640
      8 C         -17.4900   -1.2960   20.0067 C.2     1  UNL1        0.3042
      9 O         -18.9376   -1.6889   20.0112 O.2     1  UNL1       -0.2526
     10 N         -17.1003    0.1342   20.2358 N.am    1  UNL1       -0.2866
     11 C         -16.8217   -3.7637   19.5438 C.3     1  UNL1        0.0985
     12 C         -15.7638   -4.8010   19.3101 C.3     1  UNL1        0.0620
     13 O         -12.8685   -4.0152   19.3009 O.3     1  UNL1       -0.4819
     14 C         -11.8105   -5.0527   19.0672 C.ar    1  UNL1        0.1409
     15 C         -10.3629   -4.6598   19.0626 C.ar    1  UNL1        0.0370
     16 C          -9.3050   -5.6971   18.8289 C.ar    1  UNL1        0.0031
     17 C          -9.6947   -7.1274   18.5998 C.ar    1  UNL1        0.0003
     18 C         -11.1423   -7.5203   18.6043 C.ar    1  UNL1        0.0059
     19 C         -12.2002   -6.4829   18.8380 C.ar    1  UNL1        0.0687
     20 H         -16.1501    0.3920   20.2328 H       1  UNL1        0.1512
     21 C         -18.1582    1.1716   20.4696 C.3     1  UNL1        0.0956
     22 C         -19.3100    1.4770   19.5585 C.3     1  UNL1        0.0288
     23 C         -20.1138    2.5799   20.1812 C.3     1  UNL1        0.0281
     24 C         -19.4586    2.9560   21.4771 C.ar    1  UNL1       -0.0245
     25 C         -19.8064    3.9786   22.5179 C.ar    1  UNL1       -0.0045
     26 C         -18.9457    4.1309   23.7368 C.ar    1  UNL1       -0.0003
     27 C         -17.7371    3.2605   23.9151 C.ar    1  UNL1       -0.0003
     28 C         -17.3893    2.2379   22.8743 C.ar    1  UNL1       -0.0030
     29 C         -18.2501    2.0857   21.6553 C.ar    1  UNL1       -0.0084
@<TRIPOS>BOND
     1     1     2    2
     2     2     3    1
     3     3     4    1
     4     4     5    1
     5     5     6    1
     6     6     7    1
     7     7     8   am
     8     8     9    2
     9     8    10   am
    10    10    21    1
    11    21    22    1
    12    22    23    1
    13    23    24    1
    14    24    25   ar
    15    25    26   ar
    16    26    27   ar
    17    27    28   ar
    18    28    29   ar
    19     7    11    1
    20    11    12    1
    21     4    13    1
    22    13    14    1
    23    14    15   ar
    24    15    16   ar
    25    16    17   ar
    26    17    18   ar
    27    18    19   ar
    28    19     2    1
    29    12     4    1
    30    19    14   ar
    31    29    21    1
    32    29    24   ar
    33    10    20    1
@<TRIPOS>MOLECULE
*****
 29 33 0 0 0
SMALL
GASTEIGER

@<TRIPOS>ATOM
      1 O           7.3166   -4.5153   29.5959 O.2     1  UNL1       -0.2911
      2 C           7.4142   -4.8785   28.1437 C.2     1  UNL1        0.1795
      3 C           6.8903   -3.9387   27.0987 C.3     1  UNL1        0.1092
      4 C           6.9879   -4.3019   25.6465 C.3     1  UNL1        0.1436
      5 C           7.0856   -4.6651   24.1945 C.3     1  UNL1        0.0620
      6 C           6.5616   -3.7252   23.1495 C.3     1  UNL1        0.0985
      7 N           5.9401   -2.4222   23.5565 N.am    1  UNL1       -0.2640
      8 C           5.4161   -1.4823   22.5113 C.2     1  UNL1        0.3042
      9 O           4.7946   -0.1792   22.9184 O.2     1  UNL1       -0.2526
     10 N           5.5138   -1.8455   21.0593 N.am    1  UNL1       -0.2866
     11 C           5.8425   -2.0589   25.0085 C.3     1  UNL1        0.0985
     12 C           6.3664   -2.9988   26.0536 C.3     1  UNL1        0.0620
     13 O           7.6095   -5.6049   25.2395 O.3     1  UNL1       -0.4819
     14 C           8.1334   -6.5448   26.2847 C.ar    1  UNL1        0.1409
     15 C           8.7550   -7.8479   25.8776 C.ar    1  UNL1        0.0370
     16 C           9.2789   -8.7877   26.9227 C.ar    1  UNL1        0.0031
     17 C           9.1813   -8.4245   28.3748 C.ar    1  UNL1        0.0003
     18 C           8.5597   -7.1215   28.7818 C.ar    1  UNL1        0.0059
     19 C           8.0358   -6.1816   27.7367 C.ar    1  UNL1        0.0687
     20 H           5.9217   -2.7008   20.7922 H       1  UNL1        0.1512
     21 C           4.9898   -0.9057   20.0142 C.3     1  UNL1        0.0956
     22 C           5.8096   -0.1886   18.9828 C.3     1  UNL1        0.0288
     23 C           4.8806    0.6424   18.1481 C.3     1  UNL1        0.0281
     24 C           3.4868    0.4388   18.6637 C.ar    1  UNL1       -0.0245
     25 C           2.1648    1.0010   18.2321 C.ar    1  UNL1       -0.0045
     26 C           0.9104    0.6065   18.9537 C.ar    1  UNL1       -0.0003
     27 C           0.9779   -0.3503   20.1071 C.ar    1  UNL1       -0.0003
     28 C           2.2999   -0.9125   20.5387 C.ar    1  UNL1       -0.0030
     29 C           3.5543   -0.5179   19.8170 C.ar    1  UNL1       -0.0084
@<TRIPOS>BOND
     1     1     2    2
     2     2     3    1
     3     3     4    1
     4     4     5    1
     5     5     6    1
     6     6     7    1
     7     7     8   am
     8     8     9    2
     9     8    10   am
    10    10    21    1
    11    21    22    1
    12    22    23    1
    13    23    24    1
    14    24    25   ar
    15    25    26   ar
    16    26    27   ar
    17    27    28   ar
    18    28    29   ar
    19     7    11    1
    20    11    12    1
    21     4    13    1
    22    13    14    1
    23    14    15   ar
    24    15    16   ar
    25    16    17   ar
    26    17    18   ar
    27    18    19   ar
    28    19     2    1
    29    12     4    1
    30    19    14   ar
    31    29    21    1
    32    29    24   ar
    33    10    20    1
@<TRIPOS>MOLECULE
*****
 29 33 0 0 0
SMALL
GASTEIGER

@<TRIPOS>ATOM
      1 O           3.7004   -3.1357   18.8994 O.2     1  UNL1       -0.2911
      2 C           3.4572   -2.3414   20.1485 C.2     1  UNL1        0.1795
      3 C           2.4151   -1.2626   20.1602 C.3     1  UNL1        0.1092
      4 C           2.1719   -0.4683   21.4093 C.3     1  UNL1        0.1436
      5 C           1.9287    0.3259   22.6583 C.3     1  UNL1        0.0620
      6 C           0.8866    1.4047   22.6700 C.3     1  UNL1        0.0985
      7 N           0.0876    1.6893   21.4328 N.am    1  UNL1       -0.2640
      8 C          -0.9545    2.7681   21.4446 C.2     1  UNL1        0.3042
      9 O          -1.7535    3.0527   20.2074 O.2     1  UNL1       -0.2526
     10 N          -1.1977    3.5623   22.6936 N.am    1  UNL1       -0.2866
     11 C           0.3308    0.8951   20.1838 C.3     1  UNL1        0.0985
     12 C           1.3729   -0.1837   20.1720 C.3     1  UNL1        0.0620
     13 O           2.9708   -0.7528   22.6465 O.3     1  UNL1       -0.4819
     14 C           4.0130   -1.8317   22.6347 C.ar    1  UNL1        0.1409
     15 C           4.8119   -2.1163   23.8719 C.ar    1  UNL1        0.0370
     16 C           5.8540   -3.1950   23.8602 C.ar    1  UNL1        0.0031
     17 C           6.0972   -3.9893   22.6111 C.ar    1  UNL1        0.0003
     18 C           5.2983   -3.7048   21.3739 C.ar    1  UNL1        0.0059
     19 C           4.2561   -2.6259   21.3857 C.ar    1  UNL1        0.0687
     20 H          -0.6733    3.3756   23.5056 H       1  UNL1        0.1512
     21 C          -2.2399    4.6412   22.7054 C.3     1  UNL1        0.0956
     22 C          -2.1739    5.9389   21.9559 C.3     1  UNL1        0.0288
     23 C          -3.4242    6.7115   22.2560 C.3     1  UNL1        0.0281
     24 C          -4.2627    5.8912   23.1910 C.ar    1  UNL1       -0.0245
     25 C          -5.5983    6.1441   23.8254 C.ar    1  UNL1       -0.0045
     26 C          -6.2018    5.1176   24.7374 C.ar    1  UNL1       -0.0003
     27 C          -5.4698    3.8380   25.0152 C.ar    1  UNL1       -0.0003
     28 C          -4.1343    3.5852   24.3808 C.ar    1  UNL1       -0.0030
     29 C          -3.5308    4.6118   23.4687 C.ar    1  UNL1       -0.0084
@<TRIPOS>BOND
     1     1     2    2
     2     2     3    1
     3     3     4    1
     4     4     5    1
     5     5     6    1
     6     6     7    1
     7     7     8   am
     8     8     9    2
     9     8    10   am
    10    10    21    1
    11    21    22    1
    12    22    23    1
    13    23    24    1
    14    24    25   ar
    15    25    26   ar
    16    26    27   ar
    17    27    28   ar
    18    28    29   ar
    19     7    11    1
    20    11    12    1
    21     4    13    1
    22    13    14    1
    23    14    15   ar
    24    15    16   ar
    25    16    17   ar
    26    17    18   ar
    27    18    19   ar
    28    19     2    1
    29    12     4    1
    30    19    14   ar
    31    29    21    1
    32    29    24   ar
    33    10    20    1
@<TRIPOS>MOLECULE
*****
 29 33 0 0 0
SMALL
GASTEIGER

@<TRIPOS>ATOM
      1 O           5.9061   -4.5025   21.8324 O.2     1  UNL1       -0.2911
      2 C           5.2034   -3.3171   22.4251 C.2     1  UNL1        0.1795
      3 C           4.2956   -2.4803   21.5734 C.3     1  UNL1        0.1092
      4 C           3.5929   -1.2949   22.1661 C.3     1  UNL1        0.1436
      5 C           2.8902   -0.1097   22.7589 C.3     1  UNL1        0.0620
      6 C           1.9824    0.7272   21.9071 C.3     1  UNL1        0.0985
      7 N           1.7773    0.3788   20.4626 N.am    1  UNL1       -0.2640
      8 C           0.8695    1.2158   19.6108 C.2     1  UNL1        0.3042
      9 O           0.6644    0.8674   18.1663 O.2     1  UNL1       -0.2526
     10 N           0.1668    2.4010   20.2036 N.am    1  UNL1       -0.2866
     11 C           2.4800   -0.8064   19.8699 C.3     1  UNL1        0.0985
     12 C           3.3878   -1.6433   20.7216 C.3     1  UNL1        0.0620
     13 O           3.7980   -0.9466   23.6106 O.3     1  UNL1       -0.4819
     14 C           4.7058   -1.7835   24.4624 C.ar    1  UNL1        0.1409
     15 C           4.9109   -1.4352   25.9069 C.ar    1  UNL1        0.0370
     16 C           5.8187   -2.2721   26.7586 C.ar    1  UNL1        0.0031
     17 C           6.5214   -3.4574   26.1659 C.ar    1  UNL1        0.0003
     18 C           6.3163   -3.8057   24.7214 C.ar    1  UNL1        0.0059
     19 C           5.4085   -2.9688   23.8696 C.ar    1  UNL1        0.0687
     20 H           0.3015    2.6297   21.1517 H       1  UNL1        0.1512
     21 C          -0.7410    3.2380   19.3518 C.3     1  UNL1        0.0956
     22 C          -0.3485    3.9765   18.1066 C.3     1  UNL1        0.0288
     23 C          -1.5656    4.6783   17.5809 C.3     1  UNL1        0.0281
     24 C          -2.7102    4.3735   18.5013 C.ar    1  UNL1       -0.0245
     25 C          -4.1507    4.7915   18.4842 C.ar    1  UNL1       -0.0045
     26 C          -5.0814    4.3194   19.5615 C.ar    1  UNL1       -0.0003
     27 C          -4.5718    3.4292   20.6560 C.ar    1  UNL1       -0.0003
     28 C          -3.1313    3.0112   20.6731 C.ar    1  UNL1       -0.0030
     29 C          -2.2005    3.4833   19.5958 C.ar    1  UNL1       -0.0084
@<TRIPOS>BOND
     1     1     2    2
     2     2     3    1
     3     3     4    1
     4     4     5    1
     5     5     6    1
     6     6     7    1
     7     7     8   am
     8     8     9    2
     9     8    10   am
    10    10    21    1
    11    21    22    1
    12    22    23    1
    13    23    24    1
    14    24    25   ar
    15    25    26   ar
    16    26    27   ar
    17    27    28   ar
    18    28    29   ar
    19     7    11    1
    20    11    12    1
    21     4    13    1
    22    13    14    1
    23    14    15   ar
    24    15    16   ar
    25    16    17   ar
    26    17    18   ar
    27    18    19   ar
    28    19     2    1
    29    12     4    1
    30    19    14   ar
    31    29    21    1
    32    29    24   ar
    33    10    20    1
@<TRIPOS>MOLECULE
*****
 29 33 0 0 0
SMALL
GASTEIGER

@<TRIPOS>ATOM
      1 O           6.9579   -4.0076   28.9269 O.2     1  UNL1       -0.2911
      2 C           7.1543   -4.5540   27.5438 C.2     1  UNL1        0.1795
      3 C           6.7808   -3.7260   26.3502 C.3     1  UNL1        0.1092
      4 C           6.9771   -4.2724   24.9671 C.3     1  UNL1        0.1436
      5 C           7.1735   -4.8189   23.5841 C.3     1  UNL1        0.0620
      6 C           6.8000   -3.9909   22.3905 C.3     1  UNL1        0.0985
      7 N           6.2301   -2.6163   22.5798 N.am    1  UNL1       -0.2640
      8 C           5.8565   -1.7883   21.3861 C.2     1  UNL1        0.3042
      9 O           5.2866   -0.4137   21.5755 O.2     1  UNL1       -0.2526
     10 N           6.0529   -2.3347   20.0031 N.am    1  UNL1       -0.2866
     11 C           6.0337   -2.0698   23.9629 C.3     1  UNL1        0.0985
     12 C           6.4072   -2.8979   25.1565 C.3     1  UNL1        0.0620
     13 O           7.5470   -5.6470   24.7777 O.3     1  UNL1       -0.4819
     14 C           7.9205   -6.4750   25.9714 C.ar    1  UNL1        0.1409
     15 C           8.4904   -7.8496   25.7820 C.ar    1  UNL1        0.0370
     16 C           8.8640   -8.6776   26.9756 C.ar    1  UNL1        0.0031
     17 C           8.6676   -8.1312   28.3587 C.ar    1  UNL1        0.0003
     18 C           8.0977   -6.7566   28.5481 C.ar    1  UNL1        0.0059
     19 C           7.7242   -5.9286   27.3544 C.ar    1  UNL1        0.0687
     20 H           6.4270   -3.2369   19.8788 H       1  UNL1        0.1512
     21 C           5.6794   -1.5067   18.8094 C.3     1  UNL1        0.0956
     22 C           4.3995   -1.6055   18.0335 C.3     1  UNL1        0.0288
     23 C           4.4492   -0.5943   16.9266 C.3     1  UNL1        0.0281
     24 C           5.7599    0.1294   17.0185 C.ar    1  UNL1       -0.0245
     25 C           6.3593    1.2290   16.1930 C.ar    1  UNL1       -0.0045
     26 C           7.7189    1.7647   16.5310 C.ar    1  UNL1       -0.0003
     27 C           8.4792    1.2009   17.6947 C.ar    1  UNL1       -0.0003
     28 C           7.8798    0.1013   18.5203 C.ar    1  UNL1       -0.0030
     29 C           6.5201   -0.4345   18.1822 C.ar    1  UNL1       -0.0084
@<TRIPOS>BOND
     1     1     2    2
     2     2     3    1
     3     3     4    1
     4     4     5    1
     5     5     6    1
     6     6     7    1
     7     7     8   am
     8     8     9    2
     9     8    10   am
    10    10    21    1
    11    21    22    1
    12    22    23    1
    13    23    24    1
    14    24    25   ar
    15    25    26   ar
    16    26    27   ar
    17    27    28   ar
    18    28    29   ar
    19     7    11    1
    20    11    12    1
    21     4    13    1
    22    13    14    1
    23    14    15   ar
    24    15    16   ar
    25    16    17   ar
    26    17    18   ar
    27    18    19   ar
    28    19     2    1
    29    12     4    1
    30    19    14   ar
    31    29    21    1
    32    29    24   ar
    33    10    20    1
