@<TRIPOS>MOLECULE
*****
 31 35 0 0 0
SMALL
GASTEIGER

@<TRIPOS>ATOM
      1 N         -10.5288  -19.4210   21.8086 N.3     1  UNL1       -0.2725
      2 C          -9.6428  -19.8023   22.9573 C.3     1  UNL1        0.0738
      3 C          -8.1655  -19.9550   22.7466 C.3     1  UNL1        0.0376
      4 C          -7.5743  -19.7263   21.3872 C.3     1  UNL1        0.0841
      5 C          -8.4603  -19.3449   20.2384 C.3     1  UNL1        0.0376
      6 C          -9.9376  -19.1923   20.4491 C.3     1  UNL1        0.0738
      7 N          -6.0970  -19.8789   21.1764 N.am    1  UNL1       -0.2422
      8 C          -5.4332  -20.8849   20.2836 C.2     1  UNL1        0.3310
      9 O          -6.1299  -21.9149   19.4448 O.2     1  UNL1       -0.2501
     10 N          -3.9501  -20.6802   20.3769 N.am    1  UNL1       -0.1647
     11 C          -3.6974  -19.5475   21.3274 C.2     1  UNL1        0.0708
     12 C          -2.4306  -18.9032   21.8067 C.3     1  UNL1        0.0729
     13 C          -2.4905  -17.7636   22.7802 C.2     1  UNL1        0.0097
     14 C          -3.8175  -17.2684   23.2744 C.2     1  UNL1        0.1375
     15 F          -3.8775  -16.1288   24.2479 F       1  UNL1       -0.2045
     16 C          -5.0844  -17.9128   22.7950 C.2     1  UNL1        0.0452
     17 C          -5.0243  -19.0524   21.8215 C.2     1  UNL1        0.0691
     18 C         -12.0060  -19.2683   22.0193 C.3     1  UNL1        0.0739
     19 C         -12.5193  -18.4471   23.1649 C.3     1  UNL1        0.0392
     20 C         -12.3675  -16.9549   23.1452 C.3     1  UNL1        0.0998
     21 O         -12.6511  -16.1321   20.2742 O.2     1  UNL1       -0.2705
     22 C         -11.3512  -15.9168   20.9913 C.2     1  UNL1        0.2739
     23 C         -10.1932  -15.2902   20.2728 C.3     1  UNL1        0.2900
     24 O          -8.8934  -15.0749   20.9898 O.3     1  UNL1       -0.4643
     25 C          -8.7516  -15.4863   22.4254 C.ar    1  UNL1        0.1528
     26 C          -7.4518  -15.2710   23.1424 C.ar    1  UNL1        0.0382
     27 C          -7.3101  -15.6824   24.5779 C.ar    1  UNL1        0.0032
     28 C          -8.4681  -16.3091   25.2963 C.ar    1  UNL1        0.0015
     29 C          -9.7679  -16.5244   24.5793 C.ar    1  UNL1        0.0180
     30 C          -9.9096  -16.1130   23.1439 C.ar    1  UNL1        0.0881
     31 N         -11.2095  -16.3282   22.4268 N.am    1  UNL1       -0.2529
@<TRIPOS>BOND
     1    21    22    2
     2    22    23    1
     3    23    24    1
     4    24    25    1
     5    25    26   ar
     6    26    27   ar
     7    27    28   ar
     8    28    29   ar
     9    29    30   ar
    10    30    31    1
    11    31    20    1
    12    20    19    1
    13    19    18    1
    14    18     1    1
    15     1     2    1
    16     2     3    1
    17     3     4    1
    18     4     7    1
    19     7     8   am
    20     8     9    2
    21     8    10    1
    22    10    11    2
    23    11    12    1
    24    12    13    1
    25    13    14    2
    26    14    15    1
    27    14    16    1
    28    16    17    2
    29     4     5    1
    30     5     6    1
    31    31    22   am
    32     6     1    1
    33    30    25   ar
    34    17     7    1
    35    17    11    1
@<TRIPOS>MOLECULE
*****
 31 35 0 0 0
SMALL
GASTEIGER

@<TRIPOS>ATOM
      1 N          -6.8992  -16.2843   23.8862 N.3     1  UNL1       -0.2725
      2 C          -7.0661  -17.1840   22.6976 C.3     1  UNL1        0.0738
      3 C          -8.4360  -17.4592   22.1518 C.3     1  UNL1        0.0376
      4 C          -9.6388  -16.8348   22.7947 C.3     1  UNL1        0.0841
      5 C          -9.4718  -15.9350   23.9833 C.3     1  UNL1        0.0376
      6 C          -8.1020  -15.6598   24.5290 C.3     1  UNL1        0.0738
      7 N         -11.0086  -17.1100   22.2490 N.am    1  UNL1       -0.2422
      8 C         -11.4377  -16.9479   20.8208 C.2     1  UNL1        0.3310
      9 O         -10.5722  -16.4822   19.6876 O.2     1  UNL1       -0.2501
     10 N         -12.8841  -17.3333   20.7247 N.am    1  UNL1       -0.1647
     11 C         -13.3491  -17.7336   22.0936 C.2     1  UNL1        0.0708
     12 C         -14.6781  -18.2059   22.6038 C.3     1  UNL1        0.0729
     13 C         -14.8482  -18.5402   24.0562 C.2     1  UNL1        0.0097
     14 C         -13.6890  -18.4021   24.9983 C.2     1  UNL1        0.1375
     15 F         -13.8589  -18.7364   26.4507 F       1  UNL1       -0.2045
     16 C         -12.3599  -17.9298   24.4879 C.2     1  UNL1        0.0452
     17 C         -12.1900  -17.5955   23.0356 C.2     1  UNL1        0.0691
     18 C          -5.5294  -16.0091   24.4319 C.3     1  UNL1        0.0739
     19 C          -4.3417  -16.0157   23.5157 C.3     1  UNL1        0.0392
     20 C          -3.5441  -17.2726   23.3308 C.3     1  UNL1        0.0998
     21 O          -1.4071  -16.0413   21.6227 O.2     1  UNL1       -0.2705
     22 C          -2.2202  -17.1870   21.0970 C.2     1  UNL1        0.2739
     23 C          -1.9648  -17.7170   19.7172 C.3     1  UNL1        0.2900
     24 O          -2.7778  -18.8627   19.1914 O.3     1  UNL1       -0.4643
     25 C          -3.8463  -19.4784   20.0455 C.ar    1  UNL1        0.1528
     26 C          -4.6593  -20.6240   19.5198 C.ar    1  UNL1        0.0382
     27 C          -5.7277  -21.2397   20.3738 C.ar    1  UNL1        0.0032
     28 C          -5.9831  -20.7096   21.7536 C.ar    1  UNL1        0.0015
     29 C          -5.1701  -19.5639   22.2793 C.ar    1  UNL1        0.0180
     30 C          -4.1017  -18.9483   21.4253 C.ar    1  UNL1        0.0881
     31 N          -3.2886  -17.8026   21.9510 N.am    1  UNL1       -0.2529
@<TRIPOS>BOND
     1    21    22    2
     2    22    23    1
     3    23    24    1
     4    24    25    1
     5    25    26   ar
     6    26    27   ar
     7    27    28   ar
     8    28    29   ar
     9    29    30   ar
    10    30    31    1
    11    31    20    1
    12    20    19    1
    13    19    18    1
    14    18     1    1
    15     1     2    1
    16     2     3    1
    17     3     4    1
    18     4     7    1
    19     7     8   am
    20     8     9    2
    21     8    10    1
    22    10    11    2
    23    11    12    1
    24    12    13    1
    25    13    14    2
    26    14    15    1
    27    14    16    1
    28    16    17    2
    29     4     5    1
    30     5     6    1
    31    31    22   am
    32     6     1    1
    33    30    25   ar
    34    17     7    1
    35    17    11    1
@<TRIPOS>MOLECULE
*****
 31 35 0 0 0
SMALL
GASTEIGER

@<TRIPOS>ATOM
      1 N           0.4463    1.8245   19.6922 N.3     1  UNL1       -0.2725
      2 C           0.3099    0.4389   20.2503 C.3     1  UNL1        0.0738
      3 C           1.3891   -0.5753   20.0121 C.3     1  UNL1        0.0376
      4 C           2.6048   -0.2039   19.2157 C.3     1  UNL1        0.0841
      5 C           2.7412    1.1818   18.6576 C.3     1  UNL1        0.0376
      6 C           1.6620    2.1959   18.8958 C.3     1  UNL1        0.0738
      7 N           3.6840   -1.2180   18.9774 N.am    1  UNL1       -0.2422
      8 C           4.2816   -1.5737   17.6484 C.2     1  UNL1        0.3310
      9 O           3.9050   -0.9779   16.3244 O.2     1  UNL1       -0.2501
     10 N           5.3221   -2.6300   17.8759 N.am    1  UNL1       -0.1647
     11 C           5.3675   -2.9271   19.3456 C.2     1  UNL1        0.0708
     12 C           6.1999   -3.8795   20.1517 C.3     1  UNL1        0.0729
     13 C           6.0199   -3.9592   21.6388 C.2     1  UNL1        0.0097
     14 C           5.0074   -3.0865   22.3196 C.2     1  UNL1        0.1375
     15 F           4.8274   -3.1662   23.8066 F       1  UNL1       -0.2045
     16 C           4.1750   -2.1341   21.5133 C.2     1  UNL1        0.0452
     17 C           4.3551   -2.0544   20.0263 C.2     1  UNL1        0.0691
     18 C          -0.6329    2.8386   19.9305 C.3     1  UNL1        0.0739
     19 C          -0.3423    4.2992   19.7513 C.3     1  UNL1        0.0392
     20 C          -1.2465    5.1455   18.9049 C.3     1  UNL1        0.0998
     21 O          -0.8381    4.2101   16.0839 O.2     1  UNL1       -0.2705
     22 C          -2.1755    4.0446   16.7428 C.2     1  UNL1        0.2739
     23 C          -3.3087    3.4114   15.9911 C.3     1  UNL1        0.2900
     24 O          -4.6460    3.2459   16.6499 O.3     1  UNL1       -0.4643
     25 C          -4.8503    3.7137   18.0604 C.ar    1  UNL1        0.1528
     26 C          -6.1876    3.5482   18.7192 C.ar    1  UNL1        0.0382
     27 C          -6.3918    4.0159   20.1297 C.ar    1  UNL1        0.0032
     28 C          -5.2586    4.6490   20.8814 C.ar    1  UNL1        0.0015
     29 C          -3.9213    4.8145   20.2226 C.ar    1  UNL1        0.0180
     30 C          -3.7171    4.3468   18.8121 C.ar    1  UNL1        0.0881
     31 N          -2.3797    4.5123   18.1532 N.am    1  UNL1       -0.2529
@<TRIPOS>BOND
     1    21    22    2
     2    22    23    1
     3    23    24    1
     4    24    25    1
     5    25    26   ar
     6    26    27   ar
     7    27    28   ar
     8    28    29   ar
     9    29    30   ar
    10    30    31    1
    11    31    20    1
    12    20    19    1
    13    19    18    1
    14    18     1    1
    15     1     2    1
    16     2     3    1
    17     3     4    1
    18     4     7    1
    19     7     8   am
    20     8     9    2
    21     8    10    1
    22    10    11    2
    23    11    12    1
    24    12    13    1
    25    13    14    2
    26    14    15    1
    27    14    16    1
    28    16    17    2
    29     4     5    1
    30     5     6    1
    31    31    22   am
    32     6     1    1
    33    30    25   ar
    34    17     7    1
    35    17    11    1
@<TRIPOS>MOLECULE
*****
 31 35 0 0 0
SMALL
GASTEIGER

@<TRIPOS>ATOM
      1 N           0.4945    1.9417   19.5070 N.3     1  UNL1       -0.2725
      2 C           1.7467    2.2824   18.7548 C.3     1  UNL1        0.0738
      3 C           2.8123    1.2443   18.5629 C.3     1  UNL1        0.0376
      4 C           2.6257   -0.1345   19.1233 C.3     1  UNL1        0.0841
      5 C           1.3734   -0.4752   19.8756 C.3     1  UNL1        0.0376
      6 C           0.3078    0.5629   20.0674 C.3     1  UNL1        0.0738
      7 N           3.6912   -1.1727   18.9314 N.am    1  UNL1       -0.2422
      8 C           4.3184   -1.5614   17.6255 C.2     1  UNL1        0.3310
      9 O           3.9902   -0.9803   16.2822 O.2     1  UNL1       -0.2501
     10 N           5.3315   -2.6333   17.8988 N.am    1  UNL1       -0.1647
     11 C           5.3304   -2.9071   19.3736 C.2     1  UNL1        0.0708
     12 C           6.1216   -3.8617   20.2178 C.3     1  UNL1        0.0729
     13 C           5.8990   -3.9136   21.7003 C.2     1  UNL1        0.0097
     14 C           4.8852   -3.0108   22.3386 C.2     1  UNL1        0.1375
     15 F           4.6625   -3.0627   23.8210 F       1  UNL1       -0.2045
     16 C           4.0940   -2.0562   21.4943 C.2     1  UNL1        0.0452
     17 C           4.3167   -2.0043   20.0118 C.2     1  UNL1        0.0691
     18 C          -0.5711    2.9799   19.6989 C.3     1  UNL1        0.0739
     19 C          -1.3495    3.0278   20.9802 C.3     1  UNL1        0.0392
     20 C          -2.0562    4.2885   21.3817 C.3     1  UNL1        0.0998
     21 O          -4.3183    4.3498   19.4121 O.2     1  UNL1       -0.2705
     22 C          -4.6056    4.2620   20.8817 C.2     1  UNL1        0.2739
     23 C          -6.0239    4.2049   21.3665 C.3     1  UNL1        0.2900
     24 O          -6.3113    4.1171   22.8361 O.3     1  UNL1       -0.4643
     25 C          -5.1802    4.0865   23.8210 C.ar    1  UNL1        0.1528
     26 C          -5.4675    3.9987   25.2905 C.ar    1  UNL1        0.0382
     27 C          -4.3365    3.9681   26.2753 C.ar    1  UNL1        0.0032
     28 C          -2.9182    4.0252   25.7905 C.ar    1  UNL1        0.0015
     29 C          -2.6309    4.1130   24.3209 C.ar    1  UNL1        0.0180
     30 C          -3.7619    4.1436   23.3362 C.ar    1  UNL1        0.0881
     31 N          -3.4746    4.2314   21.8665 N.am    1  UNL1       -0.2529
@<TRIPOS>BOND
     1    21    22    2
     2    22    23    1
     3    23    24    1
     4    24    25    1
     5    25    26   ar
     6    26    27   ar
     7    27    28   ar
     8    28    29   ar
     9    29    30   ar
    10    30    31    1
    11    31    20    1
    12    20    19    1
    13    19    18    1
    14    18     1    1
    15     1     2    1
    16     2     3    1
    17     3     4    1
    18     4     7    1
    19     7     8   am
    20     8     9    2
    21     8    10    1
    22    10    11    2
    23    11    12    1
    24    12    13    1
    25    13    14    2
    26    14    15    1
    27    14    16    1
    28    16    17    2
    29     4     5    1
    30     5     6    1
    31    31    22   am
    32     6     1    1
    33    30    25   ar
    34    17     7    1
    35    17    11    1
@<TRIPOS>MOLECULE
*****
 31 35 0 0 0
SMALL
GASTEIGER

@<TRIPOS>ATOM
      1 N         -10.2123  -19.7384   22.5338 N.3     1  UNL1       -0.2725
      2 C          -9.1521  -20.2242   23.4771 C.3     1  UNL1        0.0738
      3 C          -7.7286  -20.3288   23.0159 C.3     1  UNL1        0.0376
      4 C          -7.3654  -19.9477   21.6113 C.3     1  UNL1        0.0841
      5 C          -8.4257  -19.4619   20.6680 C.3     1  UNL1        0.0376
      6 C          -9.8491  -19.3573   21.1293 C.3     1  UNL1        0.0738
      7 N          -5.9419  -20.0523   21.1500 N.am    1  UNL1       -0.2422
      8 C          -5.4192  -20.9995   20.1111 C.2     1  UNL1        0.3310
      9 O          -6.2281  -22.0084   19.3510 O.2     1  UNL1       -0.2501
     10 N          -3.9455  -20.7608   19.9657 N.am    1  UNL1       -0.1647
     11 C          -3.5574  -19.6659   20.9148 C.2     1  UNL1        0.0708
     12 C          -2.2399  -19.0112   21.2070 C.3     1  UNL1        0.0729
     13 C          -2.1562  -17.9185   22.2313 C.2     1  UNL1        0.0097
     14 C          -3.3902  -17.4806   22.9633 C.2     1  UNL1        0.1375
     15 F          -3.3066  -16.3880   23.9876 F       1  UNL1       -0.2045
     16 C          -4.7077  -18.1354   22.6710 C.2     1  UNL1        0.0452
     17 C          -4.7913  -19.2281   21.6467 C.2     1  UNL1        0.0691
     18 C         -11.6358  -19.6338   22.9951 C.3     1  UNL1        0.0739
     19 C         -11.9808  -18.7728   24.1739 C.3     1  UNL1        0.0392
     20 C         -11.8447  -17.2819   24.0792 C.3     1  UNL1        0.0998
     21 O          -9.0630  -16.9144   25.1407 O.2     1  UNL1       -0.2705
     22 C          -9.3920  -16.4959   23.7383 C.2     1  UNL1        0.2739
     23 C          -8.3302  -15.8936   22.8667 C.3     1  UNL1        0.2900
     24 O          -8.6591  -15.4751   21.4644 O.3     1  UNL1       -0.4643
     25 C         -10.0501  -15.6588   20.9336 C.ar    1  UNL1        0.1528
     26 C         -10.3791  -15.2403   19.5313 C.ar    1  UNL1        0.0382
     27 C         -11.7699  -15.4241   19.0006 C.ar    1  UNL1        0.0032
     28 C         -12.8318  -16.0263   19.8722 C.ar    1  UNL1        0.0015
     29 C         -12.5028  -16.4449   21.2745 C.ar    1  UNL1        0.0180
     30 C         -11.1119  -16.2611   21.8052 C.ar    1  UNL1        0.0881
     31 N         -10.7829  -16.6797   23.2076 N.am    1  UNL1       -0.2529
@<TRIPOS>BOND
     1    21    22    2
     2    22    23    1
     3    23    24    1
     4    24    25    1
     5    25    26   ar
     6    26    27   ar
     7    27    28   ar
     8    28    29   ar
     9    29    30   ar
    10    30    31    1
    11    31    20    1
    12    20    19    1
    13    19    18    1
    14    18     1    1
    15     1     2    1
    16     2     3    1
    17     3     4    1
    18     4     7    1
    19     7     8   am
    20     8     9    2
    21     8    10    1
    22    10    11    2
    23    11    12    1
    24    12    13    1
    25    13    14    2
    26    14    15    1
    27    14    16    1
    28    16    17    2
    29     4     5    1
    30     5     6    1
    31    31    22   am
    32     6     1    1
    33    30    25   ar
    34    17     7    1
    35    17    11    1
@<TRIPOS>MOLECULE
*****
 31 35 0 0 0
SMALL
GASTEIGER

@<TRIPOS>ATOM
      1 N           0.4040    1.8236   19.6663 N.3     1  UNL1       -0.2725
      2 C           0.2525    0.4287   20.1966 C.3     1  UNL1        0.0738
      3 C           1.3356   -0.5832   19.9659 C.3     1  UNL1        0.0376
      4 C           2.5701   -0.2001   19.2049 C.3     1  UNL1        0.0841
      5 C           2.7216    1.1949   18.6745 C.3     1  UNL1        0.0376
      6 C           1.6385    2.2067   18.9052 C.3     1  UNL1        0.0738
      7 N           3.6532   -1.2118   18.9742 N.am    1  UNL1       -0.2422
      8 C           4.2602   -1.5671   17.6493 C.2     1  UNL1        0.3310
      9 O           3.8907   -0.9729   16.3225 O.2     1  UNL1       -0.2501
     10 N           5.3015   -2.6208   17.8842 N.am    1  UNL1       -0.1647
     11 C           5.3382   -2.9168   19.3542 C.2     1  UNL1        0.0708
     12 C           6.1676   -3.8668   20.1663 C.3     1  UNL1        0.0729
     13 C           5.9783   -3.9460   21.6523 C.2     1  UNL1        0.0097
     14 C           4.9594   -3.0752   22.3260 C.2     1  UNL1        0.1375
     15 F           4.7701   -3.1543   23.8119 F       1  UNL1       -0.2045
     16 C           4.1301   -2.1252   21.5138 C.2     1  UNL1        0.0452
     17 C           4.3194   -2.0460   20.0279 C.2     1  UNL1        0.0691
     18 C          -0.6791    2.8353   19.8969 C.3     1  UNL1        0.0739
     19 C          -1.1365    3.1393   21.2928 C.3     1  UNL1        0.0392
     20 C          -0.1497    3.6103   22.3196 C.3     1  UNL1        0.0998
     21 O          -2.2311    3.5671   24.4797 O.2     1  UNL1       -0.2705
     22 C          -0.9622    2.7842   24.6450 C.2     1  UNL1        0.2739
     23 C          -0.7341    1.9798   25.8903 C.3     1  UNL1        0.2900
     24 O           0.5346    1.1969   26.0556 O.3     1  UNL1       -0.4643
     25 C           1.5753    1.2185   24.9755 C.ar    1  UNL1        0.1528
     26 C           2.8441    0.4357   25.1408 C.ar    1  UNL1        0.0382
     27 C           3.8847    0.4572   24.0608 C.ar    1  UNL1        0.0032
     28 C           3.6567    1.2617   22.8155 C.ar    1  UNL1        0.0015
     29 C           2.3879    2.0445   22.6502 C.ar    1  UNL1        0.0180
     30 C           1.3473    2.0229   23.7302 C.ar    1  UNL1        0.0881
     31 N           0.0784    2.8058   23.5650 N.am    1  UNL1       -0.2529
@<TRIPOS>BOND
     1    21    22    2
     2    22    23    1
     3    23    24    1
     4    24    25    1
     5    25    26   ar
     6    26    27   ar
     7    27    28   ar
     8    28    29   ar
     9    29    30   ar
    10    30    31    1
    11    31    20    1
    12    20    19    1
    13    19    18    1
    14    18     1    1
    15     1     2    1
    16     2     3    1
    17     3     4    1
    18     4     7    1
    19     7     8   am
    20     8     9    2
    21     8    10    1
    22    10    11    2
    23    11    12    1
    24    12    13    1
    25    13    14    2
    26    14    15    1
    27    14    16    1
    28    16    17    2
    29     4     5    1
    30     5     6    1
    31    31    22   am
    32     6     1    1
    33    30    25   ar
    34    17     7    1
    35    17    11    1
@<TRIPOS>MOLECULE
*****
 31 35 0 0 0
SMALL
GASTEIGER

@<TRIPOS>ATOM
      1 N          -5.7020  -15.9357   23.8123 N.3     1  UNL1       -0.2725
      2 C          -6.1528  -16.8774   22.7353 C.3     1  UNL1        0.0738
      3 C          -7.5554  -17.4092   22.7428 C.3     1  UNL1        0.0376
      4 C          -8.5071  -16.9992   23.8274 C.3     1  UNL1        0.0841
      5 C          -8.0562  -16.0574   24.9043 C.3     1  UNL1        0.0376
      6 C          -6.6536  -15.5257   24.8968 C.3     1  UNL1        0.0738
      7 N          -9.9097  -17.5309   23.8349 N.am    1  UNL1       -0.2422
      8 C         -10.5051  -18.4326   24.8752 C.2     1  UNL1        0.3310
      9 O          -9.8025  -18.9610   26.0906 O.2     1  UNL1       -0.2501
     10 N         -11.9265  -18.7133   24.4868 N.am    1  UNL1       -0.1647
     11 C         -12.2096  -17.9849   23.2064 C.2     1  UNL1        0.0708
     12 C         -13.4413  -17.8927   22.3554 C.3     1  UNL1        0.0729
     13 C         -13.4266  -17.0697   21.1013 C.2     1  UNL1        0.0097
     14 C         -12.1800  -16.3389   20.6984 C.2     1  UNL1        0.1375
     15 F         -12.1653  -15.5160   19.4444 F       1  UNL1       -0.2045
     16 C         -10.9483  -16.4312   21.5495 C.2     1  UNL1        0.0452
     17 C         -10.9631  -17.2542   22.8035 C.2     1  UNL1        0.0691
     18 C          -4.2994  -15.4040   23.8047 C.3     1  UNL1        0.0739
     19 C          -3.4032  -15.6690   22.6314 C.3     1  UNL1        0.0392
     20 C          -2.6172  -16.9447   22.5610 C.3     1  UNL1        0.0998
     21 O          -0.5579  -16.2072   20.5079 O.2     1  UNL1       -0.2705
     22 C          -1.5081  -17.3377   20.2447 C.2     1  UNL1        0.2739
     23 C          -1.4285  -18.0993   18.9549 C.3     1  UNL1        0.2900
     24 O          -2.3786  -19.2297   18.6917 O.3     1  UNL1       -0.4643
     25 C          -3.4084  -19.5986   19.7182 C.ar    1  UNL1        0.1528
     26 C          -4.3585  -20.7290   19.4549 C.ar    1  UNL1        0.0382
     27 C          -5.3882  -21.0977   20.4814 C.ar    1  UNL1        0.0032
     28 C          -5.4677  -20.3361   21.7712 C.ar    1  UNL1        0.0015
     29 C          -4.5176  -19.2056   22.0345 C.ar    1  UNL1        0.0180
     30 C          -3.4879  -18.8369   21.0080 C.ar    1  UNL1        0.0881
     31 N          -2.5377  -17.7064   21.2712 N.am    1  UNL1       -0.2529
@<TRIPOS>BOND
     1    21    22    2
     2    22    23    1
     3    23    24    1
     4    24    25    1
     5    25    26   ar
     6    26    27   ar
     7    27    28   ar
     8    28    29   ar
     9    29    30   ar
    10    30    31    1
    11    31    20    1
    12    20    19    1
    13    19    18    1
    14    18     1    1
    15     1     2    1
    16     2     3    1
    17     3     4    1
    18     4     7    1
    19     7     8   am
    20     8     9    2
    21     8    10    1
    22    10    11    2
    23    11    12    1
    24    12    13    1
    25    13    14    2
    26    14    15    1
    27    14    16    1
    28    16    17    2
    29     4     5    1
    30     5     6    1
    31    31    22   am
    32     6     1    1
    33    30    25   ar
    34    17     7    1
    35    17    11    1
@<TRIPOS>MOLECULE
*****
 31 35 0 0 0
SMALL
GASTEIGER

@<TRIPOS>ATOM
      1 N          -9.3507  -19.2899   21.8477 N.3     1  UNL1       -0.2725
      2 C          -8.3420  -19.5925   22.9159 C.3     1  UNL1        0.0738
      3 C          -6.8982  -19.7775   22.5534 C.3     1  UNL1        0.0376
      4 C          -6.4632  -19.6599   21.1227 C.3     1  UNL1        0.0841
      5 C          -7.4719  -19.3573   20.0545 C.3     1  UNL1        0.0376
      6 C          -8.9156  -19.1723   20.4170 C.3     1  UNL1        0.0738
      7 N          -5.0195  -19.8449   20.7602 N.am    1  UNL1       -0.2422
      8 C          -4.4261  -21.0481   20.0891 C.2     1  UNL1        0.3310
      9 O          -5.1723  -22.2774   19.6627 O.2     1  UNL1       -0.2501
     10 N          -2.9556  -20.8060   19.9193 N.am    1  UNL1       -0.1647
     11 C          -2.6400  -19.4533   20.4855 C.2     1  UNL1        0.0708
     12 C          -1.3560  -18.6857   20.5949 C.3     1  UNL1        0.0729
     13 C          -1.3475  -17.3240   21.2240 C.2     1  UNL1        0.0097
     14 C          -2.6231  -16.7300   21.7438 C.2     1  UNL1        0.1375
     15 F          -2.6147  -15.3683   22.3730 F       1  UNL1       -0.2045
     16 C          -3.9071  -17.4977   21.6344 C.2     1  UNL1        0.0452
     17 C          -3.9156  -18.8593   21.0052 C.2     1  UNL1        0.0691
     18 C         -10.7944  -19.1049   22.2102 C.3     1  UNL1        0.0739
     19 C         -11.1638  -18.4463   23.5063 C.3     1  UNL1        0.0392
     20 C         -11.0097  -16.9625   23.6642 C.3     1  UNL1        0.0998
     21 O         -10.1960  -15.9962   20.9432 O.2     1  UNL1       -0.2705
     22 C          -9.2607  -15.8394   22.1055 C.2     1  UNL1        0.2739
     23 C          -7.9186  -15.1995   21.9072 C.3     1  UNL1        0.2900
     24 O          -6.9834  -15.0428   23.0694 O.3     1  UNL1       -0.4643
     25 C          -7.3903  -15.5260   24.4299 C.ar    1  UNL1        0.1528
     26 C          -6.4550  -15.3692   25.5921 C.ar    1  UNL1        0.0382
     27 C          -6.8619  -15.8524   26.9526 C.ar    1  UNL1        0.0032
     28 C          -8.2040  -16.4924   27.1509 C.ar    1  UNL1        0.0015
     29 C          -9.1392  -16.6491   25.9887 C.ar    1  UNL1        0.0180
     30 C          -8.7323  -16.1659   24.6282 C.ar    1  UNL1        0.0881
     31 N          -9.6676  -16.3226   23.4659 N.am    1  UNL1       -0.2529
@<TRIPOS>BOND
     1    21    22    2
     2    22    23    1
     3    23    24    1
     4    24    25    1
     5    25    26   ar
     6    26    27   ar
     7    27    28   ar
     8    28    29   ar
     9    29    30   ar
    10    30    31    1
    11    31    20    1
    12    20    19    1
    13    19    18    1
    14    18     1    1
    15     1     2    1
    16     2     3    1
    17     3     4    1
    18     4     7    1
    19     7     8   am
    20     8     9    2
    21     8    10    1
    22    10    11    2
    23    11    12    1
    24    12    13    1
    25    13    14    2
    26    14    15    1
    27    14    16    1
    28    16    17    2
    29     4     5    1
    30     5     6    1
    31    31    22   am
    32     6     1    1
    33    30    25   ar
    34    17     7    1
    35    17    11    1
@<TRIPOS>MOLECULE
*****
 31 35 0 0 0
SMALL
GASTEIGER

@<TRIPOS>ATOM
      1 N           0.4120    1.9124   19.5604 N.3     1  UNL1       -0.2725
      2 C           1.6461    2.2616   18.7826 C.3     1  UNL1        0.0738
      3 C           2.7182    1.2331   18.5755 C.3     1  UNL1        0.0376
      4 C           2.5561   -0.1446   19.1462 C.3     1  UNL1        0.0841
      5 C           1.3219   -0.4938   19.9241 C.3     1  UNL1        0.0376
      6 C           0.2499    0.5347   20.1311 C.3     1  UNL1        0.0738
      7 N           3.6281   -1.1731   18.9392 N.am    1  UNL1       -0.2422
      8 C           4.2441   -1.5522   17.6251 C.2     1  UNL1        0.3310
      9 O           3.8964   -0.9694   16.2875 O.2     1  UNL1       -0.2501
     10 N           5.2690   -2.6165   17.8836 N.am    1  UNL1       -0.1647
     11 C           5.2864   -2.8952   19.3574 C.2     1  UNL1        0.0708
     12 C           6.0947   -3.8460   20.1895 C.3     1  UNL1        0.0729
     13 C           5.8888   -3.9048   21.6742 C.2     1  UNL1        0.0097
     14 C           4.8746   -3.0127   22.3267 C.2     1  UNL1        0.1375
     15 F           4.6687   -3.0714   23.8113 F       1  UNL1       -0.2045
     16 C           4.0663   -2.0619   21.4944 C.2     1  UNL1        0.0452
     17 C           4.2722   -2.0031   20.0098 C.2     1  UNL1        0.0691
     18 C          -0.6601    2.9409   19.7675 C.3     1  UNL1        0.0739
     19 C          -1.5532    2.8617   20.9700 C.3     1  UNL1        0.0392
     20 C          -2.0603    4.1191   21.6118 C.3     1  UNL1        0.0998
     21 O          -0.6035    3.6996   24.2006 O.2     1  UNL1       -0.2705
     22 C          -2.0971    3.8380   24.1944 C.2     1  UNL1        0.2739
     23 C          -2.8623    3.7666   25.4825 C.3     1  UNL1        0.2900
     24 O          -4.3559    3.9050   25.4763 O.3     1  UNL1       -0.4643
     25 C          -5.0843    4.1148   24.1819 C.ar    1  UNL1        0.1528
     26 C          -6.5779    4.2531   24.1757 C.ar    1  UNL1        0.0382
     27 C          -7.3062    4.4629   22.8813 C.ar    1  UNL1        0.0032
     28 C          -6.5410    4.5342   21.5931 C.ar    1  UNL1        0.0015
     29 C          -5.0475    4.3959   21.5993 C.ar    1  UNL1        0.0180
     30 C          -4.3191    4.1861   22.8937 C.ar    1  UNL1        0.0881
     31 N          -2.8255    4.0478   22.9000 N.am    1  UNL1       -0.2529
@<TRIPOS>BOND
     1    21    22    2
     2    22    23    1
     3    23    24    1
     4    24    25    1
     5    25    26   ar
     6    26    27   ar
     7    27    28   ar
     8    28    29   ar
     9    29    30   ar
    10    30    31    1
    11    31    20    1
    12    20    19    1
    13    19    18    1
    14    18     1    1
    15     1     2    1
    16     2     3    1
    17     3     4    1
    18     4     7    1
    19     7     8   am
    20     8     9    2
    21     8    10    1
    22    10    11    2
    23    11    12    1
    24    12    13    1
    25    13    14    2
    26    14    15    1
    27    14    16    1
    28    16    17    2
    29     4     5    1
    30     5     6    1
    31    31    22   am
    32     6     1    1
    33    30    25   ar
    34    17     7    1
    35    17    11    1
