@<TRIPOS>MOLECULE
*****
 44 46 0 0 0
SMALL
GASTEIGER

@<TRIPOS>ATOM
      1 C           0.7203    3.0477   19.0627 C.ar    1  UNL1        0.0539
      2 S          -0.4206    3.2179   18.1039 S.2     1  UNL1       -0.0619
      3 C          -1.2309    4.3979   18.5523 C.ar    1  UNL1        0.1641
      4 N          -0.5907    4.9569   19.7883 N.ar    1  UNL1       -0.2291
      5 C           0.6152    4.1224   20.1037 C.ar    1  UNL1        0.1414
      6 C           1.5515    4.3269   21.2576 C.2     1  UNL1        0.2672
      7 O           2.8884    4.9694   21.0340 O.2     1  UNL1       -0.2682
      8 N           1.1511    3.8888   22.6352 N.am    1  UNL1       -0.2763
      9 C           2.0874    4.0933   23.7891 C.3     1  UNL1        0.0965
     10 C           1.6870    3.6552   25.1666 C.3     1  UNL1        0.0568
     11 C           0.3502    3.0126   25.3904 C.3     1  UNL1        0.1643
     12 F          -0.0503    2.5745   26.7679 F       1  UNL1       -0.2372
     13 C          -0.5862    2.8081   24.2365 C.3     1  UNL1        0.0551
     14 C          -0.1858    3.2462   22.8589 C.3     1  UNL1        0.0785
     15 C          -1.1221    3.0418   21.7050 C.3     1  UNL1        0.0216
     16 C           3.9002   -0.1295   18.8528 C.ar    1  UNL1        0.1333
     17 C           4.1592    1.2302   18.2748 C.ar    1  UNL1        0.0208
     18 C           3.0993    2.2892   18.3447 C.ar    1  UNL1        0.0028
     19 C           1.7803    1.9886   18.9927 C.ar    1  UNL1        0.0191
     20 C           1.5213    0.6289   19.5708 C.ar    1  UNL1        0.0700
     21 CL          0.2023    0.3283   20.2189 Cl      1  UNL1       -0.0813
     22 C           2.5813   -0.4301   19.5009 C.ar    1  UNL1        0.0867
     23 CL          2.3222   -1.7898   20.0790 Cl      1  UNL1       -0.0800
     24 S           4.9602   -1.1886   18.7829 S.O2    1  UNL1        0.0613
     25 O           5.4285   -0.8106   20.1569 O.2     1  UNL1       -0.1530
     26 O           4.4918   -1.5666   17.4089 O.2     1  UNL1       -0.1530
     27 N           6.0201   -2.2476   18.7129 N.3     1  UNL1       -0.1723
     28 H           6.0172   -2.6045   17.7574 H       1  UNL1        0.1491
     29 C           7.1216   -3.7906   20.4895 C.3     1  UNL1        0.0278
     30 C           5.9503   -3.4398   19.6206 C.3     1  UNL1        0.1701
     31 C           4.7091   -4.2812   19.6593 C.3     1  UNL1        0.4118
     32 F           3.4679   -5.1226   19.6981 F       1  UNL1       -0.1685
     33 F           4.9002   -4.6297   18.2130 F       1  UNL1       -0.1685
     34 F           4.5180   -3.9326   21.1057 F       1  UNL1       -0.1685
     35 C          -2.4646    4.9260   17.8824 C.2     1  UNL1        0.2699
     36 O          -2.3591    6.0507   16.8955 O.2     1  UNL1       -0.2679
     37 N          -3.8039    4.3296   18.1994 N.am    1  UNL1       -0.2969
     38 H          -3.8731    3.5914   18.8472 H       1  UNL1        0.1499
     39 C          -5.0377    4.8577   17.5295 C.3     1  UNL1        0.1166
     40 C          -6.3909    4.5478   18.0980 C.3     1  UNL1        0.1064
     41 C          -6.9431    5.7876   17.4593 C.3     1  UNL1        0.0311
     42 C          -5.8385    3.3080   18.7366 C.3     1  UNL1        0.0311
     43 O          -7.7439    4.2379   18.6665 O.3     1  UNL1       -0.3851
     44 H          -8.3723    4.9269   18.3996 H       1  UNL1        0.2103
@<TRIPOS>BOND
     1    30    29    1
     2    30    27    1
     3    27    24    1
     4    24    25    2
     5    24    26    2
     6    24    16    1
     7    16    17   ar
     8    17    18   ar
     9    18    19   ar
    10    19     1    1
    11     1     2   ar
    12     2     3   ar
    13     3    35    1
    14    35    36    2
    15    35    37   am
    16    37    39    1
    17    39    40    1
    18    40    41    1
    19    40    42    1
    20    40    43    1
    21     3     4   ar
    22     4     5   ar
    23     5     6    1
    24     6     7    2
    25     6     8   am
    26     8     9    1
    27     9    10    1
    28    10    11    1
    29    11    12    1
    30    11    13    1
    31    13    14    1
    32    14    15    1
    33    19    20   ar
    34    20    21    1
    35    20    22   ar
    36    22    23    1
    37    30    31    1
    38    31    32    1
    39    31    33    1
    40    31    34    1
    41    22    16   ar
    42     5     1   ar
    43    14     8    1
    44    27    28    1
    45    37    38    1
    46    43    44    1
@<TRIPOS>MOLECULE
*****
 44 46 0 0 0
SMALL
GASTEIGER

@<TRIPOS>ATOM
      1 C          -0.3564    2.6933   24.9273 C.ar    1  UNL1        0.0539
      2 S          -1.7999    2.9941   24.6521 S.2     1  UNL1       -0.0619
      3 C          -2.3404    3.7748   25.8132 C.ar    1  UNL1        0.1641
      4 N          -1.2309    3.9566   26.8062 N.ar    1  UNL1       -0.2291
      5 C          -0.0047    3.2882   26.2586 C.ar    1  UNL1        0.1414
      6 C           1.3375    3.2256   26.9254 C.2     1  UNL1        0.2672
      7 O           2.3822    4.2537   26.6061 O.2     1  UNL1       -0.2682
      8 N           1.6350    2.1353   27.9115 N.am    1  UNL1       -0.2763
      9 C           2.9772    2.0727   28.5782 C.3     1  UNL1        0.0965
     10 C           3.2748    0.9822   29.5643 C.3     1  UNL1        0.0568
     11 C           2.2301   -0.0457   29.8837 C.3     1  UNL1        0.1643
     12 F           2.5277   -1.1362   30.8697 F       1  UNL1       -0.2372
     13 C           0.8879    0.0167   29.2169 C.3     1  UNL1        0.0551
     14 C           0.5904    1.1072   28.2308 C.3     1  UNL1        0.0785
     15 C          -0.7518    1.1698   27.5641 C.3     1  UNL1        0.0216
     16 C           2.4298    0.4076   22.2324 C.ar    1  UNL1        0.1333
     17 C           2.1566   -0.0871   23.6218 C.ar    1  UNL1        0.0208
     18 C           1.2278    0.6748   24.5201 C.ar    1  UNL1        0.0028
     19 C           0.5723    1.9314   24.0290 C.ar    1  UNL1        0.0191
     20 C           0.8456    2.4261   22.6396 C.ar    1  UNL1        0.0700
     21 CL          0.1901    3.6828   22.1484 Cl      1  UNL1       -0.0813
     22 C           1.7744    1.6643   21.7413 C.ar    1  UNL1        0.0867
     23 CL          2.0476    2.1590   20.3518 Cl      1  UNL1       -0.0800
     24 S           3.3586   -0.3542   21.3341 S.O2    1  UNL1        0.0613
     25 O           4.5295    0.3677   21.9324 O.2     1  UNL1       -0.1530
     26 O           2.1877   -1.0761   20.7358 O.2     1  UNL1       -0.1530
     27 N           4.2874   -1.1161   20.4358 N.3     1  UNL1       -0.1723
     28 H           3.9392   -0.9984   19.4843 H       1  UNL1        0.1491
     29 C           4.5476   -3.1486   22.0331 C.3     1  UNL1        0.0278
     30 C           4.4921   -2.5875   20.6431 C.3     1  UNL1        0.1701
     31 C           4.6414   -3.4979   19.4603 C.3     1  UNL1        0.4118
     32 F           4.7907   -4.4083   18.2776 F       1  UNL1       -0.1685
     33 F           3.1724   -3.7978   19.5057 F       1  UNL1       -0.1685
     34 F           6.1104   -3.1981   19.4150 F       1  UNL1       -0.1685
     35 C          -3.7439    4.2843   25.9563 C.2     1  UNL1        0.2699
     36 O          -4.3419    4.4623   27.3204 O.2     1  UNL1       -0.2679
     37 N          -4.5495    4.6159   24.7352 N.am    1  UNL1       -0.2969
     38 H          -4.1571    4.4992   23.8399 H       1  UNL1        0.1499
     39 C          -5.9531    5.1255   24.8783 C.3     1  UNL1        0.1166
     40 C          -7.0016    4.7245   23.8833 C.3     1  UNL1        0.1064
     41 C          -8.0263    5.5105   24.6463 C.3     1  UNL1        0.0311
     42 C          -5.9768    3.9384   23.1203 C.3     1  UNL1        0.0311
     43 O          -8.0500    4.3235   22.8883 O.3     1  UNL1       -0.3851
     44 H          -8.9007    4.7163   23.1389 H       1  UNL1        0.2103
@<TRIPOS>BOND
     1    30    29    1
     2    30    27    1
     3    27    24    1
     4    24    25    2
     5    24    26    2
     6    24    16    1
     7    16    17   ar
     8    17    18   ar
     9    18    19   ar
    10    19     1    1
    11     1     2   ar
    12     2     3   ar
    13     3    35    1
    14    35    36    2
    15    35    37   am
    16    37    39    1
    17    39    40    1
    18    40    41    1
    19    40    42    1
    20    40    43    1
    21     3     4   ar
    22     4     5   ar
    23     5     6    1
    24     6     7    2
    25     6     8   am
    26     8     9    1
    27     9    10    1
    28    10    11    1
    29    11    12    1
    30    11    13    1
    31    13    14    1
    32    14    15    1
    33    19    20   ar
    34    20    21    1
    35    20    22   ar
    36    22    23    1
    37    30    31    1
    38    31    32    1
    39    31    33    1
    40    31    34    1
    41    22    16   ar
    42     5     1   ar
    43    14     8    1
    44    27    28    1
    45    37    38    1
    46    43    44    1
@<TRIPOS>MOLECULE
*****
 44 46 0 0 0
SMALL
GASTEIGER

@<TRIPOS>ATOM
      1 C           3.2991    1.5730   32.4435 C.ar    1  UNL1        0.0539
      2 S           2.6470    2.0719   33.6989 S.2     1  UNL1       -0.0619
      3 C           3.6803    2.0801   34.7862 C.ar    1  UNL1        0.1641
      4 N           4.9709    1.5862   34.2030 N.ar    1  UNL1       -0.2291
      5 C           4.7353    1.2728   32.7551 C.ar    1  UNL1        0.1414
      6 C           5.7567    0.7508   31.7885 C.2     1  UNL1        0.2672
      7 O           6.4756    1.6971   30.8732 O.2     1  UNL1       -0.2682
      8 N           6.0593   -0.7174   31.7371 N.am    1  UNL1       -0.2763
      9 C           7.0806   -1.2394   30.7705 C.3     1  UNL1        0.0965
     10 C           7.3832   -2.7077   30.7192 C.3     1  UNL1        0.0568
     11 C           6.6643   -3.6540   31.6344 C.3     1  UNL1        0.1643
     12 F           6.9668   -5.1223   31.5831 F       1  UNL1       -0.2372
     13 C           5.6429   -3.1321   32.6011 C.3     1  UNL1        0.0551
     14 C           5.3404   -1.6638   32.6524 C.3     1  UNL1        0.0785
     15 C           4.3190   -1.1419   33.6190 C.3     1  UNL1        0.0216
     16 C           1.2979    1.0658   28.4450 C.ar    1  UNL1        0.1333
     17 C           1.6545   -0.1396   29.2635 C.ar    1  UNL1        0.0208
     18 C           2.3215    0.0295   30.5964 C.ar    1  UNL1        0.0028
     19 C           2.6320    1.4039   31.1107 C.ar    1  UNL1        0.0191
     20 C           2.2755    2.6092   30.2922 C.ar    1  UNL1        0.0700
     21 CL          2.5860    3.9837   30.8065 Cl      1  UNL1       -0.0813
     22 C           1.6085    2.4402   28.9593 C.ar    1  UNL1        0.0867
     23 CL          1.2519    3.6456   28.1408 Cl      1  UNL1       -0.0800
     24 S           0.6309    0.8967   27.1122 S.O2    1  UNL1        0.0613
     25 O          -0.7123    0.9463   27.7781 O.2     1  UNL1       -0.1530
     26 O           1.9740    0.8472   26.4463 O.2     1  UNL1       -0.1530
     27 N          -0.0362    0.7276   25.7793 N.3     1  UNL1       -0.1723
     28 H           0.3465   -0.1219   25.3642 H       1  UNL1        0.1491
     29 C           0.6870    1.4996   23.4063 C.3     1  UNL1        0.0278
     30 C           0.0767    1.8053   24.7421 C.3     1  UNL1        0.1701
     31 C          -0.4206    3.1886   25.0405 C.3     1  UNL1        0.4118
     32 F          -0.9180    4.5719   25.3390 F       1  UNL1       -0.1685
     33 F          -1.8090    2.6504   25.2213 F       1  UNL1       -0.1685
     34 F           0.9678    3.7268   24.8597 F       1  UNL1       -0.1685
     35 C           3.4612    2.5072   36.2074 C.2     1  UNL1        0.2699
     36 O           4.5638    3.1857   36.9650 O.2     1  UNL1       -0.2679
     37 N           2.1397    2.2558   36.8708 N.am    1  UNL1       -0.2969
     38 H           1.4160    1.8105   36.3736 H       1  UNL1        0.1499
     39 C           1.9207    2.6829   38.2920 C.3     1  UNL1        0.1166
     40 C           1.4938    1.6773   39.3200 C.3     1  UNL1        0.1064
     41 C           2.8175    0.9836   39.1910 C.3     1  UNL1        0.0311
     42 C           0.1701    2.3711   39.4490 C.3     1  UNL1        0.0311
     43 O           1.0670    0.6718   40.3480 O.3     1  UNL1       -0.3851
     44 H           1.7820    0.0320   40.4909 H       1  UNL1        0.2103
@<TRIPOS>BOND
     1    30    29    1
     2    30    27    1
     3    27    24    1
     4    24    25    2
     5    24    26    2
     6    24    16    1
     7    16    17   ar
     8    17    18   ar
     9    18    19   ar
    10    19     1    1
    11     1     2   ar
    12     2     3   ar
    13     3    35    1
    14    35    36    2
    15    35    37   am
    16    37    39    1
    17    39    40    1
    18    40    41    1
    19    40    42    1
    20    40    43    1
    21     3     4   ar
    22     4     5   ar
    23     5     6    1
    24     6     7    2
    25     6     8   am
    26     8     9    1
    27     9    10    1
    28    10    11    1
    29    11    12    1
    30    11    13    1
    31    13    14    1
    32    14    15    1
    33    19    20   ar
    34    20    21    1
    35    20    22   ar
    36    22    23    1
    37    30    31    1
    38    31    32    1
    39    31    33    1
    40    31    34    1
    41    22    16   ar
    42     5     1   ar
    43    14     8    1
    44    27    28    1
    45    37    38    1
    46    43    44    1
@<TRIPOS>MOLECULE
*****
 44 46 0 0 0
SMALL
GASTEIGER

@<TRIPOS>ATOM
      1 C           1.2799    2.1450   18.9477 C.ar    1  UNL1        0.0539
      2 S           1.5458    0.7030   18.6318 S.2     1  UNL1       -0.0619
      3 C           2.9563    0.5899   18.1341 C.ar    1  UNL1        0.1641
      4 N           3.5621    1.9620   18.1423 N.ar    1  UNL1       -0.2291
      5 C           2.5261    2.9231   18.6452 C.ar    1  UNL1        0.1414
      6 C           2.7048    4.4027   18.8156 C.2     1  UNL1        0.2672
      7 O           2.3530    5.3348   17.6942 O.2     1  UNL1       -0.2682
      8 N           3.2354    4.9502   20.1073 N.am    1  UNL1       -0.2763
      9 C           3.4141    6.4297   20.2778 C.3     1  UNL1        0.0965
     10 C           3.9447    6.9772   21.5696 C.3     1  UNL1        0.0568
     11 C           4.2965    6.0453   22.6910 C.3     1  UNL1        0.1643
     12 F           4.8270    6.5927   23.9828 F       1  UNL1       -0.2372
     13 C           4.1177    4.5657   22.5207 C.3     1  UNL1        0.0551
     14 C           3.5872    4.0182   21.2289 C.3     1  UNL1        0.0785
     15 C           3.4084    2.5387   21.0584 C.3     1  UNL1        0.0216
     16 C          -2.5787    3.8392   20.5260 C.ar    1  UNL1        0.1333
     17 C          -1.6516    3.1016   21.4460 C.ar    1  UNL1        0.0208
     18 C          -0.3654    2.5369   20.9199 C.ar    1  UNL1        0.0028
     19 C          -0.0063    2.7097   19.4738 C.ar    1  UNL1        0.0191
     20 C          -0.9334    3.4473   18.5538 C.ar    1  UNL1        0.0700
     21 CL         -0.5743    3.6202   17.1077 Cl      1  UNL1       -0.0813
     22 C          -2.2196    4.0120   19.0799 C.ar    1  UNL1        0.0867
     23 CL         -3.1467    4.7496   18.1598 Cl      1  UNL1       -0.0800
     24 S          -3.8649    4.4039   21.0520 S.O2    1  UNL1        0.0613
     25 O          -3.1442    5.6486   21.4780 O.2     1  UNL1       -0.1530
     26 O          -4.5856    3.1592   20.6261 O.2     1  UNL1       -0.1530
     27 N          -5.1511    4.9686   21.5781 N.3     1  UNL1       -0.1723
     28 H          -4.9909    5.9625   21.7425 H       1  UNL1        0.1491
     29 C          -7.2452    4.2855   22.9559 C.3     1  UNL1        0.0278
     30 C          -5.7557    4.4140   22.8338 C.3     1  UNL1        0.1701
     31 C          -4.8708    3.9879   23.9676 C.3     1  UNL1        0.4118
     32 F          -3.9859    3.5618   25.1013 F       1  UNL1       -0.1685
     33 F          -4.6840    5.4232   24.3613 F       1  UNL1       -0.1685
     34 F          -5.0575    2.5526   23.5739 F       1  UNL1       -0.1685
     35 C           3.6407   -0.6736   17.7036 C.2     1  UNL1        0.2699
     36 O           3.9147   -0.9202   16.2496 O.2     1  UNL1       -0.2679
     37 N           4.0511   -1.6904   18.7272 N.am    1  UNL1       -0.2969
     38 H           3.8713   -1.5285   19.6815 H       1  UNL1        0.1499
     39 C           4.7355   -2.9538   18.2967 C.3     1  UNL1        0.1166
     40 C           5.4342   -3.8110   19.3103 C.3     1  UNL1        0.1064
     41 C           6.2611   -2.6341   19.7357 C.3     1  UNL1        0.0311
     42 C           4.6072   -4.9880   18.8847 C.3     1  UNL1        0.0311
     43 O           6.1327   -4.6683   20.3237 O.3     1  UNL1       -0.3851
     44 H           6.7875   -4.1355   20.8016 H       1  UNL1        0.2103
@<TRIPOS>BOND
     1    30    29    1
     2    30    27    1
     3    27    24    1
     4    24    25    2
     5    24    26    2
     6    24    16    1
     7    16    17   ar
     8    17    18   ar
     9    18    19   ar
    10    19     1    1
    11     1     2   ar
    12     2     3   ar
    13     3    35    1
    14    35    36    2
    15    35    37   am
    16    37    39    1
    17    39    40    1
    18    40    41    1
    19    40    42    1
    20    40    43    1
    21     3     4   ar
    22     4     5   ar
    23     5     6    1
    24     6     7    2
    25     6     8   am
    26     8     9    1
    27     9    10    1
    28    10    11    1
    29    11    12    1
    30    11    13    1
    31    13    14    1
    32    14    15    1
    33    19    20   ar
    34    20    21    1
    35    20    22   ar
    36    22    23    1
    37    30    31    1
    38    31    32    1
    39    31    33    1
    40    31    34    1
    41    22    16   ar
    42     5     1   ar
    43    14     8    1
    44    27    28    1
    45    37    38    1
    46    43    44    1
@<TRIPOS>MOLECULE
*****
 44 46 0 0 0
SMALL
GASTEIGER

@<TRIPOS>ATOM
      1 C           2.4803    0.9496   22.0966 C.ar    1  UNL1        0.0539
      2 S           1.1263    1.5944   22.0677 S.2     1  UNL1       -0.0619
      3 C           0.8512    2.0320   20.6596 C.ar    1  UNL1        0.1641
      4 N           2.0352    1.6576   19.8182 N.ar    1  UNL1       -0.2291
      5 C           3.0420    0.9887   20.7063 C.ar    1  UNL1        0.1414
      6 C           4.3764    0.4529   20.2791 C.2     1  UNL1        0.2672
      7 O           5.5941    1.3257   20.3544 O.2     1  UNL1       -0.2682
      8 N           4.4931   -0.9555   19.7766 N.am    1  UNL1       -0.2763
      9 C           5.8275   -1.4913   19.3494 C.3     1  UNL1        0.0965
     10 C           5.9441   -2.8998   18.8469 C.3     1  UNL1        0.0568
     11 C           4.7266   -3.7725   18.7716 C.3     1  UNL1        0.1643
     12 F           4.8433   -5.1810   18.2691 F       1  UNL1       -0.2372
     13 C           3.3922   -3.2368   19.1988 C.3     1  UNL1        0.0551
     14 C           3.2755   -1.8283   19.7013 C.3     1  UNL1        0.0785
     15 C           1.9411   -1.2926   20.1285 C.3     1  UNL1        0.0216
     16 C           4.5022   -0.7956   25.7183 C.ar    1  UNL1        0.1333
     17 C           4.1380   -1.6806   24.5632 C.ar    1  UNL1        0.0208
     18 C           3.4641   -1.0988   23.3560 C.ar    1  UNL1        0.0028
     19 C           3.1543    0.3679   23.3039 C.ar    1  UNL1        0.0191
     20 C           3.5184    1.2528   24.4589 C.ar    1  UNL1        0.0700
     21 CL          3.2087    2.7196   24.4068 Cl      1  UNL1       -0.0813
     22 C           4.1924    0.6711   25.6661 C.ar    1  UNL1        0.0867
     23 CL          4.5566    1.5562   26.8212 Cl      1  UNL1       -0.0800
     24 S           5.1762   -1.3773   26.9255 S.O2    1  UNL1        0.0613
     25 O           6.5086   -0.9422   26.3913 O.2     1  UNL1       -0.1530
     26 O           3.8438   -1.8125   27.4596 O.2     1  UNL1       -0.1530
     27 N           5.8501   -1.9591   28.1327 N.3     1  UNL1       -0.1723
     28 H           6.6825   -1.3955   28.3054 H       1  UNL1        0.1491
     29 C           6.5223   -4.1016   26.8258 C.3     1  UNL1        0.0278
     30 C           6.2913   -3.3927   28.1274 C.3     1  UNL1        0.1701
     31 C           6.5016   -4.1174   29.4238 C.3     1  UNL1        0.4118
     32 F           6.7118   -4.8422   30.7201 F       1  UNL1       -0.1685
     33 F           6.1293   -5.4106   28.7612 F       1  UNL1       -0.1685
     34 F           6.8739   -2.8243   30.0864 F       1  UNL1       -0.1685
     35 C          -0.3900    2.7227   20.1776 C.2     1  UNL1        0.2699
     36 O          -0.3526    3.5427   18.9221 O.2     1  UNL1       -0.2679
     37 N          -1.6687    2.5933   20.9510 N.am    1  UNL1       -0.2969
     38 H          -1.6933    2.0551   21.7750 H       1  UNL1        0.1499
     39 C          -2.9099    3.2839   20.4689 C.3     1  UNL1        0.1166
     40 C          -4.0628    3.4946   21.4054 C.3     1  UNL1        0.1064
     41 C          -3.1041    3.6756   22.5448 C.3     1  UNL1        0.0311
     42 C          -5.0214    3.3136   20.2659 C.3     1  UNL1        0.0311
     43 O          -5.2155    3.7053   22.3417 O.3     1  UNL1       -0.3851
     44 H          -4.8795    3.8610   23.2383 H       1  UNL1        0.2103
@<TRIPOS>BOND
     1    30    29    1
     2    30    27    1
     3    27    24    1
     4    24    25    2
     5    24    26    2
     6    24    16    1
     7    16    17   ar
     8    17    18   ar
     9    18    19   ar
    10    19     1    1
    11     1     2   ar
    12     2     3   ar
    13     3    35    1
    14    35    36    2
    15    35    37   am
    16    37    39    1
    17    39    40    1
    18    40    41    1
    19    40    42    1
    20    40    43    1
    21     3     4   ar
    22     4     5   ar
    23     5     6    1
    24     6     7    2
    25     6     8   am
    26     8     9    1
    27     9    10    1
    28    10    11    1
    29    11    12    1
    30    11    13    1
    31    13    14    1
    32    14    15    1
    33    19    20   ar
    34    20    21    1
    35    20    22   ar
    36    22    23    1
    37    30    31    1
    38    31    32    1
    39    31    33    1
    40    31    34    1
    41    22    16   ar
    42     5     1   ar
    43    14     8    1
    44    27    28    1
    45    37    38    1
    46    43    44    1
@<TRIPOS>MOLECULE
*****
 44 46 0 0 0
SMALL
GASTEIGER

@<TRIPOS>ATOM
      1 C           4.9762   -1.8635   20.4622 C.ar    1  UNL1        0.0539
      2 S           5.4765   -2.7720   21.5459 S.2     1  UNL1       -0.0619
      3 C           6.7232   -3.4426   21.0499 C.ar    1  UNL1        0.1641
      4 N           6.9934   -2.9486   19.6596 N.ar    1  UNL1       -0.2291
      5 C           5.9138   -1.9727   19.2964 C.ar    1  UNL1        0.1414
      6 C           5.7929   -1.2353   17.9957 C.2     1  UNL1        0.2672
      7 O           4.7368   -1.6290   17.0058 O.2     1  UNL1       -0.2682
      8 N           6.7279   -0.1045   17.6849 N.am    1  UNL1       -0.2763
      9 C           6.6070    0.6328   16.3842 C.3     1  UNL1        0.0965
     10 C           7.5421    1.7638   16.0734 C.3     1  UNL1        0.0568
     11 C           8.5981    2.1574   17.0633 C.3     1  UNL1        0.1643
     12 F           9.5332    3.2883   16.7525 F       1  UNL1       -0.2372
     13 C           8.7191    1.4201   18.3640 C.3     1  UNL1        0.0551
     14 C           7.7840    0.2892   18.6748 C.3     1  UNL1        0.0785
     15 C           7.9049   -0.4481   19.9755 C.3     1  UNL1        0.0216
     16 C           1.3071    0.7333   20.6717 C.ar    1  UNL1        0.1333
     17 C           1.2049   -0.6684   20.1478 C.ar    1  UNL1        0.0208
     18 C           2.4280   -1.5341   20.0779 C.ar    1  UNL1        0.0028
     19 C           3.7532   -0.9979   20.5321 C.ar    1  UNL1        0.0191
     20 C           3.8553    0.4038   21.0560 C.ar    1  UNL1        0.0700
     21 CL          5.1806    0.9401   21.5102 Cl      1  UNL1       -0.0813
     22 C           2.6323    1.2694   21.1259 C.ar    1  UNL1        0.0867
     23 CL          2.7345    2.6713   21.6499 Cl      1  UNL1       -0.0800
     24 S           0.0840    1.5989   20.7416 S.O2    1  UNL1        0.0613
     25 O           0.2724    1.9812   19.3034 O.2     1  UNL1       -0.1530
     26 O          -0.1044    1.2167   22.1798 O.2     1  UNL1       -0.1530
     27 N          -1.1390    2.4645   20.8114 N.3     1  UNL1       -0.1723
     28 H          -1.2859    2.8428   19.8756 H       1  UNL1        0.1491
     29 C          -0.2125    4.7591   21.6029 C.3     1  UNL1        0.0278
     30 C          -1.1827    3.6259   21.7597 C.3     1  UNL1        0.1701
     31 C          -2.1967    3.6542   22.8647 C.3     1  UNL1        0.4118
     32 F          -3.2106    3.6825   23.9697 F       1  UNL1       -0.1685
     33 F          -3.2557    3.1995   21.9046 F       1  UNL1       -0.1685
     34 F          -1.1377    4.1089   23.8248 F       1  UNL1       -0.1685
     35 C           7.5538   -4.4332   21.8106 C.2     1  UNL1        0.2699
     36 O           8.3240   -5.4888   21.0739 O.2     1  UNL1       -0.2679
     37 N           7.6141   -4.3684   23.3080 N.am    1  UNL1       -0.2969
     38 H           7.1086   -3.6756   23.7914 H       1  UNL1        0.1499
     39 C           8.4447   -5.3591   24.0687 C.3     1  UNL1        0.1166
     40 C           7.7845   -6.3363   24.9957 C.3     1  UNL1        0.1064
     41 C           8.4568   -7.4699   24.2795 C.3     1  UNL1        0.0311
     42 C           7.1122   -5.2026   25.7119 C.3     1  UNL1        0.0311
     43 O           7.1243   -7.3134   25.9227 O.3     1  UNL1       -0.3851
     44 H           7.3919   -8.2152   25.6859 H       1  UNL1        0.2103
@<TRIPOS>BOND
     1    30    29    1
     2    30    27    1
     3    27    24    1
     4    24    25    2
     5    24    26    2
     6    24    16    1
     7    16    17   ar
     8    17    18   ar
     9    18    19   ar
    10    19     1    1
    11     1     2   ar
    12     2     3   ar
    13     3    35    1
    14    35    36    2
    15    35    37   am
    16    37    39    1
    17    39    40    1
    18    40    41    1
    19    40    42    1
    20    40    43    1
    21     3     4   ar
    22     4     5   ar
    23     5     6    1
    24     6     7    2
    25     6     8   am
    26     8     9    1
    27     9    10    1
    28    10    11    1
    29    11    12    1
    30    11    13    1
    31    13    14    1
    32    14    15    1
    33    19    20   ar
    34    20    21    1
    35    20    22   ar
    36    22    23    1
    37    30    31    1
    38    31    32    1
    39    31    33    1
    40    31    34    1
    41    22    16   ar
    42     5     1   ar
    43    14     8    1
    44    27    28    1
    45    37    38    1
    46    43    44    1
@<TRIPOS>MOLECULE
*****
 44 46 0 0 0
SMALL
GASTEIGER

@<TRIPOS>ATOM
      1 C          -0.0738    3.1323   22.2462 C.ar    1  UNL1        0.0539
      2 S          -1.4273    3.4137   21.6641 S.2     1  UNL1       -0.0619
      3 C          -2.0602    4.5087   22.4705 C.ar    1  UNL1        0.1641
      4 N          -1.0979    4.9040   23.5511 N.ar    1  UNL1       -0.2291
      5 C           0.1298    4.0534   23.4124 C.ar    1  UNL1        0.1414
      6 C           1.3472    4.1133   24.2866 C.2     1  UNL1        0.2672
      7 O           2.5322    4.9320   23.8671 O.2     1  UNL1       -0.2682
      8 N           1.3799    3.3548   25.5802 N.am    1  UNL1       -0.2763
      9 C           2.5974    3.4148   26.4543 C.3     1  UNL1        0.0965
     10 C           2.6300    2.6562   27.7479 C.3     1  UNL1        0.0568
     11 C           1.4451    1.8376   28.1675 C.3     1  UNL1        0.1643
     12 F           1.4777    1.0790   29.4611 F       1  UNL1       -0.2372
     13 C           0.2276    1.7776   27.2934 C.3     1  UNL1        0.0551
     14 C           0.1950    2.5362   25.9997 C.3     1  UNL1        0.0785
     15 C          -1.0225    2.4762   25.1256 C.3     1  UNL1        0.0216
     16 C           2.8608    0.0637   20.7555 C.ar    1  UNL1        0.1333
     17 C           2.1632   -0.1409   22.0675 C.ar    1  UNL1        0.0208
     18 C           1.1850    0.8820   22.5644 C.ar    1  UNL1        0.0028
     19 C           0.9044    2.1095   21.7493 C.ar    1  UNL1        0.0191
     20 C           1.6020    2.3141   20.4373 C.ar    1  UNL1        0.0700
     21 CL          1.3214    3.5416   19.6221 Cl      1  UNL1       -0.0813
     22 C           2.5802    1.2912   19.9404 C.ar    1  UNL1        0.0867
     23 CL          3.2778    1.4959   18.6283 Cl      1  UNL1       -0.0800
     24 S           3.8390   -0.9591   20.2586 S.O2    1  UNL1        0.0613
     25 O           2.7267   -1.6834   19.5599 O.2     1  UNL1       -0.1530
     26 O           4.9513   -0.2348   20.9573 O.2     1  UNL1       -0.1530
     27 N           4.8172   -1.9820   19.7617 N.3     1  UNL1       -0.1723
     28 H           4.7487   -1.9849   18.7440 H       1  UNL1        0.1491
     29 C           4.5914   -3.7324   21.6684 C.3     1  UNL1        0.0278
     30 C           4.7011   -3.4094   20.2076 C.3     1  UNL1        0.1701
     31 C           4.6948   -4.5140   19.1928 C.3     1  UNL1        0.4118
     32 F           4.6884   -5.6186   18.1779 F       1  UNL1       -0.1685
     33 F           3.7428   -5.2953   20.0491 F       1  UNL1       -0.1685
     34 F           5.6467   -3.7327   18.3364 F       1  UNL1       -0.1685
     35 C          -3.4172    5.1038   22.2374 C.2     1  UNL1        0.2699
     36 O          -3.7626    5.6816   20.8969 O.2     1  UNL1       -0.2679
     37 N          -4.4289    5.1210   23.3447 N.am    1  UNL1       -0.2969
     38 H          -4.2023    4.7418   24.2245 H       1  UNL1        0.1499
     39 C          -5.7859    5.7161   23.1115 C.3     1  UNL1        0.1166
     40 C          -7.0036    4.8404   23.1381 C.3     1  UNL1        0.1064
     41 C          -6.7558    4.5400   24.5867 C.3     1  UNL1        0.0311
     42 C          -7.2512    5.1408   21.6894 C.3     1  UNL1        0.0311
     43 O          -8.2211    3.9647   23.1647 O.3     1  UNL1       -0.3851
     44 H          -8.3326    3.5928   24.0536 H       1  UNL1        0.2103
@<TRIPOS>BOND
     1    30    29    1
     2    30    27    1
     3    27    24    1
     4    24    25    2
     5    24    26    2
     6    24    16    1
     7    16    17   ar
     8    17    18   ar
     9    18    19   ar
    10    19     1    1
    11     1     2   ar
    12     2     3   ar
    13     3    35    1
    14    35    36    2
    15    35    37   am
    16    37    39    1
    17    39    40    1
    18    40    41    1
    19    40    42    1
    20    40    43    1
    21     3     4   ar
    22     4     5   ar
    23     5     6    1
    24     6     7    2
    25     6     8   am
    26     8     9    1
    27     9    10    1
    28    10    11    1
    29    11    12    1
    30    11    13    1
    31    13    14    1
    32    14    15    1
    33    19    20   ar
    34    20    21    1
    35    20    22   ar
    36    22    23    1
    37    30    31    1
    38    31    32    1
    39    31    33    1
    40    31    34    1
    41    22    16   ar
    42     5     1   ar
    43    14     8    1
    44    27    28    1
    45    37    38    1
    46    43    44    1
@<TRIPOS>MOLECULE
*****
 44 46 0 0 0
SMALL
GASTEIGER

@<TRIPOS>ATOM
      1 C           3.9972    0.4913   32.4048 C.ar    1  UNL1        0.0539
      2 S           3.5369    0.6259   33.8261 S.2     1  UNL1       -0.0619
      3 C           4.7290    0.4462   34.7185 C.ar    1  UNL1        0.1641
      4 N           5.9262    0.2005   33.8488 N.ar    1  UNL1       -0.2291
      5 C           5.4739    0.2284   32.4189 C.ar    1  UNL1        0.1414
      6 C           6.3454    0.0285   31.2145 C.2     1  UNL1        0.2672
      7 O           6.8532    1.2156   30.4508 O.2     1  UNL1       -0.2682
      8 N           6.7091   -1.3583   30.7737 N.am    1  UNL1       -0.2763
      9 C           7.5806   -1.5582   29.5693 C.3     1  UNL1        0.0965
     10 C           7.9442   -2.9450   29.1285 C.3     1  UNL1        0.0568
     11 C           7.4364   -4.1321   29.8921 C.3     1  UNL1        0.1643
     12 F           7.8001   -5.5190   29.4513 F       1  UNL1       -0.2372
     13 C           6.5649   -3.9323   31.0965 C.3     1  UNL1        0.0551
     14 C           6.2013   -2.5454   31.5373 C.3     1  UNL1        0.0785
     15 C           5.3298   -2.3455   32.7417 C.3     1  UNL1        0.0216
     16 C           1.4036    0.8188   28.7421 C.ar    1  UNL1        0.1333
     17 C           1.9106   -0.5218   29.1847 C.ar    1  UNL1        0.0208
     18 C           2.7751   -0.6309   30.4056 C.ar    1  UNL1        0.0028
     19 C           3.1327    0.6005   31.1839 C.ar    1  UNL1        0.0191
     20 C           2.6257    1.9410   30.7413 C.ar    1  UNL1        0.0700
     21 CL          2.9832    3.1724   31.5197 Cl      1  UNL1       -0.0813
     22 C           1.7611    2.0501   29.5204 C.ar    1  UNL1        0.0867
     23 CL          1.2541    3.3907   29.0778 Cl      1  UNL1       -0.0800
     24 S           0.5391    0.9279   27.5211 S.O2    1  UNL1        0.0613
     25 O           1.7578    1.1646   26.6793 O.2     1  UNL1       -0.1530
     26 O          -0.6797    0.6912   28.3630 O.2     1  UNL1       -0.1530
     27 N          -0.3255    1.0370   26.3002 N.3     1  UNL1       -0.1723
     28 H           0.0612    0.3961   25.6074 H       1  UNL1        0.1491
     29 C          -0.2031    2.4931   24.1520 C.3     1  UNL1        0.0278
     30 C          -0.4952    2.3618   25.6174 C.3     1  UNL1        0.1701
     31 C          -0.9571    3.5552   26.4000 C.3     1  UNL1        0.4118
     32 F          -1.4189    4.7486   27.1826 F       1  UNL1       -0.1685
     33 F           0.3345    4.2546   26.0956 F       1  UNL1       -0.1685
     34 F          -2.2486    2.8557   26.7044 F       1  UNL1       -0.1685
     35 C           4.7247    0.5023   36.2175 C.2     1  UNL1        0.2699
     36 O           5.8361   -0.1380   36.9952 O.2     1  UNL1       -0.2679
     37 N           3.6090    1.1987   36.9387 N.am    1  UNL1       -0.2969
     38 H           2.8796    1.6189   36.4283 H       1  UNL1        0.1499
     39 C           3.6047    1.2547   38.4376 C.3     1  UNL1        0.1166
     40 C           2.4309    1.8436   39.1627 C.3     1  UNL1        0.1064
     41 C           3.1256    3.1722   39.2084 C.3     1  UNL1        0.0311
     42 C           1.7362    0.5148   39.1171 C.3     1  UNL1        0.0311
     43 O           1.2572    2.4323   39.8878 O.3     1  UNL1       -0.3851
     44 H           1.4277    3.3693   40.0719 H       1  UNL1        0.2103
@<TRIPOS>BOND
     1    30    29    1
     2    30    27    1
     3    27    24    1
     4    24    25    2
     5    24    26    2
     6    24    16    1
     7    16    17   ar
     8    17    18   ar
     9    18    19   ar
    10    19     1    1
    11     1     2   ar
    12     2     3   ar
    13     3    35    1
    14    35    36    2
    15    35    37   am
    16    37    39    1
    17    39    40    1
    18    40    41    1
    19    40    42    1
    20    40    43    1
    21     3     4   ar
    22     4     5   ar
    23     5     6    1
    24     6     7    2
    25     6     8   am
    26     8     9    1
    27     9    10    1
    28    10    11    1
    29    11    12    1
    30    11    13    1
    31    13    14    1
    32    14    15    1
    33    19    20   ar
    34    20    21    1
    35    20    22   ar
    36    22    23    1
    37    30    31    1
    38    31    32    1
    39    31    33    1
    40    31    34    1
    41    22    16   ar
    42     5     1   ar
    43    14     8    1
    44    27    28    1
    45    37    38    1
    46    43    44    1
@<TRIPOS>MOLECULE
*****
 44 46 0 0 0
SMALL
GASTEIGER

@<TRIPOS>ATOM
      1 C           5.0700   -1.5306   23.3966 C.ar    1  UNL1        0.0539
      2 S           5.4080   -2.7511   24.2004 S.2     1  UNL1       -0.0619
      3 C           6.6484   -3.3610   23.6178 C.ar    1  UNL1        0.1641
      4 N           7.0770   -2.5174   22.4539 N.ar    1  UNL1       -0.2291
      5 C           6.1015   -1.3862   22.3172 C.ar    1  UNL1        0.1414
      6 C           6.1491   -0.3010   21.2826 C.2     1  UNL1        0.2672
      7 O           6.8715    0.9811   21.5733 O.2     1  UNL1       -0.2682
      8 N           5.4745   -0.4979   19.9575 N.am    1  UNL1       -0.2763
      9 C           5.5222    0.5872   18.9230 C.3     1  UNL1        0.0965
     10 C           4.8475    0.3903   17.5979 C.3     1  UNL1        0.0568
     11 C           4.1252   -0.8918   17.3072 C.3     1  UNL1        0.1643
     12 F           3.4505   -1.0887   15.9820 F       1  UNL1       -0.2372
     13 C           4.0775   -1.9770   18.3417 C.3     1  UNL1        0.0551
     14 C           4.7521   -1.7800   19.6668 C.3     1  UNL1        0.0785
     15 C           4.7045   -2.8652   20.7013 C.3     1  UNL1        0.0216
     16 C           1.5751    1.2155   24.0999 C.ar    1  UNL1        0.1333
     17 C           1.6398    0.3890   22.8499 C.ar    1  UNL1        0.0208
     18 C           2.8047   -0.5264   22.6154 C.ar    1  UNL1        0.0028
     19 C           3.9050   -0.6152   23.6310 C.ar    1  UNL1        0.0191
     20 C           3.8403    0.2114   24.8810 C.ar    1  UNL1        0.0700
     21 CL          4.9406    0.1226   25.8967 Cl      1  UNL1       -0.0813
     22 C           2.6753    1.1267   25.1154 C.ar    1  UNL1        0.0867
     23 CL          2.6107    1.9533   26.3655 Cl      1  UNL1       -0.0800
     24 S           0.4101    2.1309   24.3343 S.O2    1  UNL1        0.0613
     25 O          -0.2746    1.0566   25.1263 O.2     1  UNL1       -0.1530
     26 O           1.0948    3.2051   23.5423 O.2     1  UNL1       -0.1530
     27 N          -0.7549    3.0462   24.5687 N.3     1  UNL1       -0.1723
     28 H          -0.6284    3.8479   23.9509 H       1  UNL1        0.1491
     29 C           0.1095    4.1913   26.7348 C.3     1  UNL1        0.0278
     30 C          -1.0143    3.5937   25.9409 C.3     1  UNL1        0.1701
     31 C          -2.3974    3.5436   26.5193 C.3     1  UNL1        0.4118
     32 F          -3.7805    3.4936   27.0977 F       1  UNL1       -0.1685
     33 F          -2.7899    4.7253   25.6829 F       1  UNL1       -0.1685
     34 F          -2.0048    2.3620   27.3557 F       1  UNL1       -0.1685
     35 C           7.3389   -4.5973   24.1123 C.2     1  UNL1        0.2699
     36 O           7.6814   -5.6993   23.1539 O.2     1  UNL1       -0.2679
     37 N           7.6870   -4.7317   25.5651 N.am    1  UNL1       -0.2969
     38 H           7.4622   -4.0085   26.1941 H       1  UNL1        0.1499
     39 C           8.3775   -5.9681   26.0596 C.3     1  UNL1        0.1166
     40 C           7.5843   -7.2116   26.3332 C.3     1  UNL1        0.1064
     41 C           8.6243   -8.0303   25.6273 C.3     1  UNL1        0.0311
     42 C           6.5443   -6.3928   27.0390 C.3     1  UNL1        0.0311
     43 O           6.7911   -8.4550   26.6067 O.3     1  UNL1       -0.3851
     44 H           7.2542   -9.2222   26.2354 H       1  UNL1        0.2103
@<TRIPOS>BOND
     1    30    29    1
     2    30    27    1
     3    27    24    1
     4    24    25    2
     5    24    26    2
     6    24    16    1
     7    16    17   ar
     8    17    18   ar
     9    18    19   ar
    10    19     1    1
    11     1     2   ar
    12     2     3   ar
    13     3    35    1
    14    35    36    2
    15    35    37   am
    16    37    39    1
    17    39    40    1
    18    40    41    1
    19    40    42    1
    20    40    43    1
    21     3     4   ar
    22     4     5   ar
    23     5     6    1
    24     6     7    2
    25     6     8   am
    26     8     9    1
    27     9    10    1
    28    10    11    1
    29    11    12    1
    30    11    13    1
    31    13    14    1
    32    14    15    1
    33    19    20   ar
    34    20    21    1
    35    20    22   ar
    36    22    23    1
    37    30    31    1
    38    31    32    1
    39    31    33    1
    40    31    34    1
    41    22    16   ar
    42     5     1   ar
    43    14     8    1
    44    27    28    1
    45    37    38    1
    46    43    44    1
