@<TRIPOS>MOLECULE
*****
 22 24 0 0 0
SMALL
GASTEIGER

@<TRIPOS>ATOM
      1 C          -8.7237  -17.2733   23.8687 C.2     1  UNL1       -0.0240
      2 C          -9.7913  -18.0285   24.6035 C.2     1  UNL1       -0.0420
      3 C          -9.6467  -17.7301   26.0664 C.3     1  UNL1        0.0480
      4 C          -8.4898  -16.7905   26.2357 C.ar    1  UNL1       -0.0184
      5 C          -7.8821  -16.1555   27.4512 C.ar    1  UNL1       -0.0040
      6 C          -6.7039  -15.2382   27.3084 C.ar    1  UNL1       -0.0003
      7 C          -6.1334  -14.9559   25.9501 C.ar    1  UNL1       -0.0000
      8 C          -6.7412  -15.5908   24.7346 C.ar    1  UNL1       -0.0006
      9 C          -7.9193  -16.5081   24.8774 C.ar    1  UNL1       -0.0078
     10 C          -8.4998  -17.2817   22.3855 C.3     1  UNL1        0.0730
     11 C          -4.2177  -20.7538   20.0175 C.3     1  UNL1        0.0538
     12 C          -5.2882  -19.8858   20.6095 C.ar    1  UNL1        0.0785
     13 C          -4.9522  -18.9296   21.7153 C.ar    1  UNL1        0.1131
     14 N          -6.0228  -18.0616   22.3073 N.ar    1  UNL1       -0.2450
     15 C          -7.4293  -18.1497   21.7935 C.ar    1  UNL1        0.0824
     16 C          -7.7653  -19.1059   20.6877 C.ar    1  UNL1        0.1134
     17 N          -6.6947  -19.9739   20.0957 N.ar    1  UNL1       -0.2453
     18 C         -10.8224  -18.9247   23.9841 C.3     1  UNL1        0.0394
     19 C         -12.1071  -18.3463   23.4694 C.3     1  UNL1        0.0765
     20 N         -12.0956  -17.4385   22.2753 N.3     1  UNL1       -0.2700
     21 C         -12.2943  -15.9624   22.4534 C.3     1  UNL1        0.0897
     22 C         -11.8854  -18.0068   20.9032 C.3     1  UNL1        0.0897
@<TRIPOS>BOND
     1    11    12    1
     2    12    13   ar
     3    13    14   ar
     4    14    15   ar
     5    15    10    1
     6    10     1    1
     7     1     2    2
     8     2    18    1
     9    18    19    1
    10    19    20    1
    11    20    21    1
    12    20    22    1
    13     2     3    1
    14     3     4    1
    15     4     5   ar
    16     5     6   ar
    17     6     7   ar
    18     7     8   ar
    19     8     9   ar
    20    15    16   ar
    21    16    17   ar
    22    17    12   ar
    23     9     1    1
    24     9     4   ar
@<TRIPOS>MOLECULE
*****
 22 24 0 0 0
SMALL
GASTEIGER

@<TRIPOS>ATOM
      1 C          -6.5436  -18.5202   21.9275 C.2     1  UNL1       -0.0240
      2 C          -7.9582  -18.3995   21.4434 C.2     1  UNL1       -0.0420
      3 C          -8.5812  -17.2162   22.1229 C.3     1  UNL1        0.0480
      4 C          -7.5516  -16.6056   23.0269 C.ar    1  UNL1       -0.0184
      5 C          -7.5982  -15.4199   23.9445 C.ar    1  UNL1       -0.0040
      6 C          -6.3854  -15.0402   24.7412 C.ar    1  UNL1       -0.0003
      7 C          -5.1261  -15.8461   24.6204 C.ar    1  UNL1       -0.0000
      8 C          -5.0795  -17.0318   23.7029 C.ar    1  UNL1       -0.0006
      9 C          -6.2923  -17.4116   22.9061 C.ar    1  UNL1       -0.0078
     10 C          -5.5540  -19.5660   21.5068 C.3     1  UNL1        0.0730
     11 C          -0.0503  -17.9523   19.7447 C.3     1  UNL1        0.0538
     12 C          -1.4262  -18.3558   20.1853 C.ar    1  UNL1        0.0785
     13 C          -2.6222  -17.9481   19.3768 C.ar    1  UNL1        0.1131
     14 N          -3.9981  -18.3515   19.8174 N.ar    1  UNL1       -0.2450
     15 C          -4.1781  -19.1626   21.0663 C.ar    1  UNL1        0.0824
     16 C          -2.9821  -19.5703   21.8747 C.ar    1  UNL1        0.1134
     17 N          -1.6062  -19.1668   21.4341 N.ar    1  UNL1       -0.2453
     18 C          -8.6316  -19.3033   20.4536 C.3     1  UNL1        0.0394
     19 C         -10.0813  -19.1060   20.1231 C.3     1  UNL1        0.0765
     20 N         -11.1066  -19.1035   21.2180 N.3     1  UNL1       -0.2700
     21 C         -12.1985  -18.0749   21.2207 C.3     1  UNL1        0.0897
     22 C         -11.0401  -20.1296   22.3101 C.3     1  UNL1        0.0897
@<TRIPOS>BOND
     1    11    12    1
     2    12    13   ar
     3    13    14   ar
     4    14    15   ar
     5    15    10    1
     6    10     1    1
     7     1     2    2
     8     2    18    1
     9    18    19    1
    10    19    20    1
    11    20    21    1
    12    20    22    1
    13     2     3    1
    14     3     4    1
    15     4     5   ar
    16     5     6   ar
    17     6     7   ar
    18     7     8   ar
    19     8     9   ar
    20    15    16   ar
    21    16    17   ar
    22    17    12   ar
    23     9     1    1
    24     9     4   ar
@<TRIPOS>MOLECULE
*****
 22 24 0 0 0
SMALL
GASTEIGER

@<TRIPOS>ATOM
      1 C          -7.3947  -18.3400   22.0356 C.2     1  UNL1       -0.0240
      2 C          -7.3730  -17.0288   22.7637 C.2     1  UNL1       -0.0420
      3 C          -8.6342  -16.2903   22.4261 C.3     1  UNL1        0.0480
      4 C          -9.4354  -17.1451   21.4894 C.ar    1  UNL1       -0.0184
      5 C         -10.7635  -16.9336   20.8251 C.ar    1  UNL1       -0.0040
      6 C         -11.3255  -17.9889   19.9194 C.ar    1  UNL1       -0.0003
      7 C         -10.5595  -19.2558   19.6780 C.ar    1  UNL1       -0.0000
      8 C          -9.2314  -19.4673   20.3424 C.ar    1  UNL1       -0.0006
      9 C          -8.6693  -18.4119   21.2481 C.ar    1  UNL1       -0.0078
     10 C          -6.3290  -19.3944   22.0862 C.3     1  UNL1        0.0730
     11 C          -0.8948  -18.2793   19.8001 C.3     1  UNL1        0.0538
     12 C          -2.2533  -18.5581   20.3717 C.ar    1  UNL1        0.0785
     13 C          -3.4581  -18.5542   19.4781 C.ar    1  UNL1        0.1131
     14 N          -4.8166  -18.8330   20.0496 N.ar    1  UNL1       -0.2450
     15 C          -4.9705  -19.1156   21.5147 C.ar    1  UNL1        0.0824
     16 C          -3.7657  -19.1195   22.4083 C.ar    1  UNL1        0.1134
     17 N          -2.4071  -18.8407   21.8367 N.ar    1  UNL1       -0.2453
     18 C          -6.2817  -16.5416   23.6702 C.3     1  UNL1        0.0394
     19 C          -6.4966  -15.3197   24.5133 C.3     1  UNL1        0.0765
     20 N          -7.1656  -15.4393   25.8505 N.3     1  UNL1       -0.2700
     21 C          -8.6616  -15.5074   25.9372 C.3     1  UNL1        0.0897
     22 C          -6.3387  -15.4909   27.1009 C.3     1  UNL1        0.0897
@<TRIPOS>BOND
     1    11    12    1
     2    12    13   ar
     3    13    14   ar
     4    14    15   ar
     5    15    10    1
     6    10     1    1
     7     1     2    2
     8     2    18    1
     9    18    19    1
    10    19    20    1
    11    20    21    1
    12    20    22    1
    13     2     3    1
    14     3     4    1
    15     4     5   ar
    16     5     6   ar
    17     6     7   ar
    18     7     8   ar
    19     8     9   ar
    20    15    16   ar
    21    16    17   ar
    22    17    12   ar
    23     9     1    1
    24     9     4   ar
@<TRIPOS>MOLECULE
*****
 22 24 0 0 0
SMALL
GASTEIGER

@<TRIPOS>ATOM
      1 C          -8.2032  -18.8094   22.7721 C.2     1  UNL1       -0.0240
      2 C          -9.6902  -18.8659   22.9612 C.2     1  UNL1       -0.0420
      3 C         -10.1219  -17.5913   23.6238 C.3     1  UNL1        0.0480
      4 C          -8.9019  -16.7470   23.8442 C.ar    1  UNL1       -0.0184
      5 C          -8.7175  -15.3900   24.4561 C.ar    1  UNL1       -0.0040
      6 C          -7.3472  -14.7858   24.5417 C.ar    1  UNL1       -0.0003
      7 C          -6.1614  -15.5386   24.0153 C.ar    1  UNL1       -0.0000
      8 C          -6.3458  -16.8956   23.4033 C.ar    1  UNL1       -0.0006
      9 C          -7.7160  -17.4998   23.3178 C.ar    1  UNL1       -0.0078
     10 C          -7.3528  -19.8752   22.1470 C.3     1  UNL1        0.0730
     11 C          -2.0467  -18.4498   19.7360 C.3     1  UNL1        0.0538
     12 C          -3.3732  -18.8061   20.3387 C.ar    1  UNL1        0.0785
     13 C          -3.4442  -19.3152   21.7480 C.ar    1  UNL1        0.1131
     14 N          -4.7707  -19.6715   22.3507 N.ar    1  UNL1       -0.2450
     15 C          -6.0263  -19.5188   21.5443 C.ar    1  UNL1        0.0824
     16 C          -5.9553  -19.0098   20.1351 C.ar    1  UNL1        0.1134
     17 N          -4.6287  -18.6535   19.5323 N.ar    1  UNL1       -0.2453
     18 C         -10.5878  -19.9983   22.5585 C.3     1  UNL1        0.0394
     19 C         -11.1730  -20.0369   21.1780 C.3     1  UNL1        0.0765
     20 N         -10.6252  -19.1422   20.1059 N.3     1  UNL1       -0.2700
     21 C          -9.5137  -19.6247   19.2217 C.3     1  UNL1        0.0897
     22 C         -11.1889  -17.7649   19.9179 C.3     1  UNL1        0.0897
@<TRIPOS>BOND
     1    11    12    1
     2    12    13   ar
     3    13    14   ar
     4    14    15   ar
     5    15    10    1
     6    10     1    1
     7     1     2    2
     8     2    18    1
     9    18    19    1
    10    19    20    1
    11    20    21    1
    12    20    22    1
    13     2     3    1
    14     3     4    1
    15     4     5   ar
    16     5     6   ar
    17     6     7   ar
    18     7     8   ar
    19     8     9   ar
    20    15    16   ar
    21    16    17   ar
    22    17    12   ar
    23     9     1    1
    24     9     4   ar
@<TRIPOS>MOLECULE
*****
 22 24 0 0 0
SMALL
GASTEIGER

@<TRIPOS>ATOM
      1 C          -8.7542  -17.5877   21.7612 C.2     1  UNL1       -0.0240
      2 C          -8.5660  -18.9570   21.1785 C.2     1  UNL1       -0.0420
      3 C          -9.9219  -19.5688   20.9854 C.3     1  UNL1        0.0480
      4 C         -10.9480  -18.5776   21.4488 C.ar    1  UNL1       -0.0184
      5 C         -12.4462  -18.6319   21.4961 C.ar    1  UNL1       -0.0040
      6 C         -13.2228  -17.4617   22.0229 C.ar    1  UNL1       -0.0003
      7 C         -12.5011  -16.2372   22.5024 C.ar    1  UNL1       -0.0000
      8 C         -11.0028  -16.1830   22.4551 C.ar    1  UNL1       -0.0006
      9 C         -10.2263  -17.3532   21.9283 C.ar    1  UNL1       -0.0078
     10 C          -7.6619  -16.6223   22.1149 C.3     1  UNL1        0.0730
     11 C          -6.8421  -14.9807   27.8274 C.3     1  UNL1        0.0538
     12 C          -7.0471  -15.3911   26.3992 C.ar    1  UNL1        0.0785
     13 C          -8.2415  -16.2154   26.0198 C.ar    1  UNL1        0.1131
     14 N          -8.4464  -16.6257   24.5917 N.ar    1  UNL1       -0.2450
     15 C          -7.4570  -16.2119   23.5429 C.ar    1  UNL1        0.0824
     16 C          -6.2626  -15.3876   23.9224 C.ar    1  UNL1        0.1134
     17 N          -6.0577  -14.9772   25.3506 N.ar    1  UNL1       -0.2453
     18 C          -7.2526  -19.6013   20.8470 C.3     1  UNL1        0.0394
     19 C          -6.2698  -19.9055   21.9386 C.3     1  UNL1        0.0765
     20 N          -4.8476  -19.4446   21.8171 N.3     1  UNL1       -0.2700
     21 C          -4.2911  -18.4611   22.8037 C.3     1  UNL1        0.0897
     22 C          -3.9818  -19.9670   20.7092 C.3     1  UNL1        0.0897
@<TRIPOS>BOND
     1    11    12    1
     2    12    13   ar
     3    13    14   ar
     4    14    15   ar
     5    15    10    1
     6    10     1    1
     7     1     2    2
     8     2    18    1
     9    18    19    1
    10    19    20    1
    11    20    21    1
    12    20    22    1
    13     2     3    1
    14     3     4    1
    15     4     5   ar
    16     5     6   ar
    17     6     7   ar
    18     7     8   ar
    19     8     9   ar
    20    15    16   ar
    21    16    17   ar
    22    17    12   ar
    23     9     1    1
    24     9     4   ar
@<TRIPOS>MOLECULE
*****
 22 24 0 0 0
SMALL
GASTEIGER

@<TRIPOS>ATOM
      1 C          -8.9752  -18.1481   22.8114 C.2     1  UNL1       -0.0240
      2 C          -9.2099  -17.1685   23.9229 C.2     1  UNL1       -0.0420
      3 C         -10.3264  -16.2565   23.5089 C.3     1  UNL1        0.0480
      4 C         -10.7819  -16.6724   22.1415 C.ar    1  UNL1       -0.0184
      5 C         -11.8491  -16.1376   21.2333 C.ar    1  UNL1       -0.0040
      6 C         -12.0812  -16.7719   19.8940 C.ar    1  UNL1       -0.0003
      7 C         -11.2461  -17.9410   19.4630 C.ar    1  UNL1       -0.0000
      8 C         -10.1789  -18.4758   20.3712 C.ar    1  UNL1       -0.0006
      9 C          -9.9468  -17.8415   21.7105 C.ar    1  UNL1       -0.0078
     10 C          -7.9492  -19.2422   22.8025 C.3     1  UNL1        0.0730
     11 C          -2.9338  -18.6257   19.5675 C.3     1  UNL1        0.0538
     12 C          -4.1876  -18.7799   20.3762 C.ar    1  UNL1        0.0785
     13 C          -4.1179  -18.7840   21.8746 C.ar    1  UNL1        0.1131
     14 N          -5.3717  -18.9381   22.6833 N.ar    1  UNL1       -0.2450
     15 C          -6.6954  -19.0881   21.9937 C.ar    1  UNL1        0.0824
     16 C          -6.7651  -19.0840   20.4954 C.ar    1  UNL1        0.1134
     17 N          -5.5112  -18.9299   19.6866 N.ar    1  UNL1       -0.2453
     18 C          -8.4597  -17.1111   25.2206 C.3     1  UNL1        0.0394
     19 C          -7.8509  -15.8189   25.6783 C.3     1  UNL1        0.0765
     20 N          -6.4813  -15.4270   25.2084 N.3     1  UNL1       -0.2700
     21 C          -6.1782  -15.3765   23.7402 C.3     1  UNL1        0.0897
     22 C          -5.4150  -15.0857   26.2066 C.3     1  UNL1        0.0897
@<TRIPOS>BOND
     1    11    12    1
     2    12    13   ar
     3    13    14   ar
     4    14    15   ar
     5    15    10    1
     6    10     1    1
     7     1     2    2
     8     2    18    1
     9    18    19    1
    10    19    20    1
    11    20    21    1
    12    20    22    1
    13     2     3    1
    14     3     4    1
    15     4     5   ar
    16     5     6   ar
    17     6     7   ar
    18     7     8   ar
    19     8     9   ar
    20    15    16   ar
    21    16    17   ar
    22    17    12   ar
    23     9     1    1
    24     9     4   ar
@<TRIPOS>MOLECULE
*****
 22 24 0 0 0
SMALL
GASTEIGER

@<TRIPOS>ATOM
      1 C          -9.2806  -17.1583   23.1821 C.2     1  UNL1       -0.0240
      2 C          -9.9423  -17.8898   24.3121 C.2     1  UNL1       -0.0420
      3 C         -11.3953  -18.0471   23.9747 C.3     1  UNL1        0.0480
      4 C         -11.6317  -17.4128   22.6361 C.ar    1  UNL1       -0.0184
      5 C         -12.8682  -17.2645   21.8001 C.ar    1  UNL1       -0.0040
      6 C         -12.7977  -16.5668   20.4741 C.ar    1  UNL1       -0.0003
      7 C         -11.4907  -16.0175   19.9842 C.ar    1  UNL1       -0.0000
      8 C         -10.2542  -16.1658   20.8203 C.ar    1  UNL1       -0.0006
      9 C         -10.3247  -16.8635   22.1462 C.ar    1  UNL1       -0.0078
     10 C          -7.8296  -16.7868   23.1018 C.3     1  UNL1        0.0730
     11 C          -4.0340  -20.1826   19.9298 C.3     1  UNL1        0.0538
     12 C          -4.9829  -19.3336   20.7228 C.ar    1  UNL1        0.0785
     13 C          -6.3679  -19.0754   20.2078 C.ar    1  UNL1        0.1131
     14 N          -7.3167  -18.2264   21.0008 N.ar    1  UNL1       -0.2450
     15 C          -6.8807  -17.6357   22.3089 C.ar    1  UNL1        0.0824
     16 C          -5.4957  -17.8939   22.8238 C.ar    1  UNL1        0.1134
     17 N          -4.5469  -18.7429   22.0308 N.ar    1  UNL1       -0.2453
     18 C          -9.2690  -18.3783   25.5604 C.3     1  UNL1        0.0394
     19 C          -9.1611  -17.4784   26.7556 C.3     1  UNL1        0.0765
     20 N          -8.2685  -16.2738   26.7092 N.3     1  UNL1       -0.2700
     21 C          -8.7055  -15.0446   25.9688 C.3     1  UNL1        0.0897
     22 C          -6.9389  -16.2983   27.4032 C.3     1  UNL1        0.0897
@<TRIPOS>BOND
     1    11    12    1
     2    12    13   ar
     3    13    14   ar
     4    14    15   ar
     5    15    10    1
     6    10     1    1
     7     1     2    2
     8     2    18    1
     9    18    19    1
    10    19    20    1
    11    20    21    1
    12    20    22    1
    13     2     3    1
    14     3     4    1
    15     4     5   ar
    16     5     6   ar
    17     6     7   ar
    18     7     8   ar
    19     8     9   ar
    20    15    16   ar
    21    16    17   ar
    22    17    12   ar
    23     9     1    1
    24     9     4   ar
@<TRIPOS>MOLECULE
*****
 22 24 0 0 0
SMALL
GASTEIGER

@<TRIPOS>ATOM
      1 C         -14.1347   -6.5310   19.1921 C.2     1  UNL1       -0.0240
      2 C         -14.5465   -5.2217   19.7971 C.2     1  UNL1       -0.0420
      3 C         -16.0443   -5.1474   19.7660 C.3     1  UNL1        0.0480
      4 C         -16.5582   -6.4109   19.1417 C.ar    1  UNL1       -0.0184
      5 C         -17.9484   -6.8931   18.8505 C.ar    1  UNL1       -0.0040
      6 C         -18.1583   -8.2305   18.2045 C.ar    1  UNL1       -0.0003
      7 C         -16.9780   -9.0856   17.8498 C.ar    1  UNL1       -0.0000
      8 C         -15.5879   -8.6034   18.1411 C.ar    1  UNL1       -0.0006
      9 C         -15.3780   -7.2660   18.7870 C.ar    1  UNL1       -0.0078
     10 C         -12.7267   -7.0197   19.0220 C.3     1  UNL1        0.0730
     11 C          -8.7489   -3.7106   15.9845 C.3     1  UNL1        0.0538
     12 C          -9.7433   -4.5379   16.7439 C.ar    1  UNL1        0.0785
     13 C         -10.9773   -5.0444   16.0576 C.ar    1  UNL1        0.1131
     14 N         -11.9717   -5.8717   16.8170 N.ar    1  UNL1       -0.2450
     15 C         -11.7323   -6.1924   18.2627 C.ar    1  UNL1        0.0824
     16 C         -10.4984   -5.6859   18.9489 C.ar    1  UNL1        0.1134
     17 N          -9.5040   -4.8586   18.1895 N.ar    1  UNL1       -0.2453
     18 C         -13.6227   -4.1711   20.3382 C.3     1  UNL1        0.0394
     19 C         -13.9927   -2.7212   20.2341 C.3     1  UNL1        0.0765
     20 N         -13.3812   -1.8661   19.1642 N.3     1  UNL1       -0.2700
     21 C         -14.1691   -0.7405   18.5621 C.3     1  UNL1        0.0897
     22 C         -11.9819   -2.1364   18.6964 C.3     1  UNL1        0.0897
@<TRIPOS>BOND
     1    11    12    1
     2    12    13   ar
     3    13    14   ar
     4    14    15   ar
     5    15    10    1
     6    10     1    1
     7     1     2    2
     8     2    18    1
     9    18    19    1
    10    19    20    1
    11    20    21    1
    12    20    22    1
    13     2     3    1
    14     3     4    1
    15     4     5   ar
    16     5     6   ar
    17     6     7   ar
    18     7     8   ar
    19     8     9   ar
    20    15    16   ar
    21    16    17   ar
    22    17    12   ar
    23     9     1    1
    24     9     4   ar
@<TRIPOS>MOLECULE
*****
 22 24 0 0 0
SMALL
GASTEIGER

@<TRIPOS>ATOM
      1 C          -8.5416  -17.4267   23.3465 C.2     1  UNL1       -0.0240
      2 C          -9.2220  -17.5747   24.6751 C.2     1  UNL1       -0.0420
      3 C         -10.4680  -18.3843   24.4701 C.3     1  UNL1        0.0480
      4 C         -10.5577  -18.7366   23.0148 C.ar    1  UNL1       -0.0184
      5 C         -11.5697  -19.5199   22.2323 C.ar    1  UNL1       -0.0040
      6 C         -11.3912  -19.7113   20.7554 C.ar    1  UNL1       -0.0003
      7 C         -10.2006  -19.1194   20.0609 C.ar    1  UNL1       -0.0000
      8 C          -9.1886  -18.3362   20.8434 C.ar    1  UNL1       -0.0006
      9 C          -9.3672  -18.1448   22.3204 C.ar    1  UNL1       -0.0078
     10 C          -7.2606  -16.6900   23.0891 C.3     1  UNL1        0.0730
     11 C          -2.2723  -19.7315   21.7233 C.3     1  UNL1        0.0538
     12 C          -3.5194  -18.9711   22.0648 C.ar    1  UNL1        0.0785
     13 C          -3.4225  -17.6415   22.7523 C.ar    1  UNL1        0.1131
     14 N          -4.6696  -16.8811   23.0937 N.ar    1  UNL1       -0.2450
     15 C          -6.0136  -17.4503   22.7476 C.ar    1  UNL1        0.0824
     16 C          -6.1105  -18.7800   22.0601 C.ar    1  UNL1        0.1134
     17 N          -4.8634  -19.5403   21.7187 N.ar    1  UNL1       -0.2453
     18 C          -8.7408  -17.0120   25.9796 C.3     1  UNL1        0.0394
     19 C          -8.3101  -15.5777   26.0644 C.3     1  UNL1        0.0765
     20 N          -7.0389  -15.2170   26.7742 N.3     1  UNL1       -0.2700
     21 C          -5.7141  -15.5747   26.1682 C.3     1  UNL1        0.0897
     22 C          -7.0923  -14.4986   28.0899 C.3     1  UNL1        0.0897
@<TRIPOS>BOND
     1    11    12    1
     2    12    13   ar
     3    13    14   ar
     4    14    15   ar
     5    15    10    1
     6    10     1    1
     7     1     2    2
     8     2    18    1
     9    18    19    1
    10    19    20    1
    11    20    21    1
    12    20    22    1
    13     2     3    1
    14     3     4    1
    15     4     5   ar
    16     5     6   ar
    17     6     7   ar
    18     7     8   ar
    19     8     9   ar
    20    15    16   ar
    21    16    17   ar
    22    17    12   ar
    23     9     1    1
    24     9     4   ar
