@<TRIPOS>MOLECULE
*****
 28 30 0 0 0
SMALL
GASTEIGER

@<TRIPOS>ATOM
      1 C         -10.2513  -18.5908   21.9701 C.ar    1  UNL1        0.0231
      2 C         -10.9777  -17.5937   22.8233 C.ar    1  UNL1        0.0597
      3 C         -12.4427  -17.3509   22.6109 C.3     1  UNL1        0.0519
      4 N         -10.2393  -16.8393   23.8890 N.ar    1  UNL1       -0.2307
      5 C          -8.7744  -17.0820   24.1015 C.ar    1  UNL1        0.1693
      6 N          -8.0480  -18.0791   23.2482 N.ar    1  UNL1       -0.2116
      7 C          -8.7864  -18.8335   22.1825 C.ar    1  UNL1        0.1309
      8 C          -8.0360  -16.3277   25.1671 C.ar    1  UNL1        0.0674
      9 C          -8.4664  -16.1710   26.5955 C.ar    1  UNL1        0.0125
     10 C          -7.4339  -15.3440   27.3027 C.ar    1  UNL1        0.0370
     11 C          -6.3654  -14.9896   26.3114 C.ar    1  UNL1        0.1699
     12 F          -5.1399  -14.1710   26.5909 F       1  UNL1       -0.1971
     13 S          -6.7375  -15.5976   24.9916 S.2     1  UNL1       -0.0547
     14 C         -10.8783  -18.9196   19.4704 C.3     1  UNL1        0.0052
     15 C         -10.9897  -19.3451   20.9044 C.3     1  UNL1        0.0304
     16 N          -8.0599  -19.8306   21.3293 N.pl3   1  UNL1       -0.2964
     17 H          -8.5651  -20.5141   20.8325 H       1  UNL1        0.1537
     18 C          -6.5636  -19.7863   21.2330 C.ar    1  UNL1        0.0772
     19 C          -5.7849  -18.8315   22.0886 C.ar    1  UNL1        0.0166
     20 C          -4.2887  -18.7872   21.9923 C.ar    1  UNL1       -0.0025
     21 C          -3.5711  -19.6976   21.0404 C.ar    1  UNL1       -0.0143
     22 C          -4.3497  -20.6524   20.1848 C.ar    1  UNL1        0.0270
     23 C          -5.8460  -20.6968   20.2811 C.ar    1  UNL1        0.1531
     24 F          -6.6247  -21.6515   19.4255 F       1  UNL1       -0.2029
     25 C          -2.0749  -19.6533   20.9442 C.3     1  UNL1        0.0680
     26 C          -1.4099  -18.6396   20.0608 C.2     1  UNL1        0.0547
     27 O           0.0556  -18.7524   19.7612 O.co2   1  UNL1       -0.5488
     28 O          -2.2102  -17.5132   19.4773 O.co2   1  UNL1       -0.5488
@<TRIPOS>UNITY_ATOM_ATTR
27 1
charge -1
@<TRIPOS>BOND
     1    14    15    1
     2    15     1    1
     3     1     2   ar
     4     2     3    1
     5     2     4   ar
     6     4     5   ar
     7     5     8    1
     8     8     9   ar
     9     9    10   ar
    10    10    11   ar
    11    11    12    1
    12    11    13   ar
    13     5     6   ar
    14     6     7   ar
    15     7    16    1
    16    16    18    1
    17    18    19   ar
    18    19    20   ar
    19    20    21   ar
    20    21    25    1
    21    25    26    1
    22    26    27   ar
    23    26    28   ar
    24    21    22   ar
    25    22    23   ar
    26    23    24    1
    27     7     1   ar
    28    23    18   ar
    29    13     8   ar
    30    16    17    1
@<TRIPOS>MOLECULE
*****
 28 30 0 0 0
SMALL
GASTEIGER

@<TRIPOS>ATOM
      1 C          -9.0367  -19.2847   19.8148 C.ar    1  UNL1        0.0231
      2 C          -8.1596  -20.3023   19.1476 C.ar    1  UNL1        0.0597
      3 C          -8.7627  -21.3314   18.2381 C.3     1  UNL1        0.0519
      4 N          -6.6793  -20.2908   19.3899 N.ar    1  UNL1       -0.2307
      5 C          -6.0762  -19.2617   20.2994 C.ar    1  UNL1        0.1693
      6 N          -6.9533  -18.2441   20.9666 N.ar    1  UNL1       -0.2116
      7 C          -8.4336  -18.2557   20.7243 C.ar    1  UNL1        0.1309
      8 C          -4.5959  -19.2502   20.5417 C.ar    1  UNL1        0.0674
      9 C          -3.9078  -19.6447   21.8149 C.ar    1  UNL1        0.0125
     10 C          -2.4305  -19.4805   21.6134 C.ar    1  UNL1        0.0370
     11 C          -2.2056  -18.9845   20.2158 C.ar    1  UNL1        0.1699
     12 F          -0.8758  -18.6836   19.5903 F       1  UNL1       -0.1971
     13 S          -3.5439  -18.8422   19.5535 S.2     1  UNL1       -0.0547
     14 C         -11.4589  -19.6044   20.6984 C.3     1  UNL1        0.0052
     15 C         -10.5170  -19.2962   19.5725 C.3     1  UNL1        0.0304
     16 N          -9.3107  -17.2380   21.3915 N.pl3   1  UNL1       -0.2964
     17 H         -10.0699  -16.8461   20.9024 H       1  UNL1        0.1537
     18 C          -9.0311  -16.8176   22.8039 C.ar    1  UNL1        0.0772
     19 C          -9.5307  -17.6502   23.9473 C.ar    1  UNL1        0.0166
     20 C          -9.2511  -17.2297   25.3597 C.ar    1  UNL1       -0.0025
     21 C          -8.4719  -15.9766   25.6289 C.ar    1  UNL1       -0.0143
     22 C          -7.9722  -15.1440   24.4856 C.ar    1  UNL1        0.0270
     23 C          -8.2518  -15.5644   23.0731 C.ar    1  UNL1        0.1531
     24 F          -7.7522  -14.7318   21.9299 F       1  UNL1       -0.2029
     25 C          -8.1922  -15.5561   27.0413 C.3     1  UNL1        0.0680
     26 C          -6.8216  -15.0830   27.4256 C.2     1  UNL1        0.0547
     27 O          -6.6641  -13.9061   28.3421 O.co2   1  UNL1       -0.5488
     28 O          -5.6086  -15.7868   26.8934 O.co2   1  UNL1       -0.5488
@<TRIPOS>UNITY_ATOM_ATTR
27 1
charge -1
@<TRIPOS>BOND
     1    14    15    1
     2    15     1    1
     3     1     2   ar
     4     2     3    1
     5     2     4   ar
     6     4     5   ar
     7     5     8    1
     8     8     9   ar
     9     9    10   ar
    10    10    11   ar
    11    11    12    1
    12    11    13   ar
    13     5     6   ar
    14     6     7   ar
    15     7    16    1
    16    16    18    1
    17    18    19   ar
    18    19    20   ar
    19    20    21   ar
    20    21    25    1
    21    25    26    1
    22    26    27   ar
    23    26    28   ar
    24    21    22   ar
    25    22    23   ar
    26    23    24    1
    27     7     1   ar
    28    23    18   ar
    29    13     8   ar
    30    16    17    1
@<TRIPOS>MOLECULE
*****
 28 30 0 0 0
SMALL
GASTEIGER

@<TRIPOS>ATOM
      1 C          -9.4745  -19.3721   20.4039 C.ar    1  UNL1        0.0231
      2 C          -8.4762  -19.8680   19.4002 C.ar    1  UNL1        0.0597
      3 C          -8.9428  -20.3957   18.0759 C.3     1  UNL1        0.0519
      4 N          -7.0112  -19.8363   19.7209 N.ar    1  UNL1       -0.2307
      5 C          -6.5446  -19.3087   21.0452 C.ar    1  UNL1        0.1693
      6 N          -7.5429  -18.8128   22.0488 N.ar    1  UNL1       -0.2116
      7 C          -9.0079  -18.8445   21.7282 C.ar    1  UNL1        0.1309
      8 C          -5.0796  -19.2769   21.3659 C.ar    1  UNL1        0.0674
      9 C          -4.0069  -20.0582   20.6667 C.ar    1  UNL1        0.0125
     10 C          -2.6944  -19.7225   21.3107 C.ar    1  UNL1        0.0370
     11 C          -2.9560  -18.7337   22.4079 C.ar    1  UNL1        0.1699
     12 F          -1.9246  -18.1268   23.3123 F       1  UNL1       -0.1971
     13 S          -4.4301  -18.4583   22.4420 S.2     1  UNL1       -0.0547
     14 C         -11.7201  -18.1248   20.0145 C.3     1  UNL1        0.0052
     15 C         -10.9395  -19.4039   20.0832 C.3     1  UNL1        0.0304
     16 N         -10.0063  -18.3485   22.7319 N.pl3   1  UNL1       -0.2964
     17 H         -10.9670  -18.5131   22.5932 H       1  UNL1        0.1537
     18 C          -9.5409  -17.6019   23.9467 C.ar    1  UNL1        0.0772
     19 C          -9.0543  -16.1888   23.8179 C.ar    1  UNL1        0.0166
     20 C          -8.5890  -15.4422   25.0328 C.ar    1  UNL1       -0.0025
     21 C          -8.6101  -16.1086   26.3765 C.ar    1  UNL1       -0.0143
     22 C          -9.0966  -17.5216   26.5053 C.ar    1  UNL1        0.0270
     23 C          -9.5620  -18.2683   25.2904 C.ar    1  UNL1        0.1531
     24 F         -10.0485  -19.6813   25.4192 F       1  UNL1       -0.2029
     25 C          -8.1447  -15.3620   27.5913 C.3     1  UNL1        0.0680
     26 C          -6.8090  -14.6793   27.5862 C.2     1  UNL1        0.0547
     27 O          -6.5760  -13.4806   28.4572 O.co2   1  UNL1       -0.5488
     28 O          -5.7063  -15.1954   26.7100 O.co2   1  UNL1       -0.5488
@<TRIPOS>UNITY_ATOM_ATTR
27 1
charge -1
@<TRIPOS>BOND
     1    14    15    1
     2    15     1    1
     3     1     2   ar
     4     2     3    1
     5     2     4   ar
     6     4     5   ar
     7     5     8    1
     8     8     9   ar
     9     9    10   ar
    10    10    11   ar
    11    11    12    1
    12    11    13   ar
    13     5     6   ar
    14     6     7   ar
    15     7    16    1
    16    16    18    1
    17    18    19   ar
    18    19    20   ar
    19    20    21   ar
    20    21    25    1
    21    25    26    1
    22    26    27   ar
    23    26    28   ar
    24    21    22   ar
    25    22    23   ar
    26    23    24    1
    27     7     1   ar
    28    23    18   ar
    29    13     8   ar
    30    16    17    1
@<TRIPOS>MOLECULE
*****
 28 30 0 0 0
SMALL
GASTEIGER

@<TRIPOS>ATOM
      1 C          -6.8743  -16.0145   24.7378 C.ar    1  UNL1        0.0231
      2 C          -8.3544  -15.8444   24.5633 C.ar    1  UNL1        0.0597
      3 C          -9.1268  -14.9770   25.5127 C.3     1  UNL1        0.0519
      4 N          -9.0621  -16.5417   23.4395 N.ar    1  UNL1       -0.2307
      5 C          -8.2898  -17.4091   22.4902 C.ar    1  UNL1        0.1693
      6 N          -6.8098  -17.5791   22.6647 N.ar    1  UNL1       -0.2116
      7 C          -6.1020  -16.8818   23.7885 C.ar    1  UNL1        0.1309
      8 C          -8.9976  -18.1064   21.3665 C.ar    1  UNL1        0.0674
      9 C         -10.4191  -17.8800   20.9444 C.ar    1  UNL1        0.0125
     10 C         -10.7081  -18.7862   19.7845 C.ar    1  UNL1        0.0370
     11 C          -9.4653  -19.5726   19.4897 C.ar    1  UNL1        0.1699
     12 F          -9.3073  -20.5989   18.4073 F       1  UNL1       -0.1971
     13 S          -8.4081  -19.1524   20.4674 S.2     1  UNL1       -0.0547
     14 C          -6.3282  -15.8087   27.2695 C.3     1  UNL1        0.0052
     15 C          -6.1666  -15.3172   25.8616 C.3     1  UNL1        0.0304
     16 N          -4.6219  -17.0519   23.9629 N.pl3   1  UNL1       -0.2964
     17 H          -4.2268  -17.0306   24.8644 H       1  UNL1        0.1537
     18 C          -3.7438  -17.2545   22.7639 C.ar    1  UNL1        0.0772
     19 C          -2.8815  -16.1318   22.2674 C.ar    1  UNL1        0.0166
     20 C          -2.0034  -16.3344   21.0683 C.ar    1  UNL1       -0.0025
     21 C          -1.9874  -17.6596   20.3657 C.ar    1  UNL1       -0.0143
     22 C          -2.8496  -18.7821   20.8621 C.ar    1  UNL1        0.0270
     23 C          -3.7278  -18.5796   22.0612 C.ar    1  UNL1        0.1531
     24 F          -4.5899  -19.7022   22.5576 F       1  UNL1       -0.2029
     25 C          -1.1093  -17.8621   19.1666 C.3     1  UNL1        0.0680
     26 C          -1.6353  -17.5666   17.7932 C.2     1  UNL1        0.0547
     27 O          -0.8898  -18.0497   16.5846 O.co2   1  UNL1       -0.5488
     28 O          -2.9067  -16.7880   17.6285 O.co2   1  UNL1       -0.5488
@<TRIPOS>UNITY_ATOM_ATTR
27 1
charge -1
@<TRIPOS>BOND
     1    14    15    1
     2    15     1    1
     3     1     2   ar
     4     2     3    1
     5     2     4   ar
     6     4     5   ar
     7     5     8    1
     8     8     9   ar
     9     9    10   ar
    10    10    11   ar
    11    11    12    1
    12    11    13   ar
    13     5     6   ar
    14     6     7   ar
    15     7    16    1
    16    16    18    1
    17    18    19   ar
    18    19    20   ar
    19    20    21   ar
    20    21    25    1
    21    25    26    1
    22    26    27   ar
    23    26    28   ar
    24    21    22   ar
    25    22    23   ar
    26    23    24    1
    27     7     1   ar
    28    23    18   ar
    29    13     8   ar
    30    16    17    1
@<TRIPOS>MOLECULE
*****
 28 30 0 0 0
SMALL
GASTEIGER

@<TRIPOS>ATOM
      1 C          -8.3639  -16.7177   23.4078 C.ar    1  UNL1        0.0231
      2 C          -9.6413  -17.0497   22.6950 C.ar    1  UNL1        0.0597
      3 C         -10.9282  -16.4099   23.1249 C.3     1  UNL1        0.0519
      4 N          -9.6319  -18.0214   21.5524 N.ar    1  UNL1       -0.2307
      5 C          -8.3451  -18.6612   21.1225 C.ar    1  UNL1        0.1693
      6 N          -7.0677  -18.3292   21.8353 N.ar    1  UNL1       -0.2116
      7 C          -7.0771  -17.3575   22.9779 C.ar    1  UNL1        0.1309
      8 C          -8.3356  -19.6329   19.9799 C.ar    1  UNL1        0.0674
      9 C          -7.2710  -20.6510   19.6970 C.ar    1  UNL1        0.0125
     10 C          -7.6666  -21.4045   18.4618 C.ar    1  UNL1        0.0370
     11 C          -8.9757  -20.8521   17.9812 C.ar    1  UNL1        0.1699
     12 F          -9.7376  -21.3135   16.7743 F       1  UNL1       -0.1971
     13 S          -9.3892  -19.7572   18.9194 S.2     1  UNL1       -0.0547
     14 C          -8.4242  -16.2492   25.9625 C.3     1  UNL1        0.0052
     15 C          -8.3733  -15.7459   24.5504 C.3     1  UNL1        0.0304
     16 N          -5.7997  -17.0255   23.6907 N.pl3   1  UNL1       -0.2964
     17 H          -5.8165  -16.7873   24.6458 H       1  UNL1        0.1537
     18 C          -4.4967  -17.0564   22.9483 C.ar    1  UNL1        0.0772
     19 C          -3.7745  -15.7767   22.6471 C.ar    1  UNL1        0.0166
     20 C          -2.4715  -15.8076   21.9047 C.ar    1  UNL1       -0.0025
     21 C          -1.8907  -17.1183   21.4634 C.ar    1  UNL1       -0.0143
     22 C          -2.6128  -18.3980   21.7645 C.ar    1  UNL1        0.0270
     23 C          -3.9159  -18.3671   22.5070 C.ar    1  UNL1        0.1531
     24 F          -4.6380  -19.6469   22.8082 F       1  UNL1       -0.2029
     25 C          -0.5877  -17.1492   20.7210 C.3     1  UNL1        0.0680
     26 C          -0.4101  -18.0773   19.5560 C.2     1  UNL1        0.0547
     27 O           0.6652  -19.1227   19.5870 O.co2   1  UNL1       -0.5488
     28 O          -1.3079  -17.9601   18.3600 O.co2   1  UNL1       -0.5488
@<TRIPOS>UNITY_ATOM_ATTR
27 1
charge -1
@<TRIPOS>BOND
     1    14    15    1
     2    15     1    1
     3     1     2   ar
     4     2     3    1
     5     2     4   ar
     6     4     5   ar
     7     5     8    1
     8     8     9   ar
     9     9    10   ar
    10    10    11   ar
    11    11    12    1
    12    11    13   ar
    13     5     6   ar
    14     6     7   ar
    15     7    16    1
    16    16    18    1
    17    18    19   ar
    18    19    20   ar
    19    20    21   ar
    20    21    25    1
    21    25    26    1
    22    26    27   ar
    23    26    28   ar
    24    21    22   ar
    25    22    23   ar
    26    23    24    1
    27     7     1   ar
    28    23    18   ar
    29    13     8   ar
    30    16    17    1
@<TRIPOS>MOLECULE
*****
 28 30 0 0 0
SMALL
GASTEIGER

@<TRIPOS>ATOM
      1 C         -15.9972   -7.2876   18.9554 C.ar    1  UNL1        0.0231
      2 C         -15.1037   -8.3445   18.3771 C.ar    1  UNL1        0.0597
      3 C         -15.6649   -9.6899   18.0236 C.3     1  UNL1        0.0519
      4 N         -13.6490   -8.0561   18.1523 N.ar    1  UNL1       -0.2307
      5 C         -13.0877   -6.7107   18.5057 C.ar    1  UNL1        0.1693
      6 N         -13.9812   -5.6538   19.0841 N.ar    1  UNL1       -0.2116
      7 C         -15.4360   -5.9422   19.3089 C.ar    1  UNL1        0.1309
      8 C         -11.6330   -6.4223   18.2809 C.ar    1  UNL1        0.0674
      9 C         -10.4821   -7.1705   18.8855 C.ar    1  UNL1        0.0125
     10 C          -9.2115   -6.5456   18.3903 C.ar    1  UNL1        0.0370
     11 C          -9.5772   -5.4112   17.4795 C.ar    1  UNL1        0.1699
     12 F          -8.6152   -4.5111   16.7623 F       1  UNL1       -0.1971
     13 S         -11.0737   -5.3350   17.4120 S.2     1  UNL1       -0.0547
     14 C         -17.8882   -8.3189   20.4082 C.3     1  UNL1        0.0052
     15 C         -17.4519   -7.5760   19.1803 C.3     1  UNL1        0.0304
     16 N         -16.3295   -4.8852   19.8873 N.pl3   1  UNL1       -0.2964
     17 H         -17.0098   -5.1278   20.5562 H       1  UNL1        0.1537
     18 C         -16.1863   -3.4586   19.4465 C.ar    1  UNL1        0.0772
     19 C         -17.0837   -2.9105   18.3767 C.ar    1  UNL1        0.0166
     20 C         -16.9405   -1.4840   17.9358 C.ar    1  UNL1       -0.0025
     21 C         -15.9000   -0.6054   18.5648 C.ar    1  UNL1       -0.0143
     22 C         -15.0027   -1.1534   19.6345 C.ar    1  UNL1        0.0270
     23 C         -15.1458   -2.5801   20.0754 C.ar    1  UNL1        0.1531
     24 F         -14.2485   -3.1281   21.1452 F       1  UNL1       -0.2029
     25 C         -15.7569    0.8211   18.1239 C.3     1  UNL1        0.0680
     26 C         -14.6231    1.6559   18.6414 C.2     1  UNL1        0.0547
     27 O         -14.8945    2.7797   19.5972 O.co2   1  UNL1       -0.5488
     28 O         -13.2180    1.3668   18.2032 O.co2   1  UNL1       -0.5488
@<TRIPOS>UNITY_ATOM_ATTR
27 1
charge -1
@<TRIPOS>BOND
     1    14    15    1
     2    15     1    1
     3     1     2   ar
     4     2     3    1
     5     2     4   ar
     6     4     5   ar
     7     5     8    1
     8     8     9   ar
     9     9    10   ar
    10    10    11   ar
    11    11    12    1
    12    11    13   ar
    13     5     6   ar
    14     6     7   ar
    15     7    16    1
    16    16    18    1
    17    18    19   ar
    18    19    20   ar
    19    20    21   ar
    20    21    25    1
    21    25    26    1
    22    26    27   ar
    23    26    28   ar
    24    21    22   ar
    25    22    23   ar
    26    23    24    1
    27     7     1   ar
    28    23    18   ar
    29    13     8   ar
    30    16    17    1
@<TRIPOS>MOLECULE
*****
 28 30 0 0 0
SMALL
GASTEIGER

@<TRIPOS>ATOM
      1 C          -7.0561  -16.0422   24.5111 C.ar    1  UNL1        0.0231
      2 C          -8.5006  -15.9067   24.1303 C.ar    1  UNL1        0.0597
      3 C          -9.3929  -14.9725   24.8927 C.3     1  UNL1        0.0519
      4 N          -9.0529  -16.7055   22.9870 N.ar    1  UNL1       -0.2307
      5 C          -8.1607  -17.6397   22.2246 C.ar    1  UNL1        0.1693
      6 N          -6.7163  -17.7751   22.6054 N.ar    1  UNL1       -0.2116
      7 C          -6.1639  -16.9763   23.7487 C.ar    1  UNL1        0.1309
      8 C          -8.7131  -18.4384   21.0814 C.ar    1  UNL1        0.0674
      9 C         -10.1376  -18.4368   20.6117 C.ar    1  UNL1        0.0125
     10 C         -10.2428  -19.3764   19.4471 C.ar    1  UNL1        0.0370
     11 C          -8.8832  -19.9587   19.1972 C.ar    1  UNL1        0.1699
     12 F          -8.5309  -20.9472   18.1254 F       1  UNL1       -0.1971
     13 S          -7.9378  -19.3790   20.2072 S.2     1  UNL1       -0.0547
     14 C          -6.6267  -15.7586   27.0576 C.3     1  UNL1        0.0052
     15 C          -6.5038  -15.2434   25.6543 C.3     1  UNL1        0.0304
     16 N          -4.7194  -17.1118   24.1295 N.pl3   1  UNL1       -0.2964
     17 H          -4.4466  -17.0101   25.0699 H       1  UNL1        0.1537
     18 C          -3.6904  -17.4021   23.0773 C.ar    1  UNL1        0.0772
     19 C          -3.3183  -18.8209   22.7634 C.ar    1  UNL1        0.0166
     20 C          -2.2894  -19.1112   21.7113 C.ar    1  UNL1       -0.0025
     21 C          -1.6326  -17.9828   20.9731 C.ar    1  UNL1       -0.0143
     22 C          -2.0046  -16.5640   21.2869 C.ar    1  UNL1        0.0270
     23 C          -3.0336  -16.2736   22.3391 C.ar    1  UNL1        0.1531
     24 F          -3.4057  -14.8548   22.6529 F       1  UNL1       -0.2029
     25 C          -0.6036  -18.2731   19.9209 C.3     1  UNL1        0.0680
     26 C           0.7623  -17.6608   20.0185 C.2     1  UNL1        0.0547
     27 O           1.8227  -18.3213   20.8487 O.co2   1  UNL1       -0.5488
     28 O           1.0678  -16.3881   19.2859 O.co2   1  UNL1       -0.5488
@<TRIPOS>UNITY_ATOM_ATTR
27 1
charge -1
@<TRIPOS>BOND
     1    14    15    1
     2    15     1    1
     3     1     2   ar
     4     2     3    1
     5     2     4   ar
     6     4     5   ar
     7     5     8    1
     8     8     9   ar
     9     9    10   ar
    10    10    11   ar
    11    11    12    1
    12    11    13   ar
    13     5     6   ar
    14     6     7   ar
    15     7    16    1
    16    16    18    1
    17    18    19   ar
    18    19    20   ar
    19    20    21   ar
    20    21    25    1
    21    25    26    1
    22    26    27   ar
    23    26    28   ar
    24    21    22   ar
    25    22    23   ar
    26    23    24    1
    27     7     1   ar
    28    23    18   ar
    29    13     8   ar
    30    16    17    1
@<TRIPOS>MOLECULE
*****
 28 30 0 0 0
SMALL
GASTEIGER

@<TRIPOS>ATOM
      1 C          -7.0885  -15.8249   23.7684 C.ar    1  UNL1        0.0231
      2 C          -5.8569  -16.0736   24.5877 C.ar    1  UNL1        0.0597
      3 C          -5.7575  -15.5215   25.9789 C.3     1  UNL1        0.0519
      4 N          -4.7248  -16.8744   24.0160 N.ar    1  UNL1       -0.2307
      5 C          -4.8242  -17.4266   22.6249 C.ar    1  UNL1        0.1693
      6 N          -6.0558  -17.1778   21.8055 N.ar    1  UNL1       -0.2116
      7 C          -7.1879  -16.3770   22.3773 C.ar    1  UNL1        0.1309
      8 C          -3.6921  -18.2274   22.0531 C.ar    1  UNL1        0.0674
      9 C          -3.6044  -19.7242   22.0103 C.ar    1  UNL1        0.0125
     10 C          -2.3070  -20.0940   21.3545 C.ar    1  UNL1        0.0370
     11 C          -1.5929  -18.8257   20.9920 C.ar    1  UNL1        0.1699
     12 F          -0.2572  -18.7281   20.3163 F       1  UNL1       -0.1971
     13 S          -2.4489  -17.6721   21.4237 S.2     1  UNL1       -0.0547
     14 C          -9.0001  -15.5542   25.5069 C.3     1  UNL1        0.0052
     15 C          -8.2206  -15.0240   24.3402 C.3     1  UNL1        0.0304
     16 N          -8.4195  -16.1283   21.5579 N.pl3   1  UNL1       -0.2964
     17 H          -8.3518  -15.6496   20.7002 H       1  UNL1        0.1537
     18 C          -9.7543  -16.6088   22.0452 C.ar    1  UNL1        0.0772
     19 C         -10.9590  -15.7229   21.9276 C.ar    1  UNL1        0.0166
     20 C         -12.2938  -16.2035   22.4149 C.ar    1  UNL1       -0.0025
     21 C         -12.4238  -17.5699   23.0198 C.ar    1  UNL1       -0.0143
     22 C         -11.2191  -18.4558   23.1373 C.ar    1  UNL1        0.0270
     23 C          -9.8843  -17.9753   22.6500 C.ar    1  UNL1        0.1531
     24 F          -8.6796  -18.8612   22.7676 F       1  UNL1       -0.2029
     25 C         -13.7585  -18.0505   23.5071 C.3     1  UNL1        0.0680
     26 C         -13.9025  -18.5735   24.9056 C.2     1  UNL1        0.0547
     27 O         -15.2673  -18.8157   25.4789 O.co2   1  UNL1       -0.5488
     28 O         -12.6818  -18.8544   25.7307 O.co2   1  UNL1       -0.5488
@<TRIPOS>UNITY_ATOM_ATTR
27 1
charge -1
@<TRIPOS>BOND
     1    14    15    1
     2    15     1    1
     3     1     2   ar
     4     2     3    1
     5     2     4   ar
     6     4     5   ar
     7     5     8    1
     8     8     9   ar
     9     9    10   ar
    10    10    11   ar
    11    11    12    1
    12    11    13   ar
    13     5     6   ar
    14     6     7   ar
    15     7    16    1
    16    16    18    1
    17    18    19   ar
    18    19    20   ar
    19    20    21   ar
    20    21    25    1
    21    25    26    1
    22    26    27   ar
    23    26    28   ar
    24    21    22   ar
    25    22    23   ar
    26    23    24    1
    27     7     1   ar
    28    23    18   ar
    29    13     8   ar
    30    16    17    1
@<TRIPOS>MOLECULE
*****
 28 30 0 0 0
SMALL
GASTEIGER

@<TRIPOS>ATOM
      1 C          -1.7422    3.9313   17.8758 C.ar    1  UNL1        0.0231
      2 C          -3.2273    3.9574   17.6670 C.ar    1  UNL1        0.0597
      3 C          -3.7885    4.0054   16.2767 C.3     1  UNL1        0.0519
      4 N          -4.1514    3.9355   18.8484 N.ar    1  UNL1       -0.2307
      5 C          -3.5903    3.8875   20.2386 C.ar    1  UNL1        0.1693
      6 N          -2.1052    3.8614   20.4475 N.ar    1  UNL1       -0.2116
      7 C          -1.1811    3.8833   19.2661 C.ar    1  UNL1        0.1309
      8 C          -4.5143    3.8656   21.4200 C.ar    1  UNL1        0.0674
      9 C          -5.9882    4.1430   21.3918 C.ar    1  UNL1        0.0125
     10 C          -6.5115    4.0114   22.7914 C.ar    1  UNL1        0.0370
     11 C          -5.3611    3.6525   23.6846 C.ar    1  UNL1        0.1699
     12 F          -5.4324    3.4239   25.1653 F       1  UNL1       -0.1971
     13 S          -4.1268    3.5625   22.8370 S.2     1  UNL1       -0.0547
     14 C          -0.2263    5.2505   16.2291 C.3     1  UNL1        0.0052
     15 C          -0.8182    3.9532   16.6945 C.3     1  UNL1        0.0304
     16 N           0.3041    3.8572   19.4750 N.pl3   1  UNL1       -0.2964
     17 H           0.7808    4.6819   19.7237 H       1  UNL1        0.1537
     18 C           1.0629    2.5746   19.3050 C.ar    1  UNL1        0.0772
     19 C           0.4935    1.2907   19.8320 C.ar    1  UNL1        0.0166
     20 C           1.2524    0.0081   19.6620 C.ar    1  UNL1       -0.0025
     21 C           2.5807    0.0092   18.9651 C.ar    1  UNL1       -0.0143
     22 C           3.1501    1.2930   18.4382 C.ar    1  UNL1        0.0270
     23 C           2.3912    2.5757   18.6081 C.ar    1  UNL1        0.1531
     24 F           2.9606    3.8595   18.0812 F       1  UNL1       -0.2029
     25 C           3.3395   -1.2734   18.7951 C.3     1  UNL1        0.0680
     26 C           4.1726   -1.4949   17.5675 C.2     1  UNL1        0.0547
     27 O           5.5294   -2.1237   17.6853 O.co2   1  UNL1       -0.5488
     28 O           3.6490   -1.0878   16.2222 O.co2   1  UNL1       -0.5488
@<TRIPOS>UNITY_ATOM_ATTR
27 1
charge -1
@<TRIPOS>BOND
     1    14    15    1
     2    15     1    1
     3     1     2   ar
     4     2     3    1
     5     2     4   ar
     6     4     5   ar
     7     5     8    1
     8     8     9   ar
     9     9    10   ar
    10    10    11   ar
    11    11    12    1
    12    11    13   ar
    13     5     6   ar
    14     6     7   ar
    15     7    16    1
    16    16    18    1
    17    18    19   ar
    18    19    20   ar
    19    20    21   ar
    20    21    25    1
    21    25    26    1
    22    26    27   ar
    23    26    28   ar
    24    21    22   ar
    25    22    23   ar
    26    23    24    1
    27     7     1   ar
    28    23    18   ar
    29    13     8   ar
    30    16    17    1
