@<TRIPOS>MOLECULE
*****
 39 44 0 0 0
SMALL
GASTEIGER

@<TRIPOS>ATOM
      1 C          -0.5161    3.0561   19.8431 C.ar    1  UNL1       -0.0088
      2 C          -1.6914    3.8076   20.3944 C.ar    1  UNL1       -0.0002
      3 C          -1.9646    3.7953   21.8693 C.ar    1  UNL1        0.0351
      4 C          -1.0625    3.0316   22.7928 C.ar    1  UNL1       -0.0133
      5 C           0.1128    2.2801   22.2414 C.ar    1  UNL1        0.0104
      6 C           0.3860    2.2923   20.7666 C.ar    1  UNL1        0.0436
      7 C          -1.3357    3.0193   24.2676 C.3     1  UNL1        0.0545
      8 C          -1.1822    2.7085   25.7271 C.3     1  UNL1        0.0103
      9 C          -0.1071    2.1599   24.2232 C.3     1  UNL1        0.0103
     10 C          -2.5110    3.7708   24.8190 C.2     1  UNL1        0.0648
     11 N          -3.0276    3.9407   26.2169 N.2     1  UNL1       -0.2496
     12 C          -4.2490    4.8094   26.1574 C.2     1  UNL1        0.0781
     13 C          -5.1749    5.3137   27.2243 C.2     1  UNL1        0.0287
     14 C          -6.3391    6.1850   26.8564 C.2     1  UNL1        0.0660
     15 C          -6.5774    6.5520   25.4217 C.2     1  UNL1       -0.0110
     16 C          -5.6514    6.0478   24.3548 C.3     1  UNL1        0.0547
     17 C          -4.4872    5.1765   24.7227 C.2     1  UNL1        0.0041
     18 C          -3.4131    4.5345   23.8955 C.2     1  UNL1        0.0506
     19 C          -3.1399    4.5468   22.4207 C.2     1  UNL1        0.1961
     20 O          -4.0420    5.3106   21.4971 O.2     1  UNL1       -0.2866
     21 N           1.5613    1.5408   20.2152 N.pl3   1  UNL1       -0.3049
     22 C           2.8831    2.2309   20.0519 C.3     1  UNL1        0.1081
     23 C           4.0583    1.4794   19.5006 C.3     1  UNL1        0.0939
     24 N           3.9118    0.0379   19.1126 N.3     1  UNL1       -0.2678
     25 C           2.5900   -0.6521   19.2759 C.3     1  UNL1        0.0939
     26 C           1.4147    0.0994   19.8273 C.3     1  UNL1        0.1081
     27 C           5.0871   -0.7136   18.5612 C.3     1  UNL1        0.0995
     28 C           5.1651   -2.2033   18.7177 C.3     1  UNL1        0.1078
     29 O           4.6883   -2.1152   17.2983 O.3     1  UNL1       -0.3852
     30 C           5.6149   -1.7741   20.0829 C.3     1  UNL1        0.0604
     31 C           5.9772   -2.8040   21.1115 C.3     1  UNL1        0.1446
     32 O           5.8896   -4.2631   20.7750 O.3     1  UNL1       -0.3536
     33 C           5.4398   -4.6924   19.4099 C.3     1  UNL1        0.1446
     34 C           5.0776   -3.6625   18.3812 C.3     1  UNL1        0.0604
     35 H           4.5884   -1.1834   17.0480 H       1  UNL1        0.2103
     36 C          -1.0668    3.9324   17.4600 C.3     1  UNL1        0.0051
     37 C          -0.2430    3.0684   18.3682 C.3     1  UNL1        0.0276
     38 C          -7.2652    6.6893   27.9233 C.1     1  UNL1        0.1001
     39 N          -8.1912    7.1936   28.9902 N.1     1  UNL1       -0.1908
@<TRIPOS>BOND
     1    36    37    1
     2    37     1    1
     3     1     2   ar
     4     2     3   ar
     5     3     4   ar
     6     4     5   ar
     7     5     6   ar
     8     6    21    1
     9    21    22    1
    10    22    23    1
    11    23    24    1
    12    24    27    1
    13    27    28    1
    14    28    29    1
    15    28    30    1
    16    30    31    1
    17    31    32    1
    18    32    33    1
    19    33    34    1
    20    24    25    1
    21    25    26    1
    22     4     7    1
    23     7     8    1
    24     7     9    1
    25     7    10    1
    26    10    11    2
    27    11    12    1
    28    12    13    2
    29    13    14    1
    30    14    38    1
    31    38    39    3
    32    14    15    2
    33    15    16    1
    34    16    17    1
    35    17    18    2
    36    18    19    1
    37    19    20    2
    38     6     1   ar
    39    26    21    1
    40    18    10    1
    41    19     3    1
    42    34    28    1
    43    17    12    1
    44    29    35    1
@<TRIPOS>MOLECULE
*****
 39 44 0 0 0
SMALL
GASTEIGER

@<TRIPOS>ATOM
      1 C           3.2518   -0.7083   21.3100 C.ar    1  UNL1       -0.0088
      2 C           2.0462    0.1736   21.4480 C.ar    1  UNL1       -0.0002
      3 C           1.6318    0.6708   22.8013 C.ar    1  UNL1        0.0351
      4 C           2.4229    0.2862   24.0163 C.ar    1  UNL1       -0.0133
      5 C           3.6284   -0.5957   23.8782 C.ar    1  UNL1        0.0104
      6 C           4.0428   -1.0929   22.5250 C.ar    1  UNL1        0.0436
      7 C           2.0084    0.7834   25.3694 C.3     1  UNL1        0.0545
      8 C           2.0131    1.0006   26.8536 C.3     1  UNL1        0.0103
      9 C           3.2155   -0.0230   25.7468 C.3     1  UNL1        0.0103
     10 C           0.8029    1.6653   25.5075 C.2     1  UNL1        0.0648
     11 N           0.1578    2.3037   26.7018 N.2     1  UNL1       -0.2496
     12 C          -1.0320    3.0829   26.2249 C.2     1  UNL1        0.0781
     13 C          -2.0448    3.9149   26.9541 C.2     1  UNL1        0.0287
     14 C          -3.1478    4.5901   26.1943 C.2     1  UNL1        0.0660
     15 C          -3.2381    4.4333   24.7053 C.2     1  UNL1       -0.0110
     16 C          -2.2252    3.6012   23.9760 C.3     1  UNL1        0.0547
     17 C          -1.1222    2.9260   24.7358 C.2     1  UNL1        0.0041
     18 C           0.0118    2.0499   24.2925 C.2     1  UNL1        0.0506
     19 C           0.4263    1.5527   22.9394 C.2     1  UNL1        0.1961
     20 O          -0.3648    1.9373   21.7243 O.2     1  UNL1       -0.2866
     21 N           5.2484   -1.9748   22.3869 N.pl3   1  UNL1       -0.3049
     22 C           5.1299   -3.4503   22.6290 C.3     1  UNL1        0.1081
     23 C           6.3353   -4.3322   22.4909 C.3     1  UNL1        0.0939
     24 N           7.6593   -3.7384   22.1107 N.3     1  UNL1       -0.2678
     25 C           7.7778   -2.2629   21.8687 C.3     1  UNL1        0.0939
     26 C           6.5723   -1.3810   22.0068 C.3     1  UNL1        0.1081
     27 C           8.8649   -4.6203   21.9726 C.3     1  UNL1        0.0995
     28 C           8.9746   -5.8739   22.7890 C.3     1  UNL1        0.1078
     29 O           8.6554   -6.4639   21.4473 O.3     1  UNL1       -0.3852
     30 C           9.2557   -4.8486   23.8472 C.3     1  UNL1        0.0604
     31 C           9.5356   -5.2818   25.2557 C.3     1  UNL1        0.1446
     32 O           9.5345   -6.7402   25.6061 O.3     1  UNL1       -0.3536
     33 C           9.2534   -7.7656   24.5479 C.3     1  UNL1        0.1446
     34 C           8.9734   -7.3325   23.1393 C.3     1  UNL1        0.0604
     35 H           8.5530   -5.7515   20.7970 H       1  UNL1        0.2103
     36 C           3.1737   -2.5333   19.4625 C.3     1  UNL1        0.0051
     37 C           3.6662   -1.2055   19.9568 C.3     1  UNL1        0.0276
     38 C          -4.1607    5.4222   26.9236 C.1     1  UNL1        0.1001
     39 N          -5.1736    6.2542   27.6528 N.1     1  UNL1       -0.1908
@<TRIPOS>BOND
     1    36    37    1
     2    37     1    1
     3     1     2   ar
     4     2     3   ar
     5     3     4   ar
     6     4     5   ar
     7     5     6   ar
     8     6    21    1
     9    21    22    1
    10    22    23    1
    11    23    24    1
    12    24    27    1
    13    27    28    1
    14    28    29    1
    15    28    30    1
    16    30    31    1
    17    31    32    1
    18    32    33    1
    19    33    34    1
    20    24    25    1
    21    25    26    1
    22     4     7    1
    23     7     8    1
    24     7     9    1
    25     7    10    1
    26    10    11    2
    27    11    12    1
    28    12    13    2
    29    13    14    1
    30    14    38    1
    31    38    39    3
    32    14    15    2
    33    15    16    1
    34    16    17    1
    35    17    18    2
    36    18    19    1
    37    19    20    2
    38     6     1   ar
    39    26    21    1
    40    18    10    1
    41    19     3    1
    42    34    28    1
    43    17    12    1
    44    29    35    1
@<TRIPOS>MOLECULE
*****
 39 44 0 0 0
SMALL
GASTEIGER

@<TRIPOS>ATOM
      1 C           3.8510   -1.6442   20.0880 C.ar    1  UNL1       -0.0088
      2 C           2.7119   -0.7884   19.6187 C.ar    1  UNL1       -0.0002
      3 C           1.9756    0.0811   20.5944 C.ar    1  UNL1        0.0351
      4 C           2.3785    0.0948   22.0392 C.ar    1  UNL1       -0.0133
      5 C           3.5176   -0.7610   22.5084 C.ar    1  UNL1        0.0104
      6 C           4.2539   -1.6305   21.5328 C.ar    1  UNL1        0.0436
      7 C           1.6422    0.9642   23.0149 C.3     1  UNL1        0.0545
      8 C           1.2548    1.6151   24.3097 C.3     1  UNL1        0.0103
      9 C           2.6468    0.3345   23.9337 C.3     1  UNL1        0.0103
     10 C           0.5031    1.8200   22.5457 C.2     1  UNL1        0.0648
     11 N          -0.4022    2.7715   23.2703 N.2     1  UNL1       -0.2496
     12 C          -1.3645    3.3459   22.2733 C.2     1  UNL1        0.0781
     13 C          -2.4835    4.3351   22.4131 C.2     1  UNL1        0.0287
     14 C          -3.2918    4.7276   21.2121 C.2     1  UNL1        0.0660
     15 C          -2.9813    4.1310   19.8714 C.2     1  UNL1       -0.0110
     16 C          -1.8624    3.1419   19.7315 C.3     1  UNL1        0.0547
     17 C          -1.0540    2.7493   20.9325 C.2     1  UNL1        0.0041
     18 C           0.1002    1.8063   21.1009 C.2     1  UNL1        0.0506
     19 C           0.8365    0.9368   20.1253 C.2     1  UNL1        0.1961
     20 O           0.4337    0.9231   18.6804 O.2     1  UNL1       -0.2866
     21 N           5.3930   -2.4862   22.0019 N.pl3   1  UNL1       -0.3049
     22 C           6.7659   -2.2860   21.4317 C.3     1  UNL1        0.1081
     23 C           7.9049   -3.1417   21.9009 C.3     1  UNL1        0.0939
     24 N           7.6712   -4.1977   22.9402 N.3     1  UNL1       -0.2678
     25 C           6.2984   -4.3979   23.5105 C.3     1  UNL1        0.0939
     26 C           5.1592   -3.5421   23.0413 C.3     1  UNL1        0.1081
     27 C           8.8103   -5.0534   23.4094 C.3     1  UNL1        0.0995
     28 C           8.5469   -6.2282   24.3040 C.3     1  UNL1        0.1078
     29 O           8.3413   -6.8701   22.9640 O.3     1  UNL1       -0.3852
     30 C           8.8440   -5.1784   25.3335 C.3     1  UNL1        0.0604
     31 C           8.8062   -5.5263   26.7921 C.3     1  UNL1        0.1446
     32 O           8.4714   -6.9240   27.2213 O.3     1  UNL1       -0.3536
     33 C           8.1743   -7.9739   26.1919 C.3     1  UNL1        0.1446
     34 C           8.2121   -7.6260   24.7333 C.3     1  UNL1        0.0604
     35 H           8.4822   -6.2121   22.2653 H       1  UNL1        0.2103
     36 C           4.1894   -3.9494   18.9384 C.3     1  UNL1        0.0051
     37 C           4.5873   -2.5137   19.1122 C.3     1  UNL1        0.0276
     38 C          -4.4108    5.7168   21.3519 C.1     1  UNL1        0.1001
     39 N          -5.5297    6.7060   21.4917 N.1     1  UNL1       -0.1908
@<TRIPOS>BOND
     1    36    37    1
     2    37     1    1
     3     1     2   ar
     4     2     3   ar
     5     3     4   ar
     6     4     5   ar
     7     5     6   ar
     8     6    21    1
     9    21    22    1
    10    22    23    1
    11    23    24    1
    12    24    27    1
    13    27    28    1
    14    28    29    1
    15    28    30    1
    16    30    31    1
    17    31    32    1
    18    32    33    1
    19    33    34    1
    20    24    25    1
    21    25    26    1
    22     4     7    1
    23     7     8    1
    24     7     9    1
    25     7    10    1
    26    10    11    2
    27    11    12    1
    28    12    13    2
    29    13    14    1
    30    14    38    1
    31    38    39    3
    32    14    15    2
    33    15    16    1
    34    16    17    1
    35    17    18    2
    36    18    19    1
    37    19    20    2
    38     6     1   ar
    39    26    21    1
    40    18    10    1
    41    19     3    1
    42    34    28    1
    43    17    12    1
    44    29    35    1
@<TRIPOS>MOLECULE
*****
 39 44 0 0 0
SMALL
GASTEIGER

@<TRIPOS>ATOM
      1 C           0.4639    2.1823   25.2096 C.ar    1  UNL1       -0.0088
      2 C          -0.2222    2.4845   23.9104 C.ar    1  UNL1       -0.0002
      3 C          -1.6237    3.0192   23.9090 C.ar    1  UNL1        0.0351
      4 C          -2.3390    3.2516   25.2068 C.ar    1  UNL1       -0.0133
      5 C          -1.6529    2.9494   26.5060 C.ar    1  UNL1        0.0104
      6 C          -0.2514    2.4147   26.5074 C.ar    1  UNL1        0.0436
      7 C          -3.7405    3.7863   25.2055 C.3     1  UNL1        0.0545
      8 C          -5.0633    4.2749   25.7169 C.3     1  UNL1        0.0103
      9 C          -3.5138    3.6537   26.6823 C.3     1  UNL1        0.0103
     10 C          -4.4267    4.0885   23.9063 C.2     1  UNL1        0.0648
     11 N          -5.7940    4.6199   23.5932 N.2     1  UNL1       -0.2496
     12 C          -5.9237    4.7159   22.1019 C.2     1  UNL1        0.0781
     13 C          -7.0476    5.1721   21.2195 C.2     1  UNL1        0.0287
     14 C          -6.8844    5.1563   19.7285 C.2     1  UNL1        0.0660
     15 C          -5.5972    4.6843   19.1199 C.2     1  UNL1       -0.0110
     16 C          -4.4733    4.2281   20.0023 C.3     1  UNL1        0.0547
     17 C          -4.6366    4.2438   21.4933 C.2     1  UNL1        0.0041
     18 C          -3.7114    3.8561   22.6085 C.2     1  UNL1        0.0506
     19 C          -2.3099    3.3215   22.6098 C.2     1  UNL1        0.1961
     20 O          -1.5945    3.0890   21.3120 O.2     1  UNL1       -0.2866
     21 N           0.4347    2.1125   27.8066 N.pl3   1  UNL1       -0.3049
     22 C           0.4439    0.7112   28.3417 C.3     1  UNL1        0.1081
     23 C           1.1300    0.4089   29.6408 C.3     1  UNL1        0.0939
     24 N           1.8070    1.5079   30.4049 N.3     1  UNL1       -0.2678
     25 C           1.7978    2.9092   29.8698 C.3     1  UNL1        0.0939
     26 C           1.1117    3.2115   28.5706 C.3     1  UNL1        0.1081
     27 C           2.4931    1.2057   31.7041 C.3     1  UNL1        0.0995
     28 C           2.4112    2.1815   32.8403 C.3     1  UNL1        0.1078
     29 O           0.9830    1.7268   32.7841 O.3     1  UNL1       -0.3852
     30 C           3.8680    2.2974   32.5019 C.3     1  UNL1        0.0604
     31 C           4.7468    3.2312   33.2803 C.3     1  UNL1        0.1446
     32 O           4.1688    4.0491   34.3970 O.3     1  UNL1       -0.3536
     33 C           2.7120    3.9332   34.7353 C.3     1  UNL1        0.1446
     34 C           1.8332    2.9994   33.9570 C.3     1  UNL1        0.0604
     35 H           0.8793    1.0735   32.0746 H       1  UNL1        0.2103
     36 C           2.2426    0.5300   24.2843 C.3     1  UNL1        0.0051
     37 C           1.8654    1.6476   25.2109 C.3     1  UNL1        0.0276
     38 C          -8.0083    5.6126   18.8460 C.1     1  UNL1        0.1001
     39 N          -9.1322    6.0688   17.9636 N.1     1  UNL1       -0.1908
@<TRIPOS>BOND
     1    36    37    1
     2    37     1    1
     3     1     2   ar
     4     2     3   ar
     5     3     4   ar
     6     4     5   ar
     7     5     6   ar
     8     6    21    1
     9    21    22    1
    10    22    23    1
    11    23    24    1
    12    24    27    1
    13    27    28    1
    14    28    29    1
    15    28    30    1
    16    30    31    1
    17    31    32    1
    18    32    33    1
    19    33    34    1
    20    24    25    1
    21    25    26    1
    22     4     7    1
    23     7     8    1
    24     7     9    1
    25     7    10    1
    26    10    11    2
    27    11    12    1
    28    12    13    2
    29    13    14    1
    30    14    38    1
    31    38    39    3
    32    14    15    2
    33    15    16    1
    34    16    17    1
    35    17    18    2
    36    18    19    1
    37    19    20    2
    38     6     1   ar
    39    26    21    1
    40    18    10    1
    41    19     3    1
    42    34    28    1
    43    17    12    1
    44    29    35    1
@<TRIPOS>MOLECULE
*****
 39 44 0 0 0
SMALL
GASTEIGER

@<TRIPOS>ATOM
      1 C           2.8375    1.4990   29.6504 C.ar    1  UNL1       -0.0088
      2 C           2.6004    1.2438   28.1914 C.ar    1  UNL1       -0.0002
      3 C           3.4282    0.2261   27.4639 C.ar    1  UNL1        0.0351
      4 C           4.4930   -0.5362   28.1954 C.ar    1  UNL1       -0.0133
      5 C           4.7301   -0.2809   29.6544 C.ar    1  UNL1        0.0104
      6 C           3.9023    0.7367   30.3819 C.ar    1  UNL1        0.0436
      7 C           5.3207   -1.5538   27.4678 C.3     1  UNL1        0.0545
      8 C           6.3557   -2.6102   27.2166 C.3     1  UNL1        0.0103
      9 C           5.9172   -1.6654   28.8396 C.3     1  UNL1        0.0103
     10 C           5.0837   -1.8091   26.0088 C.2     1  UNL1        0.0648
     11 N           5.7370   -2.7436   25.0343 N.2     1  UNL1       -0.2496
     12 C           5.0760   -2.5588   23.7005 C.2     1  UNL1        0.0781
     13 C           5.3039   -3.2100   22.3686 C.2     1  UNL1        0.0287
     14 C           4.4699   -2.8125   21.1869 C.2     1  UNL1        0.0660
     15 C           3.4080   -1.7638   21.3372 C.2     1  UNL1       -0.0110
     16 C           3.1801   -1.1126   22.6691 C.3     1  UNL1        0.0547
     17 C           4.0141   -1.5101   23.8507 C.2     1  UNL1        0.0041
     18 C           4.0189   -1.0468   25.2774 C.2     1  UNL1        0.0506
     19 C           3.1911   -0.0291   26.0049 C.2     1  UNL1        0.1961
     20 O           2.1263    0.7332   25.2734 O.2     1  UNL1       -0.2866
     21 N           4.1394    0.9920   31.8409 N.pl3   1  UNL1       -0.3049
     22 C           3.6252    0.0241   32.8649 C.3     1  UNL1        0.1081
     23 C           3.8622    0.2793   34.3238 C.3     1  UNL1        0.0939
     24 N           4.6135    1.5026   34.7588 N.3     1  UNL1       -0.2678
     25 C           5.1277    2.4705   33.7348 C.3     1  UNL1        0.0939
     26 C           4.8906    2.2153   32.2758 C.3     1  UNL1        0.1081
     27 C           4.8506    1.7579   36.2178 C.3     1  UNL1        0.0995
     28 C           3.7325    1.5795   37.2017 C.3     1  UNL1        0.1078
     29 O           4.5105    0.3236   37.4611 O.3     1  UNL1       -0.3852
     30 C           3.3428    2.8975   36.6007 C.3     1  UNL1        0.0604
     31 C           2.1052    3.6008   37.0737 C.3     1  UNL1        0.1446
     32 O           1.2574    2.9863   38.1477 O.3     1  UNL1       -0.3536
     33 C           1.6472    1.6683   38.7487 C.3     1  UNL1        0.1446
     34 C           2.8847    0.9650   38.2758 C.3     1  UNL1        0.0604
     35 H           5.2868    0.2983   36.8799 H       1  UNL1        0.2103
     36 C           0.7247    2.1075   31.0346 C.3     1  UNL1        0.0051
     37 C           2.0097    2.5167   30.3779 C.3     1  UNL1        0.0276
     38 C           4.6977   -3.4637   19.8550 C.1     1  UNL1        0.1001
     39 N           4.9255   -4.1149   18.5231 N.1     1  UNL1       -0.1908
@<TRIPOS>BOND
     1    36    37    1
     2    37     1    1
     3     1     2   ar
     4     2     3   ar
     5     3     4   ar
     6     4     5   ar
     7     5     6   ar
     8     6    21    1
     9    21    22    1
    10    22    23    1
    11    23    24    1
    12    24    27    1
    13    27    28    1
    14    28    29    1
    15    28    30    1
    16    30    31    1
    17    31    32    1
    18    32    33    1
    19    33    34    1
    20    24    25    1
    21    25    26    1
    22     4     7    1
    23     7     8    1
    24     7     9    1
    25     7    10    1
    26    10    11    2
    27    11    12    1
    28    12    13    2
    29    13    14    1
    30    14    38    1
    31    38    39    3
    32    14    15    2
    33    15    16    1
    34    16    17    1
    35    17    18    2
    36    18    19    1
    37    19    20    2
    38     6     1   ar
    39    26    21    1
    40    18    10    1
    41    19     3    1
    42    34    28    1
    43    17    12    1
    44    29    35    1
@<TRIPOS>MOLECULE
*****
 39 44 0 0 0
SMALL
GASTEIGER

@<TRIPOS>ATOM
      1 C           5.7763   -1.8492   29.6569 C.ar    1  UNL1       -0.0088
      2 C           5.6543   -2.0053   28.1701 C.ar    1  UNL1       -0.0002
      3 C           4.6381   -1.2029   27.4126 C.ar    1  UNL1        0.0351
      4 C           3.7441   -0.2444   28.1421 C.ar    1  UNL1       -0.0133
      5 C           3.8662   -0.0883   29.6289 C.ar    1  UNL1        0.0104
      6 C           4.8823   -0.8907   30.3864 C.ar    1  UNL1        0.0436
      7 C           2.7281    0.5580   27.3846 C.3     1  UNL1        0.0545
      8 C           1.6208    1.5321   27.1104 C.3     1  UNL1        0.0103
      9 C           2.4656    1.0524   28.7762 C.3     1  UNL1        0.0103
     10 C           2.6060    0.4019   25.8977 C.2     1  UNL1        0.0648
     11 N           1.7048    1.0529   24.8908 N.2     1  UNL1       -0.2496
     12 C           2.0418    0.4969   23.5391 C.2     1  UNL1        0.0781
     13 C           1.4817    0.7678   22.1742 C.2     1  UNL1        0.0287
     14 C           2.0312    0.0439   20.9809 C.2     1  UNL1        0.0660
     15 C           3.1407   -0.9508   21.1524 C.2     1  UNL1       -0.0110
     16 C           3.7008   -1.2217   22.5172 C.3     1  UNL1        0.0547
     17 C           3.1513   -0.4979   23.7106 C.2     1  UNL1        0.0041
     18 C           3.5000   -0.5566   25.1683 C.2     1  UNL1        0.0506
     19 C           4.5161   -1.3590   25.9258 C.2     1  UNL1        0.1961
     20 O           5.4101   -2.3175   25.1963 O.2     1  UNL1       -0.2866
     21 N           5.0043   -0.7346   31.8732 N.pl3   1  UNL1       -0.3049
     22 C           5.8446    0.3685   32.4451 C.3     1  UNL1        0.1081
     23 C           5.9667    0.5246   33.9319 C.3     1  UNL1        0.0939
     24 N           5.2485   -0.4225   34.8469 N.3     1  UNL1       -0.2678
     25 C           4.4082   -1.5256   34.2750 C.3     1  UNL1        0.0939
     26 C           4.2861   -1.6817   32.7882 C.3     1  UNL1        0.1081
     27 C           5.3705   -0.2664   36.3338 C.3     1  UNL1        0.0995
     28 C           5.3930    1.1033   36.9448 C.3     1  UNL1        0.1078
     29 O           6.8657    0.8300   36.8639 O.3     1  UNL1       -0.3852
     30 C           3.9125    0.9010   36.8134 C.3     1  UNL1        0.0604
     31 C           2.9660    1.9735   37.2651 C.3     1  UNL1        0.1446
     32 O           3.4999    3.2482   37.8479 O.3     1  UNL1       -0.3536
     33 C           4.9805    3.4506   37.9793 C.3     1  UNL1        0.1446
     34 C           5.9270    2.3782   37.5277 C.3     1  UNL1        0.0604
     35 H           7.0109   -0.0475   36.4769 H       1  UNL1        0.2103
     36 C           6.8955   -4.1317   30.1935 C.3     1  UNL1        0.0051
     37 C           6.7924   -2.6516   30.4144 C.3     1  UNL1        0.0276
     38 C           1.4711    0.3148   19.6159 C.1     1  UNL1        0.1001
     39 N           0.9111    0.5857   18.2510 N.1     1  UNL1       -0.1908
@<TRIPOS>BOND
     1    36    37    1
     2    37     1    1
     3     1     2   ar
     4     2     3   ar
     5     3     4   ar
     6     4     5   ar
     7     5     6   ar
     8     6    21    1
     9    21    22    1
    10    22    23    1
    11    23    24    1
    12    24    27    1
    13    27    28    1
    14    28    29    1
    15    28    30    1
    16    30    31    1
    17    31    32    1
    18    32    33    1
    19    33    34    1
    20    24    25    1
    21    25    26    1
    22     4     7    1
    23     7     8    1
    24     7     9    1
    25     7    10    1
    26    10    11    2
    27    11    12    1
    28    12    13    2
    29    13    14    1
    30    14    38    1
    31    38    39    3
    32    14    15    2
    33    15    16    1
    34    16    17    1
    35    17    18    2
    36    18    19    1
    37    19    20    2
    38     6     1   ar
    39    26    21    1
    40    18    10    1
    41    19     3    1
    42    34    28    1
    43    17    12    1
    44    29    35    1
@<TRIPOS>MOLECULE
*****
 39 44 0 0 0
SMALL
GASTEIGER

@<TRIPOS>ATOM
      1 C          -1.8255    3.3615   20.8271 C.ar    1  UNL1       -0.0088
      2 C          -0.8582    2.3983   20.2053 C.ar    1  UNL1       -0.0002
      3 C           0.1291    1.6665   21.0655 C.ar    1  UNL1        0.0351
      4 C           0.1489    1.8979   22.5474 C.ar    1  UNL1       -0.0133
      5 C          -0.8184    2.8611   23.1692 C.ar    1  UNL1        0.0104
      6 C          -1.8056    3.5929   22.3090 C.ar    1  UNL1        0.0436
      7 C           1.1362    1.1661   23.4075 C.3     1  UNL1        0.0545
      8 C           1.8768    0.7142   24.6312 C.3     1  UNL1        0.0103
      9 C           0.4261    1.9723   24.4543 C.3     1  UNL1        0.0103
     10 C           2.1035    0.2029   22.7858 C.2     1  UNL1        0.0648
     11 N           3.1828   -0.6563   23.3746 N.2     1  UNL1       -0.2496
     12 C           3.8300   -1.4188   22.2566 C.2     1  UNL1        0.0781
     13 C           4.9502   -2.4162   22.2386 C.2     1  UNL1        0.0287
     14 C           5.3910   -3.0256   20.9408 C.2     1  UNL1        0.0660
     15 C           4.7116   -2.6376   19.6610 C.2     1  UNL1       -0.0110
     16 C           3.5914   -1.6402   19.6790 C.3     1  UNL1        0.0547
     17 C           3.1506   -1.0308   20.9768 C.2     1  UNL1        0.0041
     18 C           2.0836   -0.0285   21.3039 C.2     1  UNL1        0.0506
     19 C           1.0964    0.7033   20.4437 C.2     1  UNL1        0.1961
     20 O           1.0765    0.4719   18.9618 O.2     1  UNL1       -0.2866
     21 N          -2.7729    4.5561   22.9308 N.pl3   1  UNL1       -0.3049
     22 C          -4.0730    4.0580   23.4891 C.3     1  UNL1        0.1081
     23 C          -5.0402    5.0212   24.1108 C.3     1  UNL1        0.0939
     24 N          -4.7075    6.4824   24.1742 N.3     1  UNL1       -0.2678
     25 C          -3.4074    6.9805   23.6159 C.3     1  UNL1        0.0939
     26 C          -2.4401    6.0173   22.9941 C.3     1  UNL1        0.1081
     27 C          -5.6748    7.4456   24.7960 C.3     1  UNL1        0.0995
     28 C          -6.4592    7.0426   26.0094 C.3     1  UNL1        0.1078
     29 O          -7.4900    6.8120   24.9445 O.3     1  UNL1       -0.3852
     30 C          -5.1559    7.4133   26.6530 C.3     1  UNL1        0.0604
     31 C          -4.9950    7.3008   28.1401 C.3     1  UNL1        0.1446
     32 O          -6.1374    6.8177   28.9836 O.3     1  UNL1       -0.3536
     33 C          -7.4407    6.4471   28.3400 C.3     1  UNL1        0.1446
     34 C          -7.6016    6.5595   26.8529 C.3     1  UNL1        0.0604
     35 H          -7.1158    7.0365   24.0782 H       1  UNL1        0.2103
     36 C          -4.2010    3.5528   19.7926 C.3     1  UNL1        0.0051
     37 C          -2.8127    4.0933   19.9669 C.3     1  UNL1        0.0276
     38 C           6.5112   -4.0230   20.9228 C.1     1  UNL1        0.1001
     39 N           7.6313   -5.0205   20.9048 N.1     1  UNL1       -0.1908
@<TRIPOS>BOND
     1    36    37    1
     2    37     1    1
     3     1     2   ar
     4     2     3   ar
     5     3     4   ar
     6     4     5   ar
     7     5     6   ar
     8     6    21    1
     9    21    22    1
    10    22    23    1
    11    23    24    1
    12    24    27    1
    13    27    28    1
    14    28    29    1
    15    28    30    1
    16    30    31    1
    17    31    32    1
    18    32    33    1
    19    33    34    1
    20    24    25    1
    21    25    26    1
    22     4     7    1
    23     7     8    1
    24     7     9    1
    25     7    10    1
    26    10    11    2
    27    11    12    1
    28    12    13    2
    29    13    14    1
    30    14    38    1
    31    38    39    3
    32    14    15    2
    33    15    16    1
    34    16    17    1
    35    17    18    2
    36    18    19    1
    37    19    20    2
    38     6     1   ar
    39    26    21    1
    40    18    10    1
    41    19     3    1
    42    34    28    1
    43    17    12    1
    44    29    35    1
@<TRIPOS>MOLECULE
*****
 39 44 0 0 0
SMALL
GASTEIGER

@<TRIPOS>ATOM
      1 C          -0.3123    2.8126   22.8032 C.ar    1  UNL1       -0.0088
      2 C           0.7175    2.0248   23.5575 C.ar    1  UNL1       -0.0002
      3 C           1.4778    0.9308   22.8681 C.ar    1  UNL1        0.0351
      4 C           1.2083    0.6246   21.4247 C.ar    1  UNL1       -0.0133
      5 C           0.1784    1.4125   20.6705 C.ar    1  UNL1        0.0104
      6 C          -0.5819    2.5064   21.3597 C.ar    1  UNL1        0.0436
      7 C           1.9686   -0.4693   20.7354 C.3     1  UNL1        0.0545
      8 C           2.4265   -1.4023   19.6537 C.3     1  UNL1        0.0103
      9 C           1.0978   -0.0056   19.6056 C.3     1  UNL1        0.0103
     10 C           2.9984   -1.2572   21.4896 C.2     1  UNL1        0.0648
     11 N           3.8981   -2.3851   21.0792 N.2     1  UNL1       -0.2496
     12 C           4.7236   -2.7760   22.2690 C.2     1  UNL1        0.0781
     13 C           5.7797   -3.8245   22.4572 C.2     1  UNL1        0.0287
     14 C           6.4462   -3.9866   23.7911 C.2     1  UNL1        0.0660
     15 C           6.0568   -3.1003   24.9368 C.2     1  UNL1       -0.0110
     16 C           5.0008   -2.0518   24.7487 C.3     1  UNL1        0.0547
     17 C           4.3342   -1.8897   23.4148 C.2     1  UNL1        0.0041
     18 C           3.2680   -0.9510   22.9331 C.2     1  UNL1        0.0506
     19 C           2.5077    0.1430   23.6223 C.2     1  UNL1        0.1961
     20 O           2.7772    0.4492   25.0659 O.2     1  UNL1       -0.2866
     21 N          -1.6117    3.2943   20.6055 N.pl3   1  UNL1       -0.3049
     22 C          -1.1826    4.3028   19.5815 C.3     1  UNL1        0.1081
     23 C          -2.2124    5.0906   18.8274 C.3     1  UNL1        0.0939
     24 N          -3.6713    4.8699   19.0972 N.3     1  UNL1       -0.2678
     25 C          -4.1004    3.8613   20.1212 C.3     1  UNL1        0.0939
     26 C          -3.0705    3.0735   20.8754 C.3     1  UNL1        0.1081
     27 C          -4.7012    5.6577   18.3430 C.3     1  UNL1        0.0995
     28 C          -5.7582    6.4174   19.0883 C.3     1  UNL1        0.1078
     29 O          -4.5483    7.2227   19.4592 O.3     1  UNL1       -0.3852
     30 C          -6.6011    5.3483   18.4585 C.3     1  UNL1        0.0604
     31 C          -8.0807    5.3186   18.7028 C.3     1  UNL1        0.1446
     32 O          -8.7175    6.3580   19.5769 O.3     1  UNL1       -0.3536
     33 C          -7.8746    7.4271   20.2067 C.3     1  UNL1        0.1446
     34 C          -6.3950    7.4569   19.9624 C.3     1  UNL1        0.0604
     35 H          -3.7631    6.8393   19.0379 H       1  UNL1        0.2103
     36 C          -2.1437    3.5650   24.4856 C.3     1  UNL1        0.0051
     37 C          -1.0726    3.9067   23.4925 C.3     1  UNL1        0.0276
     38 C           7.5023   -5.0352   23.9793 C.1     1  UNL1        0.1001
     39 N           8.5584   -6.0836   24.1675 N.1     1  UNL1       -0.1908
@<TRIPOS>BOND
     1    36    37    1
     2    37     1    1
     3     1     2   ar
     4     2     3   ar
     5     3     4   ar
     6     4     5   ar
     7     5     6   ar
     8     6    21    1
     9    21    22    1
    10    22    23    1
    11    23    24    1
    12    24    27    1
    13    27    28    1
    14    28    29    1
    15    28    30    1
    16    30    31    1
    17    31    32    1
    18    32    33    1
    19    33    34    1
    20    24    25    1
    21    25    26    1
    22     4     7    1
    23     7     8    1
    24     7     9    1
    25     7    10    1
    26    10    11    2
    27    11    12    1
    28    12    13    2
    29    13    14    1
    30    14    38    1
    31    38    39    3
    32    14    15    2
    33    15    16    1
    34    16    17    1
    35    17    18    2
    36    18    19    1
    37    19    20    2
    38     6     1   ar
    39    26    21    1
    40    18    10    1
    41    19     3    1
    42    34    28    1
    43    17    12    1
    44    29    35    1
@<TRIPOS>MOLECULE
*****
 39 44 0 0 0
SMALL
GASTEIGER

@<TRIPOS>ATOM
      1 C           6.4851   -2.3161   26.0690 C.ar    1  UNL1       -0.0088
      2 C           6.8362   -2.1597   27.5190 C.ar    1  UNL1       -0.0002
      3 C           5.8309   -1.5924   28.4770 C.ar    1  UNL1        0.0351
      4 C           4.4747   -1.1816   27.9851 C.ar    1  UNL1       -0.0133
      5 C           4.1237   -1.3381   26.5351 C.ar    1  UNL1        0.0104
      6 C           5.1289   -1.9053   25.5771 C.ar    1  UNL1        0.0436
      7 C           3.4695   -0.6144   28.9431 C.3     1  UNL1        0.0545
      8 C           2.1878   -0.0311   29.4600 C.3     1  UNL1        0.0103
      9 C           2.6734   -0.5683   27.6727 C.3     1  UNL1        0.0103
     10 C           3.8205   -0.4580   30.3931 C.2     1  UNL1        0.0648
     11 N           3.0423    0.0663   31.5633 N.2     1  UNL1       -0.2496
     12 C           3.9174   -0.0205   32.7784 C.2     1  UNL1        0.0781
     13 C           3.6835    0.3521   34.2124 C.2     1  UNL1        0.0287
     14 C           4.7688    0.1468   35.2272 C.2     1  UNL1        0.0660
     15 C           6.0880   -0.4312   34.8080 C.2     1  UNL1       -0.0110
     16 C           6.3219   -0.8038   33.3740 C.3     1  UNL1        0.0547
     17 C           5.2366   -0.5984   32.3592 C.2     1  UNL1        0.0041
     18 C           5.1767   -0.8688   30.8850 C.2     1  UNL1        0.0506
     19 C           6.1819   -1.4360   29.9270 C.2     1  UNL1        0.1961
     20 O           7.5381   -1.8469   30.4189 O.2     1  UNL1       -0.2866
     21 N           4.7779   -2.0617   24.1271 N.pl3   1  UNL1       -0.3049
     22 C           4.2362   -0.8944   23.3564 C.3     1  UNL1        0.1081
     23 C           3.8853   -1.0508   21.9066 C.3     1  UNL1        0.0939
     24 N           4.0759   -2.3746   21.2273 N.3     1  UNL1       -0.2678
     25 C           4.6176   -3.5419   21.9980 C.3     1  UNL1        0.0939
     26 C           4.9686   -3.3854   23.4480 C.3     1  UNL1        0.1081
     27 C           3.7249   -2.5310   19.7773 C.3     1  UNL1        0.0995
     28 C           4.2333   -1.5410   18.7716 C.3     1  UNL1        0.1078
     29 O           2.8511   -1.0018   18.9922 O.3     1  UNL1       -0.3852
     30 C           5.4390   -2.4241   18.9002 C.3     1  UNL1        0.0604
     31 C           6.6730   -2.1299   18.0997 C.3     1  UNL1        0.1446
     32 O           6.7012   -0.9527   17.1706 O.3     1  UNL1       -0.3536
     33 C           5.4955   -0.0696   17.0420 C.3     1  UNL1        0.1446
     34 C           4.2615   -0.3637   17.8424 C.3     1  UNL1        0.0604
     35 H           2.3870   -1.5564   19.6387 H       1  UNL1        0.2103
     36 C           8.1348   -4.2074   25.3968 C.3     1  UNL1        0.0051
     37 C           7.4903   -2.8834   25.1110 C.3     1  UNL1        0.0276
     38 C           4.5350    0.5193   36.6613 C.1     1  UNL1        0.1001
     39 N           4.3011    0.8919   38.0953 N.1     1  UNL1       -0.1908
@<TRIPOS>BOND
     1    36    37    1
     2    37     1    1
     3     1     2   ar
     4     2     3   ar
     5     3     4   ar
     6     4     5   ar
     7     5     6   ar
     8     6    21    1
     9    21    22    1
    10    22    23    1
    11    23    24    1
    12    24    27    1
    13    27    28    1
    14    28    29    1
    15    28    30    1
    16    30    31    1
    17    31    32    1
    18    32    33    1
    19    33    34    1
    20    24    25    1
    21    25    26    1
    22     4     7    1
    23     7     8    1
    24     7     9    1
    25     7    10    1
    26    10    11    2
    27    11    12    1
    28    12    13    2
    29    13    14    1
    30    14    38    1
    31    38    39    3
    32    14    15    2
    33    15    16    1
    34    16    17    1
    35    17    18    2
    36    18    19    1
    37    19    20    2
    38     6     1   ar
    39    26    21    1
    40    18    10    1
    41    19     3    1
    42    34    28    1
    43    17    12    1
    44    29    35    1
