@<TRIPOS>MOLECULE
*****
 28 31 0 0 0
SMALL
GASTEIGER

@<TRIPOS>ATOM
      1 C          -6.5585  -20.0409   20.8042 C.2     1  UNL1       -0.0021
      2 C          -5.9414  -21.0463   19.8778 C.2     1  UNL1        0.0942
      3 N          -4.4515  -20.9645   20.0311 N.2     1  UNL1       -0.2482
      4 C          -4.1478  -19.9087   21.0524 C.2     1  UNL1        0.0633
      5 C          -2.8538  -19.3933   21.6089 C.3     1  UNL1        0.0753
      6 C          -2.8620  -18.3071   22.6433 C.2     1  UNL1        0.0203
      7 C          -4.1642  -17.7362   23.1211 C.2     1  UNL1        0.1317
      8 C          -5.4582  -18.2516   22.5646 C.2     1  UNL1        0.0407
      9 C          -5.4501  -19.3378   21.5302 C.2     1  UNL1        0.0148
     10 C         -10.1033  -19.5374   22.5164 C.3     1  UNL1        0.0543
     11 C         -10.9623  -19.2693   21.3162 C.3     1  UNL1        0.0157
     12 C         -10.3533  -19.2585   19.9455 C.3     1  UNL1        0.0017
     13 C          -8.8854  -19.5156   19.7748 C.3     1  UNL1        0.0045
     14 C          -8.0264  -19.7837   20.9749 C.3     1  UNL1        0.0252
     15 C          -8.6354  -19.7946   22.3457 C.3     1  UNL1        0.0201
     16 C         -10.0242  -18.8443   25.0190 C.3     1  UNL1        0.0858
     17 N         -10.7122  -19.5483   23.8871 N.3     1  UNL1       -0.2974
     18 H         -11.6391  -19.1313   23.8010 H       1  UNL1        0.1232
     19 N          -4.1723  -16.6499   24.1555 N.pl3   1  UNL1       -0.1992
     20 H          -3.4936  -16.6441   24.8686 H       1  UNL1        0.2985
     21 C          -5.2146  -15.5725   24.1035 C.2     1  UNL1        0.3224
     22 N          -5.1723  -14.5400   23.0162 N.2     1  UNL1       -0.0985
     23 H          -4.4605  -14.5695   22.3367 H       1  UNL1        0.3633
     24 C          -6.2992  -15.5274   25.1387 C.ar    1  UNL1        0.1114
     25 C          -6.0983  -15.4715   26.6242 C.ar    1  UNL1        0.0144
     26 C          -7.4500  -15.4399   27.2738 C.ar    1  UNL1        0.0077
     27 C          -8.4862  -15.4764   26.1898 C.ar    1  UNL1        0.0357
     28 S          -7.7750  -15.5304   24.8703 S.2     1  UNL1       -0.0792
@<TRIPOS>BOND
     1    16    17    1
     2    17    10    1
     3    10    11    1
     4    11    12    1
     5    12    13    1
     6    13    14    1
     7    14     1    1
     8     1     2    2
     9     2     3    1
    10     3     4    2
    11     4     5    1
    12     5     6    1
    13     6     7    2
    14     7    19    1
    15    19    21    1
    16    21    22    2
    17    21    24    1
    18    24    25   ar
    19    25    26   ar
    20    26    27   ar
    21    27    28   ar
    22     7     8    1
    23     8     9    2
    24    14    15    1
    25    15    10    1
    26     9     1    1
    27     9     4    1
    28    28    24   ar
    29    17    18    1
    30    19    20    1
    31    22    23    1
@<TRIPOS>MOLECULE
*****
 28 31 0 0 0
SMALL
GASTEIGER

@<TRIPOS>ATOM
      1 C          -9.4110  -18.8819   20.7493 C.2     1  UNL1       -0.0021
      2 C          -9.4836  -19.7463   19.5256 C.2     1  UNL1        0.0942
      3 N          -8.0864  -20.1533   19.1621 N.2     1  UNL1       -0.2482
      4 C          -7.1502  -19.5403   20.1611 C.2     1  UNL1        0.0633
      5 C          -5.6582  -19.5962   20.3042 C.3     1  UNL1        0.0753
      6 C          -4.9848  -18.8662   21.4284 C.2     1  UNL1        0.0203
      7 C          -5.8034  -18.0804   22.4093 C.2     1  UNL1        0.1317
      8 C          -7.2955  -18.0246   22.2662 C.2     1  UNL1        0.0407
      9 C          -7.9689  -18.7545   21.1421 C.2     1  UNL1        0.0148
     10 C         -12.1846  -18.1583   23.4942 C.3     1  UNL1        0.0543
     11 C         -12.9059  -17.0006   22.8700 C.3     1  UNL1        0.0157
     12 C         -12.4622  -16.4701   21.5390 C.3     1  UNL1        0.0017
     13 C         -11.2972  -17.0972   20.8321 C.3     1  UNL1        0.0045
     14 C         -10.5759  -18.2548   21.4562 C.3     1  UNL1        0.0252
     15 C         -11.0196  -18.7854   22.7873 C.3     1  UNL1        0.0201
     16 C         -14.0575  -18.5374   25.2543 C.3     1  UNL1        0.0858
     17 N         -12.6282  -18.6889   24.8252 N.3     1  UNL1       -0.2974
     18 H         -12.4247  -19.6884   24.8263 H       1  UNL1        0.1232
     19 N          -5.1300  -17.3505   23.5335 N.pl3   1  UNL1       -0.1992
     20 H          -4.3942  -17.7789   24.0277 H       1  UNL1        0.2985
     21 C          -5.5775  -15.9678   23.9045 C.2     1  UNL1        0.3224
     22 N          -5.1190  -14.7892   23.0978 N.2     1  UNL1       -0.0985
     23 H          -4.5243  -14.9232   22.3248 H       1  UNL1        0.3633
     24 C          -6.4837  -15.7635   25.0824 C.ar    1  UNL1        0.1114
     25 C          -6.0659  -15.7421   26.5229 C.ar    1  UNL1        0.0144
     26 C          -7.2907  -15.5102   27.3573 C.ar    1  UNL1        0.0077
     27 C          -8.4654  -15.3883   26.4325 C.ar    1  UNL1        0.0357
     28 S          -7.9666  -15.5448   25.0265 S.2     1  UNL1       -0.0792
@<TRIPOS>BOND
     1    16    17    1
     2    17    10    1
     3    10    11    1
     4    11    12    1
     5    12    13    1
     6    13    14    1
     7    14     1    1
     8     1     2    2
     9     2     3    1
    10     3     4    2
    11     4     5    1
    12     5     6    1
    13     6     7    2
    14     7    19    1
    15    19    21    1
    16    21    22    2
    17    21    24    1
    18    24    25   ar
    19    25    26   ar
    20    26    27   ar
    21    27    28   ar
    22     7     8    1
    23     8     9    2
    24    14    15    1
    25    15    10    1
    26     9     1    1
    27     9     4    1
    28    28    24   ar
    29    17    18    1
    30    19    20    1
    31    22    23    1
@<TRIPOS>MOLECULE
*****
 28 31 0 0 0
SMALL
GASTEIGER

@<TRIPOS>ATOM
      1 C          -7.3329  -19.4771   20.1986 C.2     1  UNL1       -0.0021
      2 C          -7.8044  -20.1839   18.9625 C.2     1  UNL1        0.0942
      3 N          -9.2987  -20.0666   18.9031 N.2     1  UNL1       -0.2482
      4 C          -9.7506  -19.2874   20.1025 C.2     1  UNL1        0.0633
      5 C         -11.1114  -18.8626   20.5690 C.3     1  UNL1        0.0753
      6 C         -11.2572  -18.0734   21.8362 C.2     1  UNL1        0.0203
      7 C         -10.0423  -17.7091   22.6369 C.2     1  UNL1        0.1317
      8 C          -8.6815  -18.1339   22.1704 C.2     1  UNL1        0.0407
      9 C          -8.5356  -18.9231   20.9032 C.2     1  UNL1        0.0148
     10 C          -3.4069  -18.9031   20.1076 C.3     1  UNL1        0.0543
     11 C          -3.0599  -19.0873   21.5552 C.3     1  UNL1        0.0157
     12 C          -4.1372  -19.4015   22.5506 C.3     1  UNL1        0.0017
     13 C          -5.5615  -19.5314   22.0984 C.3     1  UNL1        0.0045
     14 C          -5.9086  -19.3472   20.6509 C.3     1  UNL1        0.0252
     15 C          -4.8312  -19.0331   19.6554 C.3     1  UNL1        0.0201
     16 C          -1.0082  -18.0559   19.5805 C.3     1  UNL1        0.0858
     17 N          -2.3298  -18.5890   19.1122 N.3     1  UNL1       -0.2974
     18 H          -2.1360  -19.4528   18.6055 H       1  UNL1        0.1232
     19 N         -10.1882  -16.9199   23.9042 N.pl3   1  UNL1       -0.1992
     20 H         -10.7441  -16.1075   23.9169 H       1  UNL1        0.2985
     21 C          -9.4871  -17.3685   25.1521 C.2     1  UNL1        0.3224
     22 N          -9.8818  -18.6562   25.8124 N.2     1  UNL1       -0.0985
     23 H         -10.6010  -19.2070   25.4268 H       1  UNL1        0.3633
     24 C          -8.3913  -16.5295   25.7397 C.ar    1  UNL1        0.1114
     25 C          -8.1561  -16.2838   27.2006 C.ar    1  UNL1        0.0144
     26 C          -6.9577  -15.3912   27.3334 C.ar    1  UNL1        0.0077
     27 C          -6.4525  -15.0854   25.9545 C.ar    1  UNL1        0.0357
     28 S          -7.3385  -15.7888   24.9696 S.2     1  UNL1       -0.0792
@<TRIPOS>BOND
     1    16    17    1
     2    17    10    1
     3    10    11    1
     4    11    12    1
     5    12    13    1
     6    13    14    1
     7    14     1    1
     8     1     2    2
     9     2     3    1
    10     3     4    2
    11     4     5    1
    12     5     6    1
    13     6     7    2
    14     7    19    1
    15    19    21    1
    16    21    22    2
    17    21    24    1
    18    24    25   ar
    19    25    26   ar
    20    26    27   ar
    21    27    28   ar
    22     7     8    1
    23     8     9    2
    24    14    15    1
    25    15    10    1
    26     9     1    1
    27     9     4    1
    28    28    24   ar
    29    17    18    1
    30    19    20    1
    31    22    23    1
@<TRIPOS>MOLECULE
*****
 28 31 0 0 0
SMALL
GASTEIGER

@<TRIPOS>ATOM
      1 C          -8.8856  -16.2892   24.0060 C.2     1  UNL1       -0.0021
      2 C          -8.7912  -15.1634   24.9928 C.2     1  UNL1        0.0942
      3 N          -7.3399  -14.9279   25.2899 N.2     1  UNL1       -0.2482
      4 C          -6.5373  -15.9082   24.4868 C.2     1  UNL1        0.0633
      5 C          -5.0601  -16.1434   24.3756 C.3     1  UNL1        0.0753
      6 C          -4.5382  -17.2199   23.4708 C.2     1  UNL1        0.0203
      7 C          -5.4934  -18.0612   22.6773 C.2     1  UNL1        0.1317
      8 C          -6.9707  -17.8260   22.7886 C.2     1  UNL1        0.0407
      9 C          -7.4926  -16.7495   23.6933 C.2     1  UNL1        0.0148
     10 C         -11.9836  -16.8557   21.5911 C.3     1  UNL1        0.0543
     11 C         -12.6812  -17.9874   22.2857 C.3     1  UNL1        0.0157
     12 C         -12.1136  -18.5531   23.5537 C.3     1  UNL1        0.0017
     13 C         -10.8484  -17.9869   24.1271 C.3     1  UNL1        0.0045
     14 C         -10.1508  -16.8553   23.4326 C.3     1  UNL1        0.0252
     15 C         -10.7184  -16.2896   22.1645 C.3     1  UNL1        0.0201
     16 C         -11.6388  -15.6849   19.2976 C.3     1  UNL1        0.0858
     17 N         -12.5511  -16.2900   20.3231 N.3     1  UNL1       -0.2974
     18 H         -13.0520  -17.0486   19.8605 H       1  UNL1        0.1232
     19 N          -4.9714  -19.1378   21.7725 N.pl3   1  UNL1       -0.1992
     20 H          -4.8718  -20.0578   22.1086 H       1  UNL1        0.2985
     21 C          -4.6012  -18.8126   20.3558 C.2     1  UNL1        0.3224
     22 N          -5.6581  -18.7854   19.2918 N.2     1  UNL1       -0.0985
     23 H          -6.5948  -18.9809   19.5232 H       1  UNL1        0.3633
     24 C          -3.1740  -18.5147   20.0030 C.ar    1  UNL1        0.1114
     25 C          -2.7067  -17.6966   18.8359 C.ar    1  UNL1        0.0144
     26 C          -1.2074  -17.6588   18.8670 C.ar    1  UNL1        0.0077
     27 C          -0.7482  -18.4535   20.0534 C.ar    1  UNL1        0.0357
     28 S          -1.9636  -18.9825   20.7555 S.2     1  UNL1       -0.0792
@<TRIPOS>BOND
     1    16    17    1
     2    17    10    1
     3    10    11    1
     4    11    12    1
     5    12    13    1
     6    13    14    1
     7    14     1    1
     8     1     2    2
     9     2     3    1
    10     3     4    2
    11     4     5    1
    12     5     6    1
    13     6     7    2
    14     7    19    1
    15    19    21    1
    16    21    22    2
    17    21    24    1
    18    24    25   ar
    19    25    26   ar
    20    26    27   ar
    21    27    28   ar
    22     7     8    1
    23     8     9    2
    24    14    15    1
    25    15    10    1
    26     9     1    1
    27     9     4    1
    28    28    24   ar
    29    17    18    1
    30    19    20    1
    31    22    23    1
@<TRIPOS>MOLECULE
*****
 28 31 0 0 0
SMALL
GASTEIGER

@<TRIPOS>ATOM
      1 C          -8.1725  -19.5901   19.9159 C.2     1  UNL1       -0.0021
      2 C          -9.0176  -20.2739   18.8824 C.2     1  UNL1        0.0942
      3 N         -10.4197  -19.7576   19.0146 N.2     1  UNL1       -0.2482
      4 C         -10.4412  -18.7546   20.1298 C.2     1  UNL1        0.0633
      5 C         -11.5459  -17.9222   20.7100 C.3     1  UNL1        0.0753
      6 C         -11.2618  -16.9864   21.8472 C.2     1  UNL1        0.0203
      7 C          -9.8729  -16.8829   22.4043 C.2     1  UNL1        0.1317
      8 C          -8.7682  -17.7153   21.8241 C.2     1  UNL1        0.0407
      9 C          -9.0523  -18.6511   20.6869 C.2     1  UNL1        0.0148
     10 C          -4.3982  -18.9280   20.9487 C.3     1  UNL1        0.0543
     11 C          -3.7706  -20.2412   20.5862 C.3     1  UNL1        0.0157
     12 C          -4.6102  -21.3374   20.0003 C.3     1  UNL1        0.0017
     13 C          -6.0775  -21.1203   19.7769 C.3     1  UNL1        0.0045
     14 C          -6.7052  -19.8072   20.1394 C.3     1  UNL1        0.0252
     15 C          -5.8656  -18.7109   20.7253 C.3     1  UNL1        0.0201
     16 C          -2.1496  -18.1144   21.9644 C.3     1  UNL1        0.0858
     17 N          -3.5587  -17.8317   21.5347 N.3     1  UNL1       -0.2974
     18 H          -3.5101  -17.0917   20.8344 H       1  UNL1        0.1232
     19 N          -9.5888  -15.9470   23.5416 N.pl3   1  UNL1       -0.1992
     20 H         -10.2995  -15.7252   24.1859 H       1  UNL1        0.2985
     21 C          -8.2221  -15.3490   23.6973 C.2     1  UNL1        0.3224
     22 N          -7.5766  -14.6422   22.5424 N.2     1  UNL1       -0.0985
     23 H          -8.0501  -14.5709   21.6821 H       1  UNL1        0.3633
     24 C          -7.5006  -15.4578   25.0080 C.ar    1  UNL1        0.1114
     25 C          -6.0189  -15.3421   25.2110 C.ar    1  UNL1        0.0144
     26 C          -5.7368  -15.5141   26.6742 C.ar    1  UNL1        0.0077
     27 C          -7.0442  -15.7361   27.3754 C.ar    1  UNL1        0.0357
     28 S          -8.1342  -15.7013   26.3456 S.2     1  UNL1       -0.0792
@<TRIPOS>BOND
     1    16    17    1
     2    17    10    1
     3    10    11    1
     4    11    12    1
     5    12    13    1
     6    13    14    1
     7    14     1    1
     8     1     2    2
     9     2     3    1
    10     3     4    2
    11     4     5    1
    12     5     6    1
    13     6     7    2
    14     7    19    1
    15    19    21    1
    16    21    22    2
    17    21    24    1
    18    24    25   ar
    19    25    26   ar
    20    26    27   ar
    21    27    28   ar
    22     7     8    1
    23     8     9    2
    24    14    15    1
    25    15    10    1
    26     9     1    1
    27     9     4    1
    28    28    24   ar
    29    17    18    1
    30    19    20    1
    31    22    23    1
@<TRIPOS>MOLECULE
*****
 28 31 0 0 0
SMALL
GASTEIGER

@<TRIPOS>ATOM
      1 C          -5.6352  -19.8515   20.6951 C.2     1  UNL1       -0.0021
      2 C          -5.4642  -21.1413   19.9486 C.2     1  UNL1        0.0942
      3 N          -6.7821  -21.4944   19.3256 N.2     1  UNL1       -0.2482
      4 C          -7.7677  -20.4230   19.6870 C.2     1  UNL1        0.0633
      5 C          -9.2190  -20.2407   19.3547 C.3     1  UNL1        0.0753
      6 C          -9.9614  -19.0431   19.8688 C.2     1  UNL1        0.0203
      7 C          -9.2526  -18.0277   20.7153 C.2     1  UNL1        0.1317
      8 C          -7.8013  -18.2099   21.0476 C.2     1  UNL1        0.0407
      9 C          -7.0588  -19.4075   20.5334 C.2     1  UNL1        0.0148
     10 C          -2.0892  -18.4089   21.7418 C.3     1  UNL1        0.0543
     11 C          -2.4384  -17.6929   23.0128 C.3     1  UNL1        0.0157
     12 C          -3.8532  -17.6965   23.5112 C.3     1  UNL1        0.0017
     13 C          -4.9188  -18.4160   22.7386 C.3     1  UNL1        0.0045
     14 C          -4.5696  -19.1320   21.4677 C.3     1  UNL1        0.0252
     15 C          -3.1548  -19.1284   20.9692 C.3     1  UNL1        0.0201
     16 C          -0.3286  -17.6853   19.9737 C.3     1  UNL1        0.0858
     17 N          -0.6745  -18.4053   21.2433 N.3     1  UNL1       -0.2974
     18 H          -0.1035  -17.9926   21.9809 H       1  UNL1        0.1232
     19 N          -9.9951  -16.8300   21.2294 N.pl3   1  UNL1       -0.1992
     20 H          -9.5099  -15.9952   21.4216 H       1  UNL1        0.2985
     21 C         -11.4768  -16.9043   21.4508 C.2     1  UNL1        0.3224
     22 N         -12.4169  -16.3288   20.4334 N.2     1  UNL1       -0.0985
     23 H         -12.0614  -15.9023   19.6204 H       1  UNL1        0.3633
     24 C         -12.0184  -17.5541   22.6895 C.ar    1  UNL1        0.1114
     25 C         -13.4375  -17.4882   23.1711 C.ar    1  UNL1        0.0144
     26 C         -13.5323  -18.2772   24.4434 C.ar    1  UNL1        0.0077
     27 C         -12.1717  -18.8306   24.7480 C.ar    1  UNL1        0.0357
     28 S         -11.2361  -18.3836   23.6641 S.2     1  UNL1       -0.0792
@<TRIPOS>BOND
     1    16    17    1
     2    17    10    1
     3    10    11    1
     4    11    12    1
     5    12    13    1
     6    13    14    1
     7    14     1    1
     8     1     2    2
     9     2     3    1
    10     3     4    2
    11     4     5    1
    12     5     6    1
    13     6     7    2
    14     7    19    1
    15    19    21    1
    16    21    22    2
    17    21    24    1
    18    24    25   ar
    19    25    26   ar
    20    26    27   ar
    21    27    28   ar
    22     7     8    1
    23     8     9    2
    24    14    15    1
    25    15    10    1
    26     9     1    1
    27     9     4    1
    28    28    24   ar
    29    17    18    1
    30    19    20    1
    31    22    23    1
@<TRIPOS>MOLECULE
*****
 28 31 0 0 0
SMALL
GASTEIGER

@<TRIPOS>ATOM
      1 C          -4.0494  -17.4527   23.2268 C.2     1  UNL1       -0.0021
      2 C          -2.5543  -17.3312   23.2181 C.2     1  UNL1        0.0942
      3 N          -2.0166  -18.3000   22.2070 N.2     1  UNL1       -0.2482
      4 C          -3.1792  -19.0202   21.5909 C.2     1  UNL1        0.0633
      5 C          -3.2562  -20.0852   20.5375 C.3     1  UNL1        0.0753
      6 C          -4.5895  -20.6265   20.1143 C.2     1  UNL1        0.0203
      7 C          -5.8459  -20.1028   20.7446 C.2     1  UNL1        0.1317
      8 C          -5.7689  -19.0378   21.7980 C.2     1  UNL1        0.0407
      9 C          -4.4356  -18.4965   22.2212 C.2     1  UNL1        0.0148
     10 C          -7.3035  -15.5345   24.4442 C.3     1  UNL1        0.0543
     11 C          -6.8793  -15.0987   25.8154 C.3     1  UNL1        0.0157
     12 C          -5.5119  -15.4476   26.3237 C.3     1  UNL1        0.0017
     13 C          -4.5686  -16.2322   25.4608 C.3     1  UNL1        0.0045
     14 C          -4.9927  -16.6680   24.0897 C.3     1  UNL1        0.0252
     15 C          -6.3602  -16.3191   23.5813 C.3     1  UNL1        0.0201
     16 C          -9.5906  -16.2683   23.4541 C.3     1  UNL1        0.0858
     17 N          -8.6709  -15.1857   23.9358 N.3     1  UNL1       -0.2974
     18 H          -9.1537  -14.7053   24.6951 H       1  UNL1        0.1232
     19 N          -7.1793  -20.6441   20.3213 N.pl3   1  UNL1       -0.1992
     20 H          -7.2567  -21.5754   20.0114 H       1  UNL1        0.2985
     21 C          -8.3948  -19.7666   20.3702 C.2     1  UNL1        0.3224
     22 N          -8.7394  -18.8966   19.1979 N.2     1  UNL1       -0.0985
     23 H          -8.1678  -18.9015   18.3964 H       1  UNL1        0.3633
     24 C          -9.2658  -19.7591   21.5914 C.ar    1  UNL1        0.1114
     25 C          -8.8175  -20.0365   22.9957 C.ar    1  UNL1        0.0144
     26 C         -10.0127  -19.9217   23.8950 C.ar    1  UNL1        0.0077
     27 C         -11.1995  -19.5733   23.0464 C.ar    1  UNL1        0.0357
     28 S         -10.7379  -19.4728   21.6227 S.2     1  UNL1       -0.0792
@<TRIPOS>BOND
     1    16    17    1
     2    17    10    1
     3    10    11    1
     4    11    12    1
     5    12    13    1
     6    13    14    1
     7    14     1    1
     8     1     2    2
     9     2     3    1
    10     3     4    2
    11     4     5    1
    12     5     6    1
    13     6     7    2
    14     7    19    1
    15    19    21    1
    16    21    22    2
    17    21    24    1
    18    24    25   ar
    19    25    26   ar
    20    26    27   ar
    21    27    28   ar
    22     7     8    1
    23     8     9    2
    24    14    15    1
    25    15    10    1
    26     9     1    1
    27     9     4    1
    28    28    24   ar
    29    17    18    1
    30    19    20    1
    31    22    23    1
@<TRIPOS>MOLECULE
*****
 28 31 0 0 0
SMALL
GASTEIGER

@<TRIPOS>ATOM
      1 C          -5.4664  -19.7454   20.7298 C.2     1  UNL1       -0.0021
      2 C          -5.2845  -21.0159   19.9535 C.2     1  UNL1        0.0942
      3 N          -6.6096  -21.3887   19.3576 N.2     1  UNL1       -0.2482
      4 C          -7.6105  -20.3486   19.7656 C.2     1  UNL1        0.0633
      5 C          -9.0739  -20.1952   19.4745 C.3     1  UNL1        0.0753
      6 C          -9.8308  -19.0261   20.0315 C.2     1  UNL1        0.0203
      7 C          -9.1242  -18.0104   20.8796 C.2     1  UNL1        0.1317
      8 C          -7.6608  -18.1639   21.1707 C.2     1  UNL1        0.0407
      9 C          -6.9039  -19.3330   20.6137 C.2     1  UNL1        0.0148
     10 C          -2.0379  -17.9328   21.5728 C.3     1  UNL1        0.0543
     11 C          -2.2620  -17.5554   23.0072 C.3     1  UNL1        0.0157
     12 C          -3.5542  -17.9079   23.6823 C.3     1  UNL1        0.0017
     13 C          -4.6223  -18.6379   22.9232 C.3     1  UNL1        0.0045
     14 C          -4.3983  -19.0154   21.4889 C.3     1  UNL1        0.0252
     15 C          -3.1060  -18.6628   20.8137 C.3     1  UNL1        0.0201
     16 C          -0.4563  -18.0930   19.5180 C.3     1  UNL1        0.0858
     17 N          -0.7458  -17.5803   20.8976 N.3     1  UNL1       -0.2974
     18 H          -0.7079  -16.5622   20.8473 H       1  UNL1        0.1232
     19 N          -9.8812  -16.8413   21.4366 N.pl3   1  UNL1       -0.1992
     20 H         -10.2227  -16.1430   20.8324 H       1  UNL1        0.2985
     21 C         -10.1177  -16.7360   22.9140 C.2     1  UNL1        0.3224
     22 N         -11.4313  -17.1675   23.4959 N.2     1  UNL1       -0.0985
     23 H         -12.1381  -17.5197   22.9081 H       1  UNL1        0.3633
     24 C          -9.0408  -16.1994   23.8097 C.ar    1  UNL1        0.1114
     25 C          -8.9303  -16.4250   25.2886 C.ar    1  UNL1        0.0144
     26 C          -7.7065  -15.7079   25.7767 C.ar    1  UNL1        0.0077
     27 C          -7.0606  -15.0392   24.5995 C.ar    1  UNL1        0.0357
     28 S          -7.8853  -15.3430   23.3839 S.2     1  UNL1       -0.0792
@<TRIPOS>BOND
     1    16    17    1
     2    17    10    1
     3    10    11    1
     4    11    12    1
     5    12    13    1
     6    13    14    1
     7    14     1    1
     8     1     2    2
     9     2     3    1
    10     3     4    2
    11     4     5    1
    12     5     6    1
    13     6     7    2
    14     7    19    1
    15    19    21    1
    16    21    22    2
    17    21    24    1
    18    24    25   ar
    19    25    26   ar
    20    26    27   ar
    21    27    28   ar
    22     7     8    1
    23     8     9    2
    24    14    15    1
    25    15    10    1
    26     9     1    1
    27     9     4    1
    28    28    24   ar
    29    17    18    1
    30    19    20    1
    31    22    23    1
@<TRIPOS>MOLECULE
*****
 28 31 0 0 0
SMALL
GASTEIGER

@<TRIPOS>ATOM
      1 C         -15.5134   -3.0319   18.8369 C.2     1  UNL1       -0.0021
      2 C         -16.3934   -1.8314   18.6514 C.2     1  UNL1        0.0942
      3 N         -15.5101   -0.6337   18.4640 N.2     1  UNL1       -0.2482
      4 C         -14.0841   -1.0940   18.5336 C.2     1  UNL1        0.0633
      5 C         -12.7841   -0.3549   18.4170 C.3     1  UNL1        0.0753
      6 C         -11.4861   -1.0980   18.5307 C.2     1  UNL1        0.0203
      7 C         -11.4882   -2.5802   18.7612 C.2     1  UNL1        0.1317
      8 C         -12.7882   -3.3193   18.8779 C.2     1  UNL1        0.0407
      9 C         -14.0862   -2.5761   18.7641 C.2     1  UNL1        0.0148
     10 C         -15.4693   -6.9856   19.1789 C.3     1  UNL1        0.0543
     11 C         -16.9097   -7.2588   19.4959 C.3     1  UNL1        0.0157
     12 C         -17.8847   -6.1230   19.5933 C.3     1  UNL1        0.0017
     13 C         -17.4192   -4.7141   19.3736 C.3     1  UNL1        0.0045
     14 C         -15.9789   -4.4408   19.0566 C.3     1  UNL1        0.0252
     15 C         -15.0038   -5.5767   18.9592 C.3     1  UNL1        0.0201
     16 C         -14.7451   -9.2447   18.1198 C.3     1  UNL1        0.0858
     17 N         -14.4943   -8.1213   19.0816 N.3     1  UNL1       -0.2974
     18 H         -13.5929   -7.7148   18.8311 H       1  UNL1        0.1232
     19 N         -10.1901   -3.3233   18.8749 N.pl3   1  UNL1       -0.1992
     20 H          -9.6495   -3.2472   19.6942 H       1  UNL1        0.2985
     21 C          -9.7159   -4.1825   17.7406 C.2     1  UNL1        0.3224
     22 N          -8.8705   -3.5891   16.6528 N.2     1  UNL1       -0.0985
     23 H          -8.6269   -2.6357   16.6835 H       1  UNL1        0.3633
     24 C         -10.0870   -5.6352   17.6939 C.ar    1  UNL1        0.1114
     25 C          -9.4884   -6.7254   18.5324 C.ar    1  UNL1        0.0144
     26 C         -10.1533   -8.0167   18.1573 C.ar    1  UNL1        0.0077
     27 C         -11.1628   -7.7244   17.0869 C.ar    1  UNL1        0.0357
     28 S         -11.1218   -6.2525   16.8006 S.2     1  UNL1       -0.0792
@<TRIPOS>BOND
     1    16    17    1
     2    17    10    1
     3    10    11    1
     4    11    12    1
     5    12    13    1
     6    13    14    1
     7    14     1    1
     8     1     2    2
     9     2     3    1
    10     3     4    2
    11     4     5    1
    12     5     6    1
    13     6     7    2
    14     7    19    1
    15    19    21    1
    16    21    22    2
    17    21    24    1
    18    24    25   ar
    19    25    26   ar
    20    26    27   ar
    21    27    28   ar
    22     7     8    1
    23     8     9    2
    24    14    15    1
    25    15    10    1
    26     9     1    1
    27     9     4    1
    28    28    24   ar
    29    17    18    1
    30    19    20    1
    31    22    23    1
