@<TRIPOS>MOLECULE
*****
 34 38 0 0 0
SMALL
GASTEIGER

@<TRIPOS>ATOM
      1 C           0.8433    2.9301   19.0286 C.ar    1  UNL1        0.0604
      2 C          -0.1577    3.2775   17.9667 C.ar    1  UNL1        0.0454
      3 C          -1.5126    3.7923   18.3529 C.ar    1  UNL1        0.1850
      4 N          -2.6968    4.2139   17.5345 N.ar    1  UNL1       -0.1270
      5 N          -3.7826    4.6420   18.4767 N.ar    1  UNL1       -0.1269
      6 C          -3.2695    4.4850   19.8774 C.ar    1  UNL1        0.1878
      7 N          -1.8665    3.9598   19.8009 N.ar    1  UNL1       -0.2083
      8 N          -0.8656    3.6125   20.8627 N.ar    1  UNL1       -0.2278
      9 C          -1.2195    3.7800   22.3107 C.3     1  UNL1        0.1555
     10 C           0.4893    3.0976   20.4765 C.ar    1  UNL1        0.2753
     11 O           1.4903    2.7503   21.5384 O.2     1  UNL1       -0.2656
     12 C           3.0505    4.8555   18.3798 C.3     1  UNL1        0.0334
     13 C           3.3019    3.3780   18.3180 C.ar    1  UNL1        0.0058
     14 C           4.6568    2.8631   17.9318 C.ar    1  UNL1        0.1363
     15 F           5.7604    3.8259   17.6074 F       1  UNL1       -0.2045
     16 C           4.9080    1.3856   17.8699 C.ar    1  UNL1        0.0338
     17 C           3.8044    0.4229   18.1943 C.ar    1  UNL1        0.0556
     18 C           2.4495    0.9378   18.5805 C.ar    1  UNL1        0.0045
     19 C           2.1983    2.4153   18.6423 C.ar    1  UNL1        0.0031
     20 C           4.0557   -1.0546   18.1325 C.2     1  UNL1        0.2459
     21 O           4.8634   -1.6315   17.0078 O.2     1  UNL1       -0.2701
     22 N           3.4993   -1.9551   19.1953 N.am    1  UNL1       -0.3025
     23 H           2.9692   -1.5764   19.9335 H       1  UNL1        0.1497
     24 C           3.7506   -3.4326   19.1334 C.3     1  UNL1        0.0720
     25 C           3.2723   -4.8410   19.3275 C.3     1  UNL1        0.0213
     26 C           4.6644   -4.5833   18.8321 C.3     1  UNL1        0.0213
     27 C          -4.0265    4.7981   21.1340 C.ar    1  UNL1        0.0755
     28 C          -4.8220    3.7256   21.8173 C.ar    1  UNL1        0.1439
     29 F          -4.8606    2.3400   21.2440 F       1  UNL1       -0.2040
     30 C          -5.5790    4.0387   23.0739 C.ar    1  UNL1        0.0298
     31 C          -5.5404    5.4242   23.6471 C.ar    1  UNL1        0.0032
     32 C          -4.7448    6.4967   22.9638 C.ar    1  UNL1        0.0116
     33 C          -3.9879    6.1837   21.7073 C.ar    1  UNL1        0.0628
     34 CL         -3.1923    7.2562   21.0240 Cl      1  UNL1       -0.0821
@<TRIPOS>BOND
     1    12    13    1
     2    13    14   ar
     3    14    15    1
     4    14    16   ar
     5    16    17   ar
     6    17    20    1
     7    20    21    2
     8    20    22   am
     9    22    24    1
    10    24    25    1
    11    25    26    1
    12    17    18   ar
    13    18    19   ar
    14    19     1    1
    15     1     2   ar
    16     2     3   ar
    17     3     4   ar
    18     4     5   ar
    19     5     6   ar
    20     6    27    1
    21    27    28   ar
    22    28    29    1
    23    28    30   ar
    24    30    31   ar
    25    31    32   ar
    26    32    33   ar
    27    33    34    1
    28     6     7   ar
    29     7     8   ar
    30     8     9    1
    31     8    10   ar
    32    10    11    2
    33    19    13   ar
    34    10     1   ar
    35    26    24    1
    36     7     3   ar
    37    33    27   ar
    38    22    23    1
@<TRIPOS>MOLECULE
*****
 34 38 0 0 0
SMALL
GASTEIGER

@<TRIPOS>ATOM
      1 C           0.9082    2.7036   20.1264 C.ar    1  UNL1        0.0604
      2 C           0.9009    2.7772   21.6246 C.ar    1  UNL1        0.0454
      3 C          -0.3281    3.2447   22.3465 C.ar    1  UNL1        0.1850
      4 N          -0.6294    3.4201   23.8054 N.ar    1  UNL1       -0.1270
      5 N          -2.0373    3.9224   23.9307 N.ar    1  UNL1       -0.1269
      6 C          -2.6060    4.0573   22.5493 C.ar    1  UNL1        0.1878
      7 N          -1.5497    3.6385   21.5702 N.ar    1  UNL1       -0.2083
      8 N          -1.5423    3.5648   20.0720 N.ar    1  UNL1       -0.2278
      9 C          -2.7639    3.9586   19.2957 C.3     1  UNL1        0.1555
     10 C          -0.3133    3.0974   19.3501 C.ar    1  UNL1        0.2753
     11 O          -0.3060    3.0237   17.8519 O.2     1  UNL1       -0.2656
     12 C           2.8375    4.7048   18.9982 C.3     1  UNL1        0.0334
     13 C           3.1019    3.2367   18.8404 C.ar    1  UNL1        0.0058
     14 C           4.3308    2.7692   18.1185 C.ar    1  UNL1        0.1363
     15 F           5.2955    3.7699   17.5544 F       1  UNL1       -0.2045
     16 C           4.5951    1.3011   17.9607 C.ar    1  UNL1        0.0338
     17 C           3.6305    0.3005   18.5248 C.ar    1  UNL1        0.0556
     18 C           2.4015    0.7680   19.2467 C.ar    1  UNL1        0.0045
     19 C           2.1372    2.2361   19.4045 C.ar    1  UNL1        0.0031
     20 C           3.8948   -1.1676   18.3670 C.2     1  UNL1        0.2459
     21 O           4.5797   -1.6780   17.1340 O.2     1  UNL1       -0.2701
     22 N           3.4742   -2.1252   19.4423 N.am    1  UNL1       -0.3025
     23 H           3.0246   -1.7901   20.2515 H       1  UNL1        0.1497
     24 C           3.7385   -3.5933   19.2844 C.3     1  UNL1        0.0720
     25 C           4.5958   -4.7107   18.7683 C.3     1  UNL1        0.0213
     26 C           3.3390   -5.0185   19.5271 C.3     1  UNL1        0.0213
     27 C          -3.9884    4.5284   22.2071 C.ar    1  UNL1        0.0755
     28 C          -5.1632    3.6190   22.4138 C.ar    1  UNL1        0.1439
     29 F          -4.9557    2.2385   22.9626 F       1  UNL1       -0.2040
     30 C          -6.5457    4.0900   22.0716 C.ar    1  UNL1        0.0298
     31 C          -6.7533    5.4704   21.5228 C.ar    1  UNL1        0.0032
     32 C          -5.5784    6.3799   21.3162 C.ar    1  UNL1        0.0116
     33 C          -4.1960    5.9089   21.6583 C.ar    1  UNL1        0.0628
     34 CL         -3.0212    6.8183   21.4516 Cl      1  UNL1       -0.0821
@<TRIPOS>BOND
     1    12    13    1
     2    13    14   ar
     3    14    15    1
     4    14    16   ar
     5    16    17   ar
     6    17    20    1
     7    20    21    2
     8    20    22   am
     9    22    24    1
    10    24    25    1
    11    25    26    1
    12    17    18   ar
    13    18    19   ar
    14    19     1    1
    15     1     2   ar
    16     2     3   ar
    17     3     4   ar
    18     4     5   ar
    19     5     6   ar
    20     6    27    1
    21    27    28   ar
    22    28    29    1
    23    28    30   ar
    24    30    31   ar
    25    31    32   ar
    26    32    33   ar
    27    33    34    1
    28     6     7   ar
    29     7     8   ar
    30     8     9    1
    31     8    10   ar
    32    10    11    2
    33    19    13   ar
    34    10     1   ar
    35    26    24    1
    36     7     3   ar
    37    33    27   ar
    38    22    23    1
@<TRIPOS>MOLECULE
*****
 34 38 0 0 0
SMALL
GASTEIGER

@<TRIPOS>ATOM
      1 C           0.6373    2.8184   19.9539 C.ar    1  UNL1        0.0604
      2 C          -0.5640    3.1681   19.1264 C.ar    1  UNL1        0.0454
      3 C          -1.8279    3.6229   19.7940 C.ar    1  UNL1        0.1850
      4 N          -3.1622    4.0322   19.2443 N.ar    1  UNL1       -0.1270
      5 N          -4.0494    4.3902   20.3995 N.ar    1  UNL1       -0.1269
      6 C          -3.2635    4.2021   21.6633 C.ar    1  UNL1        0.1878
      7 N          -1.8905    3.7279   21.2890 N.ar    1  UNL1       -0.2083
      8 N          -0.6892    3.3781   22.1164 N.ar    1  UNL1       -0.2278
      9 C          -0.7518    3.4832   23.6114 C.3     1  UNL1        0.1555
     10 C           0.5747    2.9234   21.4488 C.ar    1  UNL1        0.2753
     11 O           1.7760    2.5736   22.2763 O.2     1  UNL1       -0.2656
     12 C           2.6216    4.8389   18.9639 C.3     1  UNL1        0.0334
     13 C           2.8934    3.3738   18.7912 C.ar    1  UNL1        0.0058
     14 C           4.1573    2.9190   18.1236 C.ar    1  UNL1        0.1363
     15 F           5.1494    3.9294   17.6286 F       1  UNL1       -0.2045
     16 C           4.4290    1.4540   17.9510 C.ar    1  UNL1        0.0338
     17 C           3.4369    0.4437   18.4460 C.ar    1  UNL1        0.0556
     18 C           2.1730    0.8985   19.1136 C.ar    1  UNL1        0.0045
     19 C           1.9013    2.3635   19.2862 C.ar    1  UNL1        0.0031
     20 C           3.7087   -1.0213   18.2734 C.2     1  UNL1        0.2459
     21 O           4.2237   -1.5393   16.9631 O.2     1  UNL1       -0.2701
     22 N           3.4654   -1.9684   19.4108 N.am    1  UNL1       -0.3025
     23 H           3.1274   -1.6285   20.2707 H       1  UNL1        0.1497
     24 C           3.7372   -3.4335   19.2381 C.3     1  UNL1        0.0720
     25 C           3.2721   -4.8579   19.3067 C.3     1  UNL1        0.0213
     26 C           4.6731   -4.5465   18.8703 C.3     1  UNL1        0.0213
     27 C          -3.7629    4.4455   23.0566 C.ar    1  UNL1        0.0755
     28 C          -4.6092    3.4134   23.7409 C.ar    1  UNL1        0.1439
     29 F          -4.9562    2.1378   23.0320 F       1  UNL1       -0.2040
     30 C          -5.1087    3.6568   25.1343 C.ar    1  UNL1        0.0298
     31 C          -4.7618    4.9323   25.8432 C.ar    1  UNL1        0.0032
     32 C          -3.9154    5.9645   25.1588 C.ar    1  UNL1        0.0116
     33 C          -3.4160    5.7211   23.7655 C.ar    1  UNL1        0.0628
     34 CL         -2.5696    6.7533   23.0812 Cl      1  UNL1       -0.0821
@<TRIPOS>BOND
     1    12    13    1
     2    13    14   ar
     3    14    15    1
     4    14    16   ar
     5    16    17   ar
     6    17    20    1
     7    20    21    2
     8    20    22   am
     9    22    24    1
    10    24    25    1
    11    25    26    1
    12    17    18   ar
    13    18    19   ar
    14    19     1    1
    15     1     2   ar
    16     2     3   ar
    17     3     4   ar
    18     4     5   ar
    19     5     6   ar
    20     6    27    1
    21    27    28   ar
    22    28    29    1
    23    28    30   ar
    24    30    31   ar
    25    31    32   ar
    26    32    33   ar
    27    33    34    1
    28     6     7   ar
    29     7     8   ar
    30     8     9    1
    31     8    10   ar
    32    10    11    2
    33    19    13   ar
    34    10     1   ar
    35    26    24    1
    36     7     3   ar
    37    33    27   ar
    38    22    23    1
@<TRIPOS>MOLECULE
*****
 34 38 0 0 0
SMALL
GASTEIGER

@<TRIPOS>ATOM
      1 C           5.2289   -1.4910   24.8041 C.ar    1  UNL1        0.0604
      2 C           5.4487   -2.8681   24.2513 C.ar    1  UNL1        0.0454
      3 C           5.5889   -3.0686   22.7714 C.ar    1  UNL1        0.1850
      4 N           5.8112   -4.2983   21.9418 N.ar    1  UNL1       -0.1270
      5 N           5.8690   -3.8819   20.5019 N.ar    1  UNL1       -0.1269
      6 C           5.6826   -2.3947   20.4417 C.ar    1  UNL1        0.1878
      7 N           5.5095   -1.8921   21.8443 N.ar    1  UNL1       -0.2083
      8 N           5.2897   -0.5151   22.3971 N.ar    1  UNL1       -0.2278
      9 C           5.2102    0.6614   21.4700 C.3     1  UNL1        0.1555
     10 C           5.1494   -0.3146   23.8770 C.ar    1  UNL1        0.2753
     11 O           4.9297    1.0625   24.4298 O.2     1  UNL1       -0.2656
     12 C           7.6620   -1.5189   26.5588 C.3     1  UNL1        0.0334
     13 C           6.3052   -1.3044   27.1614 C.ar    1  UNL1        0.0058
     14 C           6.1649   -1.1039   28.6413 C.ar    1  UNL1        0.1363
     15 F           7.3815   -1.1179   29.5187 F       1  UNL1       -0.2045
     16 C           4.8080   -0.8895   29.2438 C.ar    1  UNL1        0.0338
     17 C           3.5915   -0.8756   28.3665 C.ar    1  UNL1        0.0556
     18 C           3.7318   -1.0761   26.8866 C.ar    1  UNL1        0.0045
     19 C           5.0886   -1.2905   26.2840 C.ar    1  UNL1        0.0031
     20 C           2.2346   -0.6612   28.9690 C.2     1  UNL1        0.2459
     21 O           2.0570   -0.7214   30.4573 O.2     1  UNL1       -0.2701
     22 N           1.0556   -0.3866   28.0833 N.am    1  UNL1       -0.3025
     23 H           1.1723   -0.3471   27.1065 H       1  UNL1        0.1497
     24 C          -0.3012   -0.1722   28.6859 C.3     1  UNL1        0.0720
     25 C          -1.2824    0.7132   29.3953 C.3     1  UNL1        0.0213
     26 C          -1.6701   -0.6865   29.0202 C.3     1  UNL1        0.0213
     27 C           5.6712   -1.5573   19.1973 C.ar    1  UNL1        0.0755
     28 C           4.3904   -1.3494   18.4448 C.ar    1  UNL1        0.1439
     29 F           3.1209   -1.9790   18.9368 F       1  UNL1       -0.2040
     30 C           4.3790   -0.5119   17.2003 C.ar    1  UNL1        0.0298
     31 C           5.6484    0.1176   16.7084 C.ar    1  UNL1        0.0032
     32 C           6.9293   -0.0903   17.4609 C.ar    1  UNL1        0.0116
     33 C           6.9407   -0.9277   18.7053 C.ar    1  UNL1        0.0628
     34 CL          8.2216   -1.1355   19.4577 Cl      1  UNL1       -0.0821
@<TRIPOS>BOND
     1    12    13    1
     2    13    14   ar
     3    14    15    1
     4    14    16   ar
     5    16    17   ar
     6    17    20    1
     7    20    21    2
     8    20    22   am
     9    22    24    1
    10    24    25    1
    11    25    26    1
    12    17    18   ar
    13    18    19   ar
    14    19     1    1
    15     1     2   ar
    16     2     3   ar
    17     3     4   ar
    18     4     5   ar
    19     5     6   ar
    20     6    27    1
    21    27    28   ar
    22    28    29    1
    23    28    30   ar
    24    30    31   ar
    25    31    32   ar
    26    32    33   ar
    27    33    34    1
    28     6     7   ar
    29     7     8   ar
    30     8     9    1
    31     8    10   ar
    32    10    11    2
    33    19    13   ar
    34    10     1   ar
    35    26    24    1
    36     7     3   ar
    37    33    27   ar
    38    22    23    1
@<TRIPOS>MOLECULE
*****
 34 38 0 0 0
SMALL
GASTEIGER

@<TRIPOS>ATOM
      1 C           2.6191    1.5373   19.0656 C.ar    1  UNL1        0.0604
      2 C           2.8856    0.6251   17.9050 C.ar    1  UNL1        0.0454
      3 C           3.8656   -0.5017   18.0465 C.ar    1  UNL1        0.1850
      4 N           4.3296   -1.5550   17.0847 N.ar    1  UNL1       -0.1270
      5 N           5.3298   -2.4205   17.7922 N.ar    1  UNL1       -0.1269
      6 C           5.4839   -1.9021   19.1913 C.ar    1  UNL1        0.1878
      7 N           4.5790   -0.7162   19.3485 N.ar    1  UNL1       -0.2083
      8 N           4.3124    0.1961   20.5089 N.ar    1  UNL1       -0.2278
      9 C           5.0258   -0.0184   21.8109 C.3     1  UNL1        0.1555
     10 C           3.3324    1.3228   20.3674 C.ar    1  UNL1        0.2753
     11 O           3.0659    2.2351   21.5280 O.2     1  UNL1       -0.2656
     12 C           3.5138    4.1712   17.9422 C.3     1  UNL1        0.0334
     13 C           2.0864    3.9811   18.3624 C.ar    1  UNL1        0.0058
     14 C           1.1064    5.1079   18.2209 C.ar    1  UNL1        0.1363
     15 F           1.5539    6.4249   17.6592 F       1  UNL1       -0.2045
     16 C          -0.3209    4.9177   18.6411 C.ar    1  UNL1        0.0338
     17 C          -0.7682    3.6008   19.2028 C.ar    1  UNL1        0.0556
     18 C           0.2117    2.4740   19.3443 C.ar    1  UNL1        0.0045
     19 C           1.6391    2.6642   18.9241 C.ar    1  UNL1        0.0031
     20 C          -2.1956    3.4106   19.6230 C.2     1  UNL1        0.2459
     21 O          -2.5111    2.7087   20.9106 O.2     1  UNL1       -0.2701
     22 N          -3.3073    3.9223   18.7557 N.am    1  UNL1       -0.3025
     23 H          -3.1002    4.3829   17.9106 H       1  UNL1        0.1497
     24 C          -4.7346    3.7320   19.1760 C.3     1  UNL1        0.0720
     25 C          -5.8195    3.8903   20.1996 C.3     1  UNL1        0.0213
     26 C          -6.1219    3.2442   18.8801 C.3     1  UNL1        0.0213
     27 C           6.3848   -2.4700   20.2477 C.ar    1  UNL1        0.0755
     28 C           7.8255   -2.0566   20.3061 C.ar    1  UNL1        0.1439
     29 F           8.3653   -1.0753   19.3082 F       1  UNL1       -0.2040
     30 C           8.7264   -2.6244   21.3626 C.ar    1  UNL1        0.0298
     31 C           8.1866   -3.6055   22.3604 C.ar    1  UNL1        0.0032
     32 C           6.7458   -4.0189   22.3019 C.ar    1  UNL1        0.0116
     33 C           5.8449   -3.4512   21.2456 C.ar    1  UNL1        0.0628
     34 CL          4.4042   -3.8646   21.1871 Cl      1  UNL1       -0.0821
@<TRIPOS>BOND
     1    12    13    1
     2    13    14   ar
     3    14    15    1
     4    14    16   ar
     5    16    17   ar
     6    17    20    1
     7    20    21    2
     8    20    22   am
     9    22    24    1
    10    24    25    1
    11    25    26    1
    12    17    18   ar
    13    18    19   ar
    14    19     1    1
    15     1     2   ar
    16     2     3   ar
    17     3     4   ar
    18     4     5   ar
    19     5     6   ar
    20     6    27    1
    21    27    28   ar
    22    28    29    1
    23    28    30   ar
    24    30    31   ar
    25    31    32   ar
    26    32    33   ar
    27    33    34    1
    28     6     7   ar
    29     7     8   ar
    30     8     9    1
    31     8    10   ar
    32    10    11    2
    33    19    13   ar
    34    10     1   ar
    35    26    24    1
    36     7     3   ar
    37    33    27   ar
    38    22    23    1
@<TRIPOS>MOLECULE
*****
 34 38 0 0 0
SMALL
GASTEIGER

@<TRIPOS>ATOM
      1 C           6.7131   -3.6477   22.6773 C.ar    1  UNL1        0.0604
      2 C           5.3630   -3.9080   22.0775 C.ar    1  UNL1        0.0454
      3 C           4.8473   -3.0253   20.9799 C.ar    1  UNL1        0.1850
      4 N           3.5649   -3.0367   20.2018 N.ar    1  UNL1       -0.1270
      5 N           3.6067   -1.9008   19.2229 N.ar    1  UNL1       -0.1269
      6 C           4.9148   -1.1874   19.3961 C.ar    1  UNL1        0.1878
      7 N           5.6815   -1.8824   20.4820 N.ar    1  UNL1       -0.2083
      8 N           7.0315   -1.6222   21.0818 N.ar    1  UNL1       -0.2278
      9 C           7.8658   -0.4793   20.5839 C.3     1  UNL1        0.1555
     10 C           7.5473   -2.5049   22.1794 C.ar    1  UNL1        0.2753
     11 O           8.8974   -2.2447   22.7791 O.2     1  UNL1       -0.2656
     12 C           8.5033   -5.9644   22.0229 C.3     1  UNL1        0.0334
     13 C           8.1241   -5.6888   23.4478 C.ar    1  UNL1        0.0058
     14 C           8.6399   -6.5715   24.5454 C.ar    1  UNL1        0.1363
     15 F           9.5350   -7.7298   24.2181 F       1  UNL1       -0.2045
     16 C           8.2606   -6.2958   25.9702 C.ar    1  UNL1        0.0338
     17 C           7.3655   -5.1375   26.2974 C.ar    1  UNL1        0.0556
     18 C           6.8497   -4.2548   25.1998 C.ar    1  UNL1        0.0045
     19 C           7.2290   -4.5305   23.7750 C.ar    1  UNL1        0.0031
     20 C           6.9862   -4.8618   27.7223 C.2     1  UNL1        0.2459
     21 O           5.9570   -3.8164   28.0355 O.2     1  UNL1       -0.2701
     22 N           7.6360   -5.6315   28.8337 N.am    1  UNL1       -0.3025
     23 H           8.3114   -6.3176   28.6281 H       1  UNL1        0.1497
     24 C           7.2566   -5.3557   30.2586 C.3     1  UNL1        0.0720
     25 C           6.8809   -4.3846   31.3382 C.3     1  UNL1        0.0213
     26 C           6.9753   -5.8495   31.6467 C.3     1  UNL1        0.0213
     27 C           5.3752    0.0106   18.6198 C.ar    1  UNL1        0.0755
     28 C           6.3862   -0.1496   17.5233 C.ar    1  UNL1        0.1439
     29 F           6.9366   -1.5077   17.2031 F       1  UNL1       -0.2040
     30 C           6.8467    1.0484   16.7468 C.ar    1  UNL1        0.0298
     31 C           6.2963    2.4065   17.0669 C.ar    1  UNL1        0.0032
     32 C           5.2853    2.5666   18.1635 C.ar    1  UNL1        0.0116
     33 C           4.8248    1.3687   18.9399 C.ar    1  UNL1        0.0628
     34 CL          3.8138    1.5289   20.0364 Cl      1  UNL1       -0.0821
@<TRIPOS>BOND
     1    12    13    1
     2    13    14   ar
     3    14    15    1
     4    14    16   ar
     5    16    17   ar
     6    17    20    1
     7    20    21    2
     8    20    22   am
     9    22    24    1
    10    24    25    1
    11    25    26    1
    12    17    18   ar
    13    18    19   ar
    14    19     1    1
    15     1     2   ar
    16     2     3   ar
    17     3     4   ar
    18     4     5   ar
    19     5     6   ar
    20     6    27    1
    21    27    28   ar
    22    28    29    1
    23    28    30   ar
    24    30    31   ar
    25    31    32   ar
    26    32    33   ar
    27    33    34    1
    28     6     7   ar
    29     7     8   ar
    30     8     9    1
    31     8    10   ar
    32    10    11    2
    33    19    13   ar
    34    10     1   ar
    35    26    24    1
    36     7     3   ar
    37    33    27   ar
    38    22    23    1
@<TRIPOS>MOLECULE
*****
 34 38 0 0 0
SMALL
GASTEIGER

@<TRIPOS>ATOM
      1 C           0.4620    2.7996   19.5122 C.ar    1  UNL1        0.0604
      2 C           1.6184    3.5157   18.8797 C.ar    1  UNL1        0.0454
      3 C           2.9113    2.7920   18.6457 C.ar    1  UNL1        0.1850
      4 N           4.2140    3.2327   18.0467 N.ar    1  UNL1       -0.1270
      5 N           5.1556    2.0653   18.0750 N.ar    1  UNL1       -0.1269
      6 C           4.4348    0.9032   18.6915 C.ar    1  UNL1        0.1878
      7 N           3.0478    1.3523   19.0442 N.ar    1  UNL1       -0.2083
      8 N           1.8914    0.6364   19.6767 N.ar    1  UNL1       -0.2278
      9 C           2.0278   -0.8033   20.0753 C.3     1  UNL1        0.1555
     10 C           0.5985    1.3601   19.9107 C.ar    1  UNL1        0.2753
     11 O          -0.5579    0.6440   20.5433 O.2     1  UNL1       -0.2656
     12 C          -1.1801    3.7291   17.1800 C.3     1  UNL1        0.0334
     13 C          -1.6520    3.9880   18.5801 C.ar    1  UNL1        0.0058
     14 C          -2.9449    4.7117   18.8142 C.ar    1  UNL1        0.1363
     15 F          -3.7660    5.1764   17.6480 F       1  UNL1       -0.2045
     16 C          -3.4167    4.9706   20.2143 C.ar    1  UNL1        0.0338
     17 C          -2.5956    4.5059   21.3804 C.ar    1  UNL1        0.0556
     18 C          -1.3027    3.7823   21.1464 C.ar    1  UNL1        0.0045
     19 C          -0.8309    3.5233   19.7463 C.ar    1  UNL1        0.0031
     20 C          -3.0674    4.7649   22.7806 C.2     1  UNL1        0.2459
     21 O          -3.2600    6.1736   23.2585 O.2     1  UNL1       -0.2701
     22 N          -3.3465    3.6152   23.7026 N.am    1  UNL1       -0.3025
     23 H          -3.2200    2.6906   23.3889 H       1  UNL1        0.1497
     24 C          -3.8183    3.8742   25.1028 C.3     1  UNL1        0.0720
     25 C          -4.8942    4.3150   26.0504 C.3     1  UNL1        0.0213
     26 C          -3.5593    3.8820   26.5802 C.3     1  UNL1        0.0213
     27 C           5.0016   -0.4673   18.9159 C.ar    1  UNL1        0.0755
     28 C           4.7711   -1.5493   17.9030 C.ar    1  UNL1        0.1439
     29 F           3.9738   -1.2608   16.6656 F       1  UNL1       -0.2040
     30 C           5.3379   -2.9199   18.1274 C.ar    1  UNL1        0.0298
     31 C           6.1352   -3.2084   19.3646 C.ar    1  UNL1        0.0032
     32 C           6.3657   -2.1263   20.3776 C.ar    1  UNL1        0.0116
     33 C           5.7990   -0.7558   20.1533 C.ar    1  UNL1        0.0628
     34 CL          6.0295    0.3262   21.1662 Cl      1  UNL1       -0.0821
@<TRIPOS>BOND
     1    12    13    1
     2    13    14   ar
     3    14    15    1
     4    14    16   ar
     5    16    17   ar
     6    17    20    1
     7    20    21    2
     8    20    22   am
     9    22    24    1
    10    24    25    1
    11    25    26    1
    12    17    18   ar
    13    18    19   ar
    14    19     1    1
    15     1     2   ar
    16     2     3   ar
    17     3     4   ar
    18     4     5   ar
    19     5     6   ar
    20     6    27    1
    21    27    28   ar
    22    28    29    1
    23    28    30   ar
    24    30    31   ar
    25    31    32   ar
    26    32    33   ar
    27    33    34    1
    28     6     7   ar
    29     7     8   ar
    30     8     9    1
    31     8    10   ar
    32    10    11    2
    33    19    13   ar
    34    10     1   ar
    35    26    24    1
    36     7     3   ar
    37    33    27   ar
    38    22    23    1
@<TRIPOS>MOLECULE
*****
 34 38 0 0 0
SMALL
GASTEIGER

@<TRIPOS>ATOM
      1 C           6.5094    0.1589   33.2013 C.ar    1  UNL1        0.0604
      2 C           7.6674   -0.7172   33.5776 C.ar    1  UNL1        0.0454
      3 C           8.1104   -1.8126   32.6534 C.ar    1  UNL1        0.1850
      4 N           9.2104   -2.8273   32.7544 N.ar    1  UNL1       -0.1270
      5 N           9.1753   -3.6737   31.5165 N.ar    1  UNL1       -0.1269
      6 C           8.0535   -3.1820   30.6505 C.ar    1  UNL1        0.1878
      7 N           7.3954   -2.0318   31.3532 N.ar    1  UNL1       -0.2083
      8 N           6.2374   -1.1557   30.9770 N.ar    1  UNL1       -0.2278
      9 C           5.5224   -1.3749   29.6767 C.3     1  UNL1        0.1555
     10 C           5.7944   -0.0604   31.9011 C.ar    1  UNL1        0.2753
     11 O           4.6364    0.8157   31.5249 O.2     1  UNL1       -0.2656
     12 C           8.0325    2.7413   33.3053 C.3     1  UNL1        0.0334
     13 C           6.8279    2.5455   34.1775 C.ar    1  UNL1        0.0058
     14 C           6.3849    3.6408   35.1016 C.ar    1  UNL1        0.1363
     15 F           7.1466    4.9321   35.1535 F       1  UNL1       -0.2045
     16 C           5.1803    3.4449   35.9737 C.ar    1  UNL1        0.0338
     17 C           4.4187    2.1537   35.9217 C.ar    1  UNL1        0.0556
     18 C           4.8617    1.0584   34.9976 C.ar    1  UNL1        0.0045
     19 C           6.0663    1.2543   34.1255 C.ar    1  UNL1        0.0031
     20 C           3.2141    1.9578   36.7938 C.2     1  UNL1        0.2459
     21 O           1.9453    2.7012   36.4981 O.2     1  UNL1       -0.2701
     22 N           3.2784    1.0185   37.9616 N.am    1  UNL1       -0.3025
     23 H           4.1112    0.5306   38.1556 H       1  UNL1        0.1497
     24 C           2.0737    0.8226   38.8337 C.3     1  UNL1        0.0720
     25 C           1.1576   -0.0860   39.5986 C.3     1  UNL1        0.0213
     26 C           0.9034    1.3922   39.5792 C.3     1  UNL1        0.0213
     27 C           7.6592   -3.7423   29.3161 C.ar    1  UNL1        0.0755
     28 C           6.8517   -5.0042   29.2415 C.ar    1  UNL1        0.1439
     29 F           6.4385   -5.7058   30.5013 F       1  UNL1       -0.2040
     30 C           6.4573   -5.5645   27.9071 C.ar    1  UNL1        0.0298
     31 C           6.8705   -4.8629   26.6474 C.ar    1  UNL1        0.0032
     32 C           7.6781   -3.6010   26.7220 C.ar    1  UNL1        0.0116
     33 C           8.0724   -3.0407   28.0563 C.ar    1  UNL1        0.0628
     34 CL          8.8799   -1.7788   28.1309 Cl      1  UNL1       -0.0821
@<TRIPOS>BOND
     1    12    13    1
     2    13    14   ar
     3    14    15    1
     4    14    16   ar
     5    16    17   ar
     6    17    20    1
     7    20    21    2
     8    20    22   am
     9    22    24    1
    10    24    25    1
    11    25    26    1
    12    17    18   ar
    13    18    19   ar
    14    19     1    1
    15     1     2   ar
    16     2     3   ar
    17     3     4   ar
    18     4     5   ar
    19     5     6   ar
    20     6    27    1
    21    27    28   ar
    22    28    29    1
    23    28    30   ar
    24    30    31   ar
    25    31    32   ar
    26    32    33   ar
    27    33    34    1
    28     6     7   ar
    29     7     8   ar
    30     8     9    1
    31     8    10   ar
    32    10    11    2
    33    19    13   ar
    34    10     1   ar
    35    26    24    1
    36     7     3   ar
    37    33    27   ar
    38    22    23    1
@<TRIPOS>MOLECULE
*****
 34 38 0 0 0
SMALL
GASTEIGER

@<TRIPOS>ATOM
      1 C           1.5863    2.1204   22.6765 C.ar    1  UNL1        0.0604
      2 C           0.1243    2.3965   22.8673 C.ar    1  UNL1        0.0454
      3 C          -0.4227    2.6224   24.2456 C.ar    1  UNL1        0.1850
      4 N          -1.8085    2.9135   24.7402 N.ar    1  UNL1       -0.1270
      5 N          -1.7500    3.0432   26.2334 N.ar    1  UNL1       -0.1269
      6 C          -0.3280    2.8322   26.6617 C.ar    1  UNL1        0.1878
      7 N           0.4923    2.5721   25.4331 N.ar    1  UNL1       -0.2083
      8 N           1.9543    2.2960   25.2424 N.ar    1  UNL1       -0.2278
      9 C           2.8693    2.2457   26.4299 C.3     1  UNL1        0.1555
     10 C           2.5012    2.0702   23.8640 C.ar    1  UNL1        0.2753
     11 O           3.9633    1.7941   23.6733 O.2     1  UNL1       -0.2656
     12 C           1.9673    4.4419   20.8150 C.3     1  UNL1        0.0334
     13 C           2.3238    3.0553   20.3673 C.ar    1  UNL1        0.0058
     14 C           2.8708    2.8295   18.9890 C.ar    1  UNL1        0.1363
     15 F           3.0612    3.9903   18.0582 F       1  UNL1       -0.2045
     16 C           3.2273    1.4429   18.5415 C.ar    1  UNL1        0.0338
     17 C           3.0368    0.2821   19.4723 C.ar    1  UNL1        0.0556
     18 C           2.4898    0.5080   20.8506 C.ar    1  UNL1        0.0045
     19 C           2.1333    1.8946   21.2981 C.ar    1  UNL1        0.0031
     20 C           3.3933   -1.1045   19.0248 C.2     1  UNL1        0.2459
     21 O           3.7760   -1.3563   17.5964 O.2     1  UNL1       -0.2701
     22 N           3.3671   -2.2391   20.0055 N.am    1  UNL1       -0.3025
     23 H           3.1159   -2.0738   20.9430 H       1  UNL1        0.1497
     24 C           3.7236   -3.6257   19.5579 C.3     1  UNL1        0.0720
     25 C           3.4629   -5.1028   19.5724 C.3     1  UNL1        0.0213
     26 C           4.6020   -4.5501   18.7680 C.3     1  UNL1        0.0213
     27 C           0.1837    2.8740   28.0711 C.ar    1  UNL1        0.0755
     28 C           0.2400    1.6160   28.8861 C.ar    1  UNL1        0.1439
     29 F          -0.2155    0.3162   28.2918 F       1  UNL1       -0.2040
     30 C           0.7517    1.6577   30.2956 C.ar    1  UNL1        0.0298
     31 C           1.2072    2.9573   30.8899 C.ar    1  UNL1        0.0032
     32 C           1.1509    4.2154   30.0748 C.ar    1  UNL1        0.0116
     33 C           0.6392    4.1737   28.6654 C.ar    1  UNL1        0.0628
     34 CL          0.5829    5.4317   27.8504 Cl      1  UNL1       -0.0821
@<TRIPOS>BOND
     1    12    13    1
     2    13    14   ar
     3    14    15    1
     4    14    16   ar
     5    16    17   ar
     6    17    20    1
     7    20    21    2
     8    20    22   am
     9    22    24    1
    10    24    25    1
    11    25    26    1
    12    17    18   ar
    13    18    19   ar
    14    19     1    1
    15     1     2   ar
    16     2     3   ar
    17     3     4   ar
    18     4     5   ar
    19     5     6   ar
    20     6    27    1
    21    27    28   ar
    22    28    29    1
    23    28    30   ar
    24    30    31   ar
    25    31    32   ar
    26    32    33   ar
    27    33    34    1
    28     6     7   ar
    29     7     8   ar
    30     8     9    1
    31     8    10   ar
    32    10    11    2
    33    19    13   ar
    34    10     1   ar
    35    26    24    1
    36     7     3   ar
    37    33    27   ar
    38    22    23    1
