@<TRIPOS>MOLECULE
*****
 33 35 0 0 0
SMALL
GASTEIGER

@<TRIPOS>ATOM
      1 C           4.5136   -0.8844   19.3993 C.ar    1  UNL1        0.1508
      2 C           4.8300   -1.3609   18.0127 C.ar    1  UNL1        0.0778
      3 CL          3.9100   -1.0258   16.8763 Cl      1  UNL1       -0.0808
      4 C           6.0664   -2.1724   17.7623 C.ar    1  UNL1        0.0142
      5 C           6.9865   -2.5075   18.8986 C.ar    1  UNL1        0.0187
      6 C           6.6701   -2.0310   20.2853 C.ar    1  UNL1        0.0870
      7 C           5.4336   -1.2195   20.5356 C.ar    1  UNL1        0.1650
      8 O           5.1173   -0.7430   21.9224 O.3     1  UNL1       -0.5032
      9 H           5.6920   -0.9524   22.6322 H       1  UNL1        0.2923
     10 N           7.5901   -2.3661   21.4217 N.am    1  UNL1       -0.2656
     11 C           7.2763   -3.5218   22.3250 C.2     1  UNL1        0.3083
     12 O           6.0424   -4.3423   22.0919 O.2     1  UNL1       -0.2521
     13 N           8.1962   -3.8569   23.4613 N.am    1  UNL1       -0.2673
     14 H           8.3999   -1.8275   21.5746 H       1  UNL1        0.1565
     15 H           9.0060   -3.3183   23.6143 H       1  UNL1        0.1564
     16 C           7.8824   -5.0125   24.3646 C.ar    1  UNL1        0.0630
     17 C           8.3089   -6.3993   23.9840 C.ar    1  UNL1        0.0156
     18 C           7.9950   -7.5550   24.8873 C.ar    1  UNL1        0.0022
     19 C           7.2547   -7.3238   26.1712 C.ar    1  UNL1        0.0123
     20 C           6.8282   -5.9370   26.5519 C.ar    1  UNL1        0.0694
     21 CL          6.0879   -5.7059   27.8358 Cl      1  UNL1       -0.0813
     22 C           7.1421   -4.7813   25.6486 C.ar    1  UNL1        0.0816
     23 CL          6.7156   -3.3946   26.0292 Cl      1  UNL1       -0.0801
     24 S           3.2772   -0.0729   19.6497 S.O2    1  UNL1        0.0108
     25 O           4.0124    1.1713   19.2477 O.2     1  UNL1       -0.1686
     26 O           2.5420   -1.3170   20.0516 O.2     1  UNL1       -0.1686
     27 C          -1.6685    3.1732   20.6510 C.3     1  UNL1        0.0896
     28 N          -0.4321    2.3617   20.4007 N.3     1  UNL1       -0.2714
     29 C           0.1748    1.5573   21.5118 C.3     1  UNL1        0.0739
     30 C           1.4112    0.7458   21.2614 C.3     1  UNL1        0.0413
     31 C           2.0408    0.7386   19.9000 C.3     1  UNL1        0.1367
     32 C           1.4339    1.5430   18.7889 C.3     1  UNL1        0.0413
     33 C           0.1974    2.3546   19.0392 C.3     1  UNL1        0.0739
@<TRIPOS>BOND
     1    27    28    1
     2    28    29    1
     3    29    30    1
     4    30    31    1
     5    31    24    1
     6    24    25    2
     7    24    26    2
     8    24     1    1
     9     1     2   ar
    10     2     3    1
    11     2     4   ar
    12     4     5   ar
    13     5     6   ar
    14     6    10    1
    15    10    11   am
    16    11    12    2
    17    11    13   am
    18    13    16    1
    19    16    17   ar
    20    17    18   ar
    21    18    19   ar
    22    19    20   ar
    23    20    21    1
    24    20    22   ar
    25    22    23    1
    26     6     7   ar
    27     7     8    1
    28    31    32    1
    29    32    33    1
    30    33    28    1
    31     7     1   ar
    32    22    16   ar
    33    10    14    1
    34    13    15    1
    35     8     9    1
@<TRIPOS>MOLECULE
*****
 33 35 0 0 0
SMALL
GASTEIGER

@<TRIPOS>ATOM
      1 C           8.4353   -5.9996   25.9023 C.ar    1  UNL1        0.1508
      2 C           8.9225   -7.4126   25.7764 C.ar    1  UNL1        0.0778
      3 CL          8.9414   -8.3094   26.9787 Cl      1  UNL1       -0.0808
      4 C           9.3908   -7.9290   24.4482 C.ar    1  UNL1        0.0142
      5 C           9.3719   -7.0323   23.2459 C.ar    1  UNL1        0.0187
      6 C           8.8847   -5.6192   23.3718 C.ar    1  UNL1        0.0870
      7 C           8.4165   -5.1029   24.7000 C.ar    1  UNL1        0.1650
      8 O           7.9293   -3.6897   24.8259 O.3     1  UNL1       -0.5032
      9 H           7.9175   -3.1296   24.0748 H       1  UNL1        0.2923
     10 N           8.8659   -4.7225   22.1695 N.am    1  UNL1       -0.2656
     11 C           7.5647   -4.1741   21.6633 C.2     1  UNL1        0.3083
     12 O           6.2824   -4.5225   22.3594 O.2     1  UNL1       -0.2521
     13 N           7.5458   -3.2774   20.4610 N.am    1  UNL1       -0.2673
     14 H           9.7074   -4.4938   21.7127 H       1  UNL1        0.1565
     15 H           8.3873   -3.0487   20.0042 H       1  UNL1        0.1564
     16 C           6.2446   -2.7290   19.9548 C.ar    1  UNL1        0.0630
     17 C           5.2902   -3.6217   19.2186 C.ar    1  UNL1        0.0156
     18 C           3.9890   -3.0733   18.7124 C.ar    1  UNL1        0.0022
     19 C           3.6423   -1.6322   18.9424 C.ar    1  UNL1        0.0123
     20 C           4.5967   -0.7394   19.6786 C.ar    1  UNL1        0.0694
     21 CL          4.2500    0.7017   19.9086 Cl      1  UNL1       -0.0813
     22 C           5.8979   -1.2878   20.1849 C.ar    1  UNL1        0.0816
     23 CL          6.8523   -0.3951   20.9211 Cl      1  UNL1       -0.0801
     24 S           7.9671   -5.4832   27.2305 S.O2    1  UNL1        0.0108
     25 O           9.3817   -5.1460   27.5981 O.2     1  UNL1       -0.1686
     26 O           6.5525   -5.8204   26.8629 O.2     1  UNL1       -0.1686
     27 C           6.0940   -3.4177   32.5432 C.3     1  UNL1        0.0896
     28 N           6.5622   -3.9341   31.2151 N.3     1  UNL1       -0.2714
     29 C           6.9817   -5.3672   31.0731 C.3     1  UNL1        0.0739
     30 C           7.4500   -5.8836   29.7449 C.3     1  UNL1        0.0413
     31 C           7.4988   -4.9668   28.5587 C.3     1  UNL1        0.1367
     32 C           7.0794   -3.5337   28.7007 C.3     1  UNL1        0.0413
     33 C           6.6111   -3.0173   30.0288 C.3     1  UNL1        0.0739
@<TRIPOS>BOND
     1    27    28    1
     2    28    29    1
     3    29    30    1
     4    30    31    1
     5    31    24    1
     6    24    25    2
     7    24    26    2
     8    24     1    1
     9     1     2   ar
    10     2     3    1
    11     2     4   ar
    12     4     5   ar
    13     5     6   ar
    14     6    10    1
    15    10    11   am
    16    11    12    2
    17    11    13   am
    18    13    16    1
    19    16    17   ar
    20    17    18   ar
    21    18    19   ar
    22    19    20   ar
    23    20    21    1
    24    20    22   ar
    25    22    23    1
    26     6     7   ar
    27     7     8    1
    28    31    32    1
    29    32    33    1
    30    33    28    1
    31     7     1   ar
    32    22    16   ar
    33    10    14    1
    34    13    15    1
    35     8     9    1
@<TRIPOS>MOLECULE
*****
 33 35 0 0 0
SMALL
GASTEIGER

@<TRIPOS>ATOM
      1 C          -3.1453    3.7513   22.8413 C.ar    1  UNL1        0.1508
      2 C          -3.3799    3.4788   24.2975 C.ar    1  UNL1        0.0778
      3 CL         -4.7590    3.6108   24.8726 Cl      1  UNL1       -0.0808
      4 C          -2.2354    3.0743   25.1788 C.ar    1  UNL1        0.0142
      5 C          -0.8563    2.9424   24.6038 C.ar    1  UNL1        0.0187
      6 C          -0.6217    3.2148   23.1476 C.ar    1  UNL1        0.0870
      7 C          -1.7662    3.6193   22.2663 C.ar    1  UNL1        0.1650
      8 O          -1.5315    3.8917   20.8100 O.3     1  UNL1       -0.5032
      9 H          -0.6700    3.8093   20.4508 H       1  UNL1        0.2923
     10 N           0.7574    3.0828   22.5725 N.am    1  UNL1       -0.2656
     11 C           1.1486    1.8330   21.8411 C.2     1  UNL1        0.3083
     12 O           0.1606    0.7151   21.6848 O.2     1  UNL1       -0.2521
     13 N           2.5277    1.7010   21.2661 N.am    1  UNL1       -0.2673
     14 H           1.4058    3.8165   22.6751 H       1  UNL1        0.1565
     15 H           3.1761    2.4346   21.3687 H       1  UNL1        0.1564
     16 C           2.9188    0.4511   20.5347 C.ar    1  UNL1        0.0630
     17 C           3.1283   -0.8266   21.2920 C.ar    1  UNL1        0.0156
     18 C           3.5195   -2.0764   20.5607 C.ar    1  UNL1        0.0022
     19 C           3.7011   -2.0485   19.0720 C.ar    1  UNL1        0.0123
     20 C           3.4916   -0.7708   18.3146 C.ar    1  UNL1        0.0694
     21 CL          3.6733   -0.7429   16.8260 Cl      1  UNL1       -0.0813
     22 C           3.1005    0.4790   19.0460 C.ar    1  UNL1        0.0816
     23 CL          2.8910    1.7567   18.2887 Cl      1  UNL1       -0.0801
     24 S          -4.2897    4.1557   21.9600 S.O2    1  UNL1        0.0108
     25 O          -4.4366    2.7358   21.4992 O.2     1  UNL1       -0.1686
     26 O          -4.1428    5.5756   22.4209 O.2     1  UNL1       -0.1686
     27 C          -8.8676    5.7735   18.4350 C.3     1  UNL1        0.0896
     28 N          -7.7231    5.3690   19.3163 N.3     1  UNL1       -0.2714
     29 C          -7.4120    6.1604   20.5519 C.3     1  UNL1        0.0739
     30 C          -6.2675    5.7559   21.4332 C.3     1  UNL1        0.0413
     31 C          -5.4342    4.5601   21.0788 C.3     1  UNL1        0.1367
     32 C          -5.7453    3.7688   19.8431 C.3     1  UNL1        0.0413
     33 C          -6.8898    4.1733   18.9618 C.3     1  UNL1        0.0739
@<TRIPOS>BOND
     1    27    28    1
     2    28    29    1
     3    29    30    1
     4    30    31    1
     5    31    24    1
     6    24    25    2
     7    24    26    2
     8    24     1    1
     9     1     2   ar
    10     2     3    1
    11     2     4   ar
    12     4     5   ar
    13     5     6   ar
    14     6    10    1
    15    10    11   am
    16    11    12    2
    17    11    13   am
    18    13    16    1
    19    16    17   ar
    20    17    18   ar
    21    18    19   ar
    22    19    20   ar
    23    20    21    1
    24    20    22   ar
    25    22    23    1
    26     6     7   ar
    27     7     8    1
    28    31    32    1
    29    32    33    1
    30    33    28    1
    31     7     1   ar
    32    22    16   ar
    33    10    14    1
    34    13    15    1
    35     8     9    1
@<TRIPOS>MOLECULE
*****
 33 35 0 0 0
SMALL
GASTEIGER

@<TRIPOS>ATOM
      1 C           0.0215    2.7406   20.0005 C.ar    1  UNL1        0.1508
      2 C           0.8418    3.8416   19.3965 C.ar    1  UNL1        0.0778
      3 CL          0.3960    5.2678   19.5282 Cl      1  UNL1       -0.0808
      4 C           2.1079    3.5165   18.6608 C.ar    1  UNL1        0.0142
      5 C           2.5537    2.0904   18.5291 C.ar    1  UNL1        0.0187
      6 C           1.7334    0.9894   19.1331 C.ar    1  UNL1        0.0870
      7 C           0.4673    1.3145   19.8688 C.ar    1  UNL1        0.1650
      8 O          -0.3530    0.2134   20.4728 O.3     1  UNL1       -0.5032
      9 H          -0.0745   -0.6775   20.3905 H       1  UNL1        0.2923
     10 N           2.1792   -0.4368   19.0014 N.am    1  UNL1       -0.2656
     11 C           3.2732   -0.9649   19.8813 C.2     1  UNL1        0.3083
     12 O           3.9214   -0.0668   20.8930 O.2     1  UNL1       -0.2521
     13 N           3.7190   -2.3910   19.7497 N.am    1  UNL1       -0.2673
     14 H           1.7538   -1.0262   18.3374 H       1  UNL1        0.1565
     15 H           3.2936   -2.9805   19.0857 H       1  UNL1        0.1564
     16 C           4.8130   -2.9191   20.6296 C.ar    1  UNL1        0.0630
     17 C           4.5110   -3.3194   22.0433 C.ar    1  UNL1        0.0156
     18 C           5.6050   -3.8475   22.9233 C.ar    1  UNL1        0.0022
     19 C           7.0010   -3.9753   22.3895 C.ar    1  UNL1        0.0123
     20 C           7.3030   -3.5751   20.9758 C.ar    1  UNL1        0.0694
     21 CL          8.6990   -3.7029   20.4420 Cl      1  UNL1       -0.0813
     22 C           6.2090   -3.0470   20.0958 C.ar    1  UNL1        0.0816
     23 CL          6.5110   -2.6467   18.6821 Cl      1  UNL1       -0.0801
     24 S          -1.2446    3.0657   20.7362 S.O2    1  UNL1        0.0108
     25 O          -0.5524    2.8076   22.0416 O.2     1  UNL1       -0.1686
     26 O          -1.9369    3.3238   19.4308 O.2     1  UNL1       -0.1686
     27 C          -6.3091    4.3661   23.6790 C.3     1  UNL1        0.0896
     28 N          -5.0430    4.0410   22.9433 N.3     1  UNL1       -0.2714
     29 C          -3.7225    4.1244   23.6498 C.3     1  UNL1        0.0739
     30 C          -2.4564    3.7993   22.9141 C.3     1  UNL1        0.0413
     31 C          -2.5108    3.3908   21.4719 C.3     1  UNL1        0.1367
     32 C          -3.8313    3.3074   20.7654 C.3     1  UNL1        0.0413
     33 C          -5.0974    3.6325   21.5011 C.3     1  UNL1        0.0739
@<TRIPOS>BOND
     1    27    28    1
     2    28    29    1
     3    29    30    1
     4    30    31    1
     5    31    24    1
     6    24    25    2
     7    24    26    2
     8    24     1    1
     9     1     2   ar
    10     2     3    1
    11     2     4   ar
    12     4     5   ar
    13     5     6   ar
    14     6    10    1
    15    10    11   am
    16    11    12    2
    17    11    13   am
    18    13    16    1
    19    16    17   ar
    20    17    18   ar
    21    18    19   ar
    22    19    20   ar
    23    20    21    1
    24    20    22   ar
    25    22    23    1
    26     6     7   ar
    27     7     8    1
    28    31    32    1
    29    32    33    1
    30    33    28    1
    31     7     1   ar
    32    22    16   ar
    33    10    14    1
    34    13    15    1
    35     8     9    1
@<TRIPOS>MOLECULE
*****
 33 35 0 0 0
SMALL
GASTEIGER

@<TRIPOS>ATOM
      1 C          -2.6662    3.9326   19.5330 C.ar    1  UNL1        0.1508
      2 C          -2.8455    4.1296   18.0569 C.ar    1  UNL1        0.0778
      3 CL         -4.1720    4.5735   17.5151 Cl      1  UNL1       -0.0808
      4 C          -1.6984    3.8826   17.1225 C.ar    1  UNL1        0.0142
      5 C          -0.3720    3.4387   17.6642 C.ar    1  UNL1        0.0187
      6 C          -0.1927    3.2418   19.1403 C.ar    1  UNL1        0.0870
      7 C          -1.3398    3.4887   20.0747 C.ar    1  UNL1        0.1650
      8 O          -1.1605    3.2918   21.5509 O.3     1  UNL1       -0.5032
      9 H          -0.3319    3.0145   21.8893 H       1  UNL1        0.2923
     10 N           1.1338    2.7979   19.6821 N.am    1  UNL1       -0.2656
     11 C           1.6766    1.4466   19.3224 C.2     1  UNL1        0.3083
     12 O           0.8929    0.5392   18.4209 O.2     1  UNL1       -0.2521
     13 N           3.0030    1.0026   19.8642 N.am    1  UNL1       -0.2673
     14 H           1.6481    3.3934   20.2738 H       1  UNL1        0.1565
     15 H           3.5173    1.5982   20.4558 H       1  UNL1        0.1564
     16 C           3.5458   -0.3487   19.5045 C.ar    1  UNL1        0.0630
     17 C           4.0450   -0.6107   18.1145 C.ar    1  UNL1        0.0156
     18 C           4.5878   -1.9620   17.7548 C.ar    1  UNL1        0.0022
     19 C           4.6314   -3.0513   18.7851 C.ar    1  UNL1        0.0123
     20 C           4.1321   -2.7893   20.1752 C.ar    1  UNL1        0.0694
     21 CL          4.1757   -3.8785   21.2054 Cl      1  UNL1       -0.0813
     22 C           3.5893   -1.4380   20.5349 C.ar    1  UNL1        0.0816
     23 CL          3.0901   -1.1760   21.9248 Cl      1  UNL1       -0.0801
     24 S          -3.8134    4.1796   20.4674 S.O2    1  UNL1        0.0108
     25 O          -3.9787    2.7006   20.6553 O.2     1  UNL1       -0.1686
     26 O          -3.6480    5.6586   20.2795 O.2     1  UNL1       -0.1686
     27 C          -8.4018    5.1674   24.2051 C.3     1  UNL1        0.0896
     28 N          -7.2547    4.9205   23.2707 N.3     1  UNL1       -0.2714
     29 C          -7.2620    5.5251   21.8980 C.3     1  UNL1        0.0739
     30 C          -6.1149    5.2781   20.9635 C.3     1  UNL1        0.0413
     31 C          -4.9605    4.4266   21.4018 C.3     1  UNL1        0.1367
     32 C          -4.9532    3.8219   22.7745 C.3     1  UNL1        0.0413
     33 C          -6.1003    4.0689   23.7089 C.3     1  UNL1        0.0739
@<TRIPOS>BOND
     1    27    28    1
     2    28    29    1
     3    29    30    1
     4    30    31    1
     5    31    24    1
     6    24    25    2
     7    24    26    2
     8    24     1    1
     9     1     2   ar
    10     2     3    1
    11     2     4   ar
    12     4     5   ar
    13     5     6   ar
    14     6    10    1
    15    10    11   am
    16    11    12    2
    17    11    13   am
    18    13    16    1
    19    16    17   ar
    20    17    18   ar
    21    18    19   ar
    22    19    20   ar
    23    20    21    1
    24    20    22   ar
    25    22    23    1
    26     6     7   ar
    27     7     8    1
    28    31    32    1
    29    32    33    1
    30    33    28    1
    31     7     1   ar
    32    22    16   ar
    33    10    14    1
    34    13    15    1
    35     8     9    1
@<TRIPOS>MOLECULE
*****
 33 35 0 0 0
SMALL
GASTEIGER

@<TRIPOS>ATOM
      1 C           1.3560    1.9434   19.5226 C.ar    1  UNL1        0.1508
      2 C           1.7498    3.2704   18.9448 C.ar    1  UNL1        0.0778
      3 CL          3.1601    3.5012   18.4888 Cl      1  UNL1       -0.0808
      4 C           0.7333    4.3667   18.8228 C.ar    1  UNL1        0.0142
      5 C          -0.6770    4.1360   19.2787 C.ar    1  UNL1        0.0187
      6 C          -1.0707    2.8089   19.8565 C.ar    1  UNL1        0.0870
      7 C          -0.0542    1.7127   19.9785 C.ar    1  UNL1        0.1650
      8 O          -0.4481    0.3856   20.5563 O.3     1  UNL1       -0.5032
      9 H          -1.3290    0.2415   20.8411 H       1  UNL1        0.2923
     10 N          -2.4811    2.5782   20.3124 N.am    1  UNL1       -0.2656
     11 C          -2.9821    3.2368   21.5635 C.2     1  UNL1        0.3083
     12 O          -2.0728    4.1261   22.3587 O.2     1  UNL1       -0.2521
     13 N          -4.3923    3.0060   22.0194 N.am    1  UNL1       -0.2673
     14 H          -3.0778    1.9944   19.7905 H       1  UNL1        0.1565
     15 H          -4.9891    2.4223   21.4975 H       1  UNL1        0.1564
     16 C          -4.8934    3.6646   23.2705 C.ar    1  UNL1        0.0630
     17 C          -4.1441    3.4954   24.5589 C.ar    1  UNL1        0.0156
     18 C          -4.6451    4.1540   25.8099 C.ar    1  UNL1        0.0022
     19 C          -5.8954    4.9818   25.7727 C.ar    1  UNL1        0.0123
     20 C          -6.6448    5.1510   24.4843 C.ar    1  UNL1        0.0694
     21 CL         -7.8951    5.9787   24.4471 Cl      1  UNL1       -0.0813
     22 C          -6.1438    4.4924   23.2332 C.ar    1  UNL1        0.0816
     23 CL         -6.8931    4.6616   21.9449 Cl      1  UNL1       -0.0801
     24 S           2.3725    0.8471   19.6445 S.O2    1  UNL1        0.0108
     25 O           2.6653    1.2752   21.0520 O.2     1  UNL1       -0.1686
     26 O           2.0797    0.4190   18.2371 O.2     1  UNL1       -0.1686
     27 C           6.4386   -3.5380   20.1324 C.3     1  UNL1        0.0896
     28 N           5.4221   -2.4418   20.0104 N.3     1  UNL1       -0.2714
     29 C           3.9650   -2.7793   19.8962 C.3     1  UNL1        0.0739
     30 C           2.9485   -1.6830   19.7742 C.3     1  UNL1        0.0413
     31 C           3.3891   -0.2492   19.7665 C.3     1  UNL1        0.1367
     32 C           4.8461    0.0883   19.8807 C.3     1  UNL1        0.0413
     33 C           5.8626   -1.0080   20.0027 C.3     1  UNL1        0.0739
@<TRIPOS>BOND
     1    27    28    1
     2    28    29    1
     3    29    30    1
     4    30    31    1
     5    31    24    1
     6    24    25    2
     7    24    26    2
     8    24     1    1
     9     1     2   ar
    10     2     3    1
    11     2     4   ar
    12     4     5   ar
    13     5     6   ar
    14     6    10    1
    15    10    11   am
    16    11    12    2
    17    11    13   am
    18    13    16    1
    19    16    17   ar
    20    17    18   ar
    21    18    19   ar
    22    19    20   ar
    23    20    21    1
    24    20    22   ar
    25    22    23    1
    26     6     7   ar
    27     7     8    1
    28    31    32    1
    29    32    33    1
    30    33    28    1
    31     7     1   ar
    32    22    16   ar
    33    10    14    1
    34    13    15    1
    35     8     9    1
@<TRIPOS>MOLECULE
*****
 33 35 0 0 0
SMALL
GASTEIGER

@<TRIPOS>ATOM
      1 C           8.0483   -4.3477   27.5009 C.ar    1  UNL1        0.1508
      2 C           8.8671   -5.6034   27.5525 C.ar    1  UNL1        0.0778
      3 CL          9.0171   -6.3484   28.8458 Cl      1  UNL1       -0.0808
      4 C           9.5360   -6.1142   26.3109 C.ar    1  UNL1        0.0142
      5 C           9.3861   -5.3693   25.0176 C.ar    1  UNL1        0.0187
      6 C           8.5673   -4.1136   24.9660 C.ar    1  UNL1        0.0870
      7 C           7.8984   -3.6028   26.2076 C.ar    1  UNL1        0.1650
      8 O           7.0796   -2.3470   26.1559 O.3     1  UNL1       -0.5032
      9 H           6.9860   -1.8817   25.3481 H       1  UNL1        0.2923
     10 N           8.4174   -3.3686   23.6727 N.am    1  UNL1       -0.2656
     11 C           7.1938   -3.5701   22.8286 C.2     1  UNL1        0.3083
     12 O           6.1202   -4.5165   23.2779 O.2     1  UNL1       -0.2521
     13 N           7.0439   -2.8252   21.5354 N.am    1  UNL1       -0.2673
     14 H           9.1220   -2.7475   23.3778 H       1  UNL1        0.1565
     15 H           7.7485   -2.2040   21.2405 H       1  UNL1        0.1564
     16 C           5.8203   -3.0266   20.6913 C.ar    1  UNL1        0.0630
     17 C           5.7599   -4.1663   19.7181 C.ar    1  UNL1        0.0156
     18 C           4.5364   -4.3677   18.8740 C.ar    1  UNL1        0.0022
     19 C           3.3732   -3.4294   19.0033 C.ar    1  UNL1        0.0123
     20 C           3.4336   -2.2896   19.9766 C.ar    1  UNL1        0.0694
     21 CL          2.2705   -1.3514   20.1059 Cl      1  UNL1       -0.0813
     22 C           4.6572   -2.0882   20.8207 C.ar    1  UNL1        0.0816
     23 CL          4.7176   -0.9485   21.7939 Cl      1  UNL1       -0.0801
     24 S           7.3795   -3.8369   28.7425 S.O2    1  UNL1        0.0108
     25 O           8.6524   -3.1546   29.1476 O.2     1  UNL1       -0.1686
     26 O           6.1065   -4.5192   28.3375 O.2     1  UNL1       -0.1686
     27 C           4.7040   -1.7936   33.7091 C.3     1  UNL1        0.0896
     28 N           5.3728   -2.3044   32.4675 N.3     1  UNL1       -0.2714
     29 C           6.1319   -3.5977   32.5024 C.3     1  UNL1        0.0739
     30 C           6.8008   -4.1085   31.2607 C.3     1  UNL1        0.0413
     31 C           6.7106   -3.3261   29.9842 C.3     1  UNL1        0.1367
     32 C           5.9515   -2.0328   29.9493 C.3     1  UNL1        0.0413
     33 C           5.2826   -1.5220   31.1909 C.3     1  UNL1        0.0739
@<TRIPOS>BOND
     1    27    28    1
     2    28    29    1
     3    29    30    1
     4    30    31    1
     5    31    24    1
     6    24    25    2
     7    24    26    2
     8    24     1    1
     9     1     2   ar
    10     2     3    1
    11     2     4   ar
    12     4     5   ar
    13     5     6   ar
    14     6    10    1
    15    10    11   am
    16    11    12    2
    17    11    13   am
    18    13    16    1
    19    16    17   ar
    20    17    18   ar
    21    18    19   ar
    22    19    20   ar
    23    20    21    1
    24    20    22   ar
    25    22    23    1
    26     6     7   ar
    27     7     8    1
    28    31    32    1
    29    32    33    1
    30    33    28    1
    31     7     1   ar
    32    22    16   ar
    33    10    14    1
    34    13    15    1
    35     8     9    1
@<TRIPOS>MOLECULE
*****
 33 35 0 0 0
SMALL
GASTEIGER

@<TRIPOS>ATOM
      1 C           1.6744    0.8579   27.4321 C.ar    1  UNL1        0.1508
      2 C           0.2049    1.0915   27.2430 C.ar    1  UNL1        0.0778
      3 CL         -0.7191    1.0512   28.4240 Cl      1  UNL1       -0.0808
      4 C          -0.3407    1.3653   25.8728 C.ar    1  UNL1        0.0142
      5 C           0.5832    1.4056   24.6919 C.ar    1  UNL1        0.0187
      6 C           2.0527    1.1720   24.8810 C.ar    1  UNL1        0.0870
      7 C           2.5983    0.8981   26.2512 C.ar    1  UNL1        0.1650
      8 O           4.0680    0.6645   26.4403 O.3     1  UNL1       -0.5032
      9 H           4.6451    0.6897   25.7026 H       1  UNL1        0.2923
     10 N           2.9767    1.2123   23.7000 N.am    1  UNL1       -0.2656
     11 C           3.4936   -0.0655   23.1083 C.2     1  UNL1        0.3083
     12 O           3.0866   -1.3835   23.6976 O.2     1  UNL1       -0.2521
     13 N           4.4176   -0.0253   21.9274 N.am    1  UNL1       -0.2673
     14 H           3.2439    2.0773   23.3133 H       1  UNL1        0.1565
     15 H           4.6847    0.8397   21.5406 H       1  UNL1        0.1564
     16 C           4.9345   -1.3031   21.3357 C.ar    1  UNL1        0.0630
     17 C           6.3245   -1.7684   21.6537 C.ar    1  UNL1        0.0156
     18 C           6.8415   -3.0462   21.0620 C.ar    1  UNL1        0.0022
     19 C           5.9683   -3.8586   20.1523 C.ar    1  UNL1        0.0123
     20 C           4.5782   -3.3932   19.8342 C.ar    1  UNL1        0.0694
     21 CL          3.7051   -4.2056   18.9245 Cl      1  UNL1       -0.0813
     22 C           4.0613   -2.1155   20.4259 C.ar    1  UNL1        0.0816
     23 CL          2.6712   -1.6501   20.1079 Cl      1  UNL1       -0.0801
     24 S           2.2201    0.5840   28.8023 S.O2    1  UNL1        0.0108
     25 O           2.2092   -0.8877   28.5124 O.2     1  UNL1       -0.1686
     26 O           2.2310    2.0557   29.0921 O.2     1  UNL1       -0.1686
     27 C           4.4026   -0.5115   34.2828 C.3     1  UNL1        0.0896
     28 N           3.8570   -0.2376   32.9127 N.3     1  UNL1       -0.2714
     29 C           2.9154    0.9097   32.6959 C.3     1  UNL1        0.0739
     30 C           2.3697    1.1835   31.3258 C.3     1  UNL1        0.0413
     31 C           2.7657    0.3101   30.1724 C.3     1  UNL1        0.1367
     32 C           3.7073   -0.8372   30.3892 C.3     1  UNL1        0.0413
     33 C           4.2530   -1.1111   31.7593 C.3     1  UNL1        0.0739
@<TRIPOS>BOND
     1    27    28    1
     2    28    29    1
     3    29    30    1
     4    30    31    1
     5    31    24    1
     6    24    25    2
     7    24    26    2
     8    24     1    1
     9     1     2   ar
    10     2     3    1
    11     2     4   ar
    12     4     5   ar
    13     5     6   ar
    14     6    10    1
    15    10    11   am
    16    11    12    2
    17    11    13   am
    18    13    16    1
    19    16    17   ar
    20    17    18   ar
    21    18    19   ar
    22    19    20   ar
    23    20    21    1
    24    20    22   ar
    25    22    23    1
    26     6     7   ar
    27     7     8    1
    28    31    32    1
    29    32    33    1
    30    33    28    1
    31     7     1   ar
    32    22    16   ar
    33    10    14    1
    34    13    15    1
    35     8     9    1
@<TRIPOS>MOLECULE
*****
 33 35 0 0 0
SMALL
GASTEIGER

@<TRIPOS>ATOM
      1 C           4.6535   -1.3204   19.9393 C.ar    1  UNL1        0.1508
      2 C           4.7675   -1.9711   18.5927 C.ar    1  UNL1        0.0778
      3 CL          5.4277   -3.3116   18.4609 Cl      1  UNL1       -0.0808
      4 C           4.2213   -1.2814   17.3778 C.ar    1  UNL1        0.0142
      5 C           3.5610    0.0589   17.5095 C.ar    1  UNL1        0.0187
      6 C           3.4470    0.7097   18.8562 C.ar    1  UNL1        0.0870
      7 C           3.9932    0.0200   20.0711 C.ar    1  UNL1        0.1650
      8 O           3.8792    0.6708   21.4178 O.3     1  UNL1       -0.5032
      9 H           3.4668    1.5082   21.5000 H       1  UNL1        0.2923
     10 N           2.7868    2.0502   18.9879 N.am    1  UNL1       -0.2656
     11 C           1.2943    2.1639   18.8899 C.2     1  UNL1        0.3083
     12 O           0.4621    0.9372   18.6600 O.2     1  UNL1       -0.2521
     13 N           0.6340    3.5043   19.0216 N.am    1  UNL1       -0.2673
     14 H           3.3330    2.8552   19.1388 H       1  UNL1        0.1565
     15 H           1.1802    4.3094   19.1725 H       1  UNL1        0.1564
     16 C          -0.8584    3.6181   18.9235 C.ar    1  UNL1        0.0630
     17 C          -1.4978    3.9959   17.6203 C.ar    1  UNL1        0.0156
     18 C          -2.9902    4.1097   17.5223 C.ar    1  UNL1        0.0022
     19 C          -3.8433    3.8456   18.7274 C.ar    1  UNL1        0.0123
     20 C          -3.2040    3.4677   20.0307 C.ar    1  UNL1        0.0694
     21 CL         -4.0571    3.2036   21.2358 Cl      1  UNL1       -0.0813
     22 C          -1.7115    3.3540   20.1288 C.ar    1  UNL1        0.0816
     23 CL         -1.0722    2.9761   21.4320 Cl      1  UNL1       -0.0801
     24 S           5.1997   -2.0100   21.1543 S.O2    1  UNL1        0.0108
     25 O           6.5695   -1.4892   20.8341 O.2     1  UNL1       -0.1686
     26 O           3.8299   -2.5308   21.4745 O.2     1  UNL1       -0.1686
     27 C           7.3846   -4.7686   26.0139 C.3     1  UNL1        0.0896
     28 N           6.8383   -4.0790   24.7990 N.3     1  UNL1       -0.2714
     29 C           5.9583   -2.8740   24.9527 C.3     1  UNL1        0.0739
     30 C           5.4121   -2.1844   23.7377 C.3     1  UNL1        0.0413
     31 C           5.7459   -2.6997   22.3692 C.3     1  UNL1        0.1367
     32 C           6.6259   -3.9046   22.2155 C.3     1  UNL1        0.0413
     33 C           7.1722   -4.5942   23.4305 C.3     1  UNL1        0.0739
@<TRIPOS>BOND
     1    27    28    1
     2    28    29    1
     3    29    30    1
     4    30    31    1
     5    31    24    1
     6    24    25    2
     7    24    26    2
     8    24     1    1
     9     1     2   ar
    10     2     3    1
    11     2     4   ar
    12     4     5   ar
    13     5     6   ar
    14     6    10    1
    15    10    11   am
    16    11    12    2
    17    11    13   am
    18    13    16    1
    19    16    17   ar
    20    17    18   ar
    21    18    19   ar
    22    19    20   ar
    23    20    21    1
    24    20    22   ar
    25    22    23    1
    26     6     7   ar
    27     7     8    1
    28    31    32    1
    29    32    33    1
    30    33    28    1
    31     7     1   ar
    32    22    16   ar
    33    10    14    1
    34    13    15    1
    35     8     9    1
