@<TRIPOS>MOLECULE
*****
 54 60 0 0 0
SMALL
GASTEIGER

@<TRIPOS>ATOM
      1 C           1.3249    4.7898   34.1222 C.ar    1  UNL1        0.1090
      2 C          -0.0138    5.4442   34.2940 C.ar    1  UNL1        0.0405
      3 C          -0.3154    6.2185   35.5428 C.ar    1  UNL1        0.1596
      4 F          -1.6542    6.8729   35.7146 F       1  UNL1       -0.2025
      5 C           0.7217    6.3385   36.6198 C.ar    1  UNL1        0.1316
      6 N           2.0605    5.6841   36.4480 N.ar    1  UNL1       -0.2073
      7 C           2.3621    4.9097   35.1992 C.ar    1  UNL1        0.2341
      8 N           1.1583    2.5967   32.7392 N.am    1  UNL1       -0.3024
      9 C           1.6265    4.0155   32.8734 C.2     1  UNL1        0.2504
     10 O           2.3964    4.6598   31.7590 O.2     1  UNL1       -0.2700
     11 H           0.6530    2.1738   33.4706 H       1  UNL1        0.1497
     12 C           2.0631    0.2738   28.9928 C.3     1  UNL1        0.0720
     13 C           0.9319    1.2589   29.0097 C.3     1  UNL1        0.0213
     14 C           0.6303    2.0332   30.2585 C.3     1  UNL1        0.0213
     15 C           1.4599    1.8224   31.4904 C.3     1  UNL1        0.0720
     16 C           2.5910    0.8374   31.4735 C.3     1  UNL1        0.0213
     17 C           2.8926    0.0631   30.2247 C.3     1  UNL1        0.0213
     18 C           3.3245    0.0520   26.7324 C.2     1  UNL1        0.2651
     19 O           3.9827    1.3788   26.9696 O.2     1  UNL1       -0.2684
     20 N           2.3647   -0.5005   27.7440 N.am    1  UNL1       -0.3012
     21 H           1.9327   -1.3714   27.5884 H       1  UNL1        0.1497
     22 C           2.4542   -0.8427   20.9422 C.3     1  UNL1        0.0504
     23 C           3.4028   -1.7136   21.7113 C.ar    1  UNL1        0.0432
     24 C           4.1384   -2.8196   21.0145 C.ar    1  UNL1        0.0132
     25 C           5.0870   -3.6905   21.7836 C.ar    1  UNL1        0.0043
     26 C           5.3002   -3.4554   23.2496 C.ar    1  UNL1        0.0374
     27 C           4.5646   -2.3494   23.9465 C.ar    1  UNL1        0.1477
     28 N           4.5709   -1.8821   25.3718 N.ar    1  UNL1       -0.2218
     29 C           3.6262   -0.7224   25.4836 C.ar    1  UNL1        0.1535
     30 C           3.0360   -0.4729   24.1274 C.ar    1  UNL1        0.1050
     31 N           3.6160   -1.4785   23.1773 N.ar    1  UNL1       -0.2925
     32 O           3.7009    4.2554   35.0274 O.3     1  UNL1       -0.4360
     33 C           3.9340    2.8731   35.5612 C.ar    1  UNL1        0.1472
     34 C           3.6366    2.5641   36.9986 C.ar    1  UNL1        0.0376
     35 C           3.8697    1.1818   37.5323 C.ar    1  UNL1        0.0031
     36 C           4.4003    0.1085   36.6287 C.ar    1  UNL1        0.0002
     37 C           4.6977    0.4175   35.1914 C.ar    1  UNL1        0.0030
     38 C           4.4646    1.7998   34.6576 C.ar    1  UNL1        0.0376
     39 C           5.2283   -0.6559   34.2877 C.ar    1  UNL1        0.0001
     40 C           6.6703   -0.6438   33.8751 C.ar    1  UNL1       -0.0003
     41 C           7.2008   -1.7171   32.9715 C.ar    1  UNL1       -0.0029
     42 C           6.2893   -2.8025   32.4806 C.ar    1  UNL1       -0.0061
     43 C           4.8472   -2.8146   32.8932 C.ar    1  UNL1       -0.0029
     44 C           4.3167   -1.7412   33.7968 C.ar    1  UNL1       -0.0003
     45 C           6.8199   -3.8758   31.5769 C.3     1  UNL1        0.0992
     46 N           6.8231   -3.6714   30.0910 N.3     1  UNL1       -0.2666
     47 C           6.6790   -4.8479   29.1717 C.3     1  UNL1        0.0882
     48 C           6.6822   -4.6435   27.6858 C.3     1  UNL1        0.0702
     49 C           6.5382   -5.8200   26.7665 C.3     1  UNL1        0.0186
     50 N           6.8295   -3.2625   27.1190 N.3     1  UNL1       -0.2974
     51 C           6.9735   -2.0860   28.0382 C.3     1  UNL1        0.0702
     52 C           7.1208   -0.7050   27.4715 C.3     1  UNL1        0.0186
     53 C           6.9703   -2.2905   29.5243 C.3     1  UNL1        0.0882
     54 H           6.0032   -3.0895   26.5465 H       1  UNL1        0.1232
@<TRIPOS>BOND
     1    22    23    1
     2    23    24   ar
     3    24    25   ar
     4    25    26   ar
     5    26    27   ar
     6    27    28   ar
     7    28    29   ar
     8    29    18    1
     9    18    19    2
    10    18    20   am
    11    12    20    1
    12    12    13    1
    13    13    14    1
    14    14    15    1
    15    15     8    1
    16     8     9   am
    17     9    10    2
    18     9     1    1
    19     1     2   ar
    20     2     3   ar
    21     3     4    1
    22     3     5   ar
    23     5     6   ar
    24     6     7   ar
    25     7    32    1
    26    32    33    1
    27    33    34   ar
    28    34    35   ar
    29    35    36   ar
    30    36    37   ar
    31    37    39    1
    32    39    40   ar
    33    40    41   ar
    34    41    42   ar
    35    42    45    1
    36    45    46    1
    37    46    47    1
    38    47    48    1
    39    48    49    1
    40    48    50    1
    41    50    51    1
    42    51    52    1
    43    51    53    1
    44    42    43   ar
    45    43    44   ar
    46    37    38   ar
    47    15    16    1
    48    16    17    1
    49    29    30   ar
    50    30    31   ar
    51    31    23   ar
    52    31    27   ar
    53    17    12    1
    54     7     1   ar
    55    38    33   ar
    56    44    39   ar
    57    53    46    1
    58    20    21    1
    59     8    11    1
    60    50    54    1
@<TRIPOS>MOLECULE
*****
 54 60 0 0 0
SMALL
GASTEIGER

@<TRIPOS>ATOM
      1 C           1.7631    1.3571   31.4281 C.ar    1  UNL1        0.1090
      2 C           1.6168    2.2945   32.5900 C.ar    1  UNL1        0.0405
      3 C           2.4689    2.1140   33.8112 C.ar    1  UNL1        0.1596
      4 F           2.3226    3.0514   34.9731 F       1  UNL1       -0.2025
      5 C           3.4674    0.9962   33.8705 C.ar    1  UNL1        0.1316
      6 N           3.6137    0.0588   32.7086 N.ar    1  UNL1       -0.2073
      7 C           2.7616    0.2392   31.4874 C.ar    1  UNL1        0.2341
      8 N           1.3886    2.4057   29.0807 N.am    1  UNL1       -0.3024
      9 C           0.9110    1.5376   30.2069 C.2     1  UNL1        0.2504
     10 O          -0.4187    0.8500   30.1120 O.2     1  UNL1       -0.2700
     11 H           2.2614    2.8570   29.1431 H       1  UNL1        0.1497
     12 C          -1.1677    2.9471   25.4171 C.3     1  UNL1        0.0720
     13 C          -0.4761    1.6388   25.6624 C.3     1  UNL1        0.0213
     14 C           0.3760    1.4583   26.8836 C.3     1  UNL1        0.0213
     15 C           0.5365    2.5861   27.8595 C.3     1  UNL1        0.0720
     16 C          -0.1551    3.8944   27.6142 C.3     1  UNL1        0.0213
     17 C          -1.0072    4.0748   26.3930 C.3     1  UNL1        0.0213
     18 C          -1.3828    3.1902   22.8394 C.2     1  UNL1        0.2651
     19 O           0.1064    3.0723   22.7041 O.2     1  UNL1       -0.2684
     20 N          -2.0199    3.1275   24.1959 N.am    1  UNL1       -0.3012
     21 H          -2.9973    3.2049   24.2848 H       1  UNL1        0.1497
     22 C          -1.8442    4.5038   17.0822 C.3     1  UNL1        0.0504
     23 C          -3.0642    4.1542   17.8818 C.ar    1  UNL1        0.0432
     24 C          -4.4121    4.1357   17.2241 C.ar    1  UNL1        0.0132
     25 C          -5.6321    3.7861   18.0237 C.ar    1  UNL1        0.0043
     26 C          -5.5042    3.4550   19.4811 C.ar    1  UNL1        0.0374
     27 C          -4.1562    3.4735   20.1388 C.ar    1  UNL1        0.1477
     28 N          -3.7228    3.1939   21.5473 N.ar    1  UNL1       -0.2218
     29 C          -2.2349    3.3706   21.6182 C.ar    1  UNL1        0.1535
     30 C          -1.7488    3.7595   20.2535 C.ar    1  UNL1        0.1050
     31 N          -2.9362    3.8231   19.3392 N.ar    1  UNL1       -0.2925
     32 O           2.9079   -0.6981   30.3256 O.3     1  UNL1       -0.4360
     33 C           3.8197   -0.3457   29.1879 C.ar    1  UNL1        0.1472
     34 C           5.1843    0.2120   29.4654 C.ar    1  UNL1        0.0376
     35 C           6.0961    0.5645   28.3277 C.ar    1  UNL1        0.0031
     36 C           5.6434    0.3591   26.9125 C.ar    1  UNL1        0.0002
     37 C           4.2788   -0.1986   26.6349 C.ar    1  UNL1        0.0030
     38 C           3.3670   -0.5510   27.7726 C.ar    1  UNL1        0.0376
     39 C           3.8261   -0.4039   25.2196 C.ar    1  UNL1        0.0001
     40 C           2.8932    0.5813   24.5802 C.ar    1  UNL1       -0.0003
     41 C           2.4405    0.3760   23.1650 C.ar    1  UNL1       -0.0029
     42 C           2.9209   -0.8146   22.3892 C.ar    1  UNL1       -0.0061
     43 C           3.8538   -1.7998   23.0286 C.ar    1  UNL1       -0.0029
     44 C           4.3065   -1.5945   24.4438 C.ar    1  UNL1       -0.0003
     45 C           2.4682   -1.0199   20.9739 C.3     1  UNL1        0.0992
     46 N           3.4133   -1.5927   19.9598 N.3     1  UNL1       -0.2666
     47 C           3.5493   -3.0797   19.8171 C.3     1  UNL1        0.0882
     48 C           4.4944   -3.6526   18.8030 C.3     1  UNL1        0.0702
     49 C           4.6304   -5.1396   18.6603 C.3     1  UNL1        0.0186
     50 N           5.3037   -2.7384   17.9315 N.3     1  UNL1       -0.2974
     51 C           5.1677   -1.2514   18.0741 C.3     1  UNL1        0.0702
     52 C           5.9769   -0.3373   17.2026 C.3     1  UNL1        0.0186
     53 C           4.2225   -0.6786   19.0883 C.3     1  UNL1        0.0882
     54 H           5.0651   -2.9646   16.9659 H       1  UNL1        0.1232
@<TRIPOS>BOND
     1    22    23    1
     2    23    24   ar
     3    24    25   ar
     4    25    26   ar
     5    26    27   ar
     6    27    28   ar
     7    28    29   ar
     8    29    18    1
     9    18    19    2
    10    18    20   am
    11    12    20    1
    12    12    13    1
    13    13    14    1
    14    14    15    1
    15    15     8    1
    16     8     9   am
    17     9    10    2
    18     9     1    1
    19     1     2   ar
    20     2     3   ar
    21     3     4    1
    22     3     5   ar
    23     5     6   ar
    24     6     7   ar
    25     7    32    1
    26    32    33    1
    27    33    34   ar
    28    34    35   ar
    29    35    36   ar
    30    36    37   ar
    31    37    39    1
    32    39    40   ar
    33    40    41   ar
    34    41    42   ar
    35    42    45    1
    36    45    46    1
    37    46    47    1
    38    47    48    1
    39    48    49    1
    40    48    50    1
    41    50    51    1
    42    51    52    1
    43    51    53    1
    44    42    43   ar
    45    43    44   ar
    46    37    38   ar
    47    15    16    1
    48    16    17    1
    49    29    30   ar
    50    30    31   ar
    51    31    23   ar
    52    31    27   ar
    53    17    12    1
    54     7     1   ar
    55    38    33   ar
    56    44    39   ar
    57    53    46    1
    58    20    21    1
    59     8    11    1
    60    50    54    1
@<TRIPOS>MOLECULE
*****
 54 60 0 0 0
SMALL
GASTEIGER

@<TRIPOS>ATOM
      1 C          -6.1163    5.1733   23.4268 C.ar    1  UNL1        0.1090
      2 C          -6.8915    6.0669   22.5046 C.ar    1  UNL1        0.0405
      3 C          -8.0875    6.8147   23.0146 C.ar    1  UNL1        0.1596
      4 F          -8.8627    7.7084   22.0923 F       1  UNL1       -0.2025
      5 C          -8.5084    6.6690   24.4470 C.ar    1  UNL1        0.1316
      6 N          -7.7332    5.7754   25.3693 N.ar    1  UNL1       -0.2073
      7 C          -6.5372    5.0276   24.8592 C.ar    1  UNL1        0.2341
      8 N          -3.6727    5.1705   22.5442 N.am    1  UNL1       -0.3024
      9 C          -4.9202    4.4255   22.9168 C.2     1  UNL1        0.2504
     10 O          -4.9716    2.9327   22.7792 O.2     1  UNL1       -0.2700
     11 H          -3.6389    6.1503   22.6345 H       1  UNL1        0.1497
     12 C          -0.0845    2.9270   21.0140 C.3     1  UNL1        0.0720
     13 C          -1.1866    3.3112   20.0718 C.3     1  UNL1        0.0213
     14 C          -2.3827    4.0591   20.5818 C.3     1  UNL1        0.0213
     15 C          -2.4766    4.4227   22.0341 C.3     1  UNL1        0.0720
     16 C          -1.3745    4.0384   22.9763 C.3     1  UNL1        0.0213
     17 C          -0.1785    3.2905   22.4662 C.3     1  UNL1        0.0213
     18 C           1.0512    0.6892   20.3413 C.2     1  UNL1        0.2651
     19 O          -0.2052   -0.0528   20.6887 O.2     1  UNL1       -0.2684
     20 N           1.1116    2.1791   20.5039 N.am    1  UNL1       -0.3012
     21 H           1.9362    2.6662   20.2759 H       1  UNL1        0.1497
     22 C           3.7574   -4.4575   19.2136 C.3     1  UNL1        0.0504
     23 C           4.4405   -3.1573   18.9091 C.ar    1  UNL1        0.0432
     24 C           5.8179   -3.1548   18.3151 C.ar    1  UNL1        0.0132
     25 C           6.5010   -1.8546   18.0106 C.ar    1  UNL1        0.0043
     26 C           5.8068   -0.5568   18.3001 C.ar    1  UNL1        0.0374
     27 C           4.4294   -0.5593   18.8940 C.ar    1  UNL1        0.1477
     28 N           3.5030    0.5537   19.2850 N.ar    1  UNL1       -0.2218
     29 C           2.2473   -0.0586   19.8312 C.ar    1  UNL1        0.1535
     30 C           2.3977   -1.5501   19.7778 C.ar    1  UNL1        0.1050
     31 N           3.7463   -1.8596   19.1986 N.ar    1  UNL1       -0.2925
     32 O          -5.7620    4.1340   25.7815 O.3     1  UNL1       -0.4360
     33 C          -4.4485    4.5929   26.3419 C.ar    1  UNL1        0.1472
     34 C          -4.3455    5.9309   27.0121 C.ar    1  UNL1        0.0376
     35 C          -3.0319    6.3899   27.5725 C.ar    1  UNL1        0.0031
     36 C          -1.8215    5.5108   27.4628 C.ar    1  UNL1        0.0002
     37 C          -1.9246    4.1728   26.7926 C.ar    1  UNL1        0.0030
     38 C          -3.2380    3.7139   26.2322 C.ar    1  UNL1        0.0376
     39 C          -0.7140    3.2938   26.6829 C.ar    1  UNL1        0.0001
     40 C          -0.7633    2.0507   25.8450 C.ar    1  UNL1       -0.0003
     41 C           0.4472    1.1717   25.7353 C.ar    1  UNL1       -0.0029
     42 C           1.7069    1.5358   26.4636 C.ar    1  UNL1       -0.0061
     43 C           1.7562    2.7789   27.3016 C.ar    1  UNL1       -0.0029
     44 C           0.5457    3.6579   27.4112 C.ar    1  UNL1       -0.0003
     45 C           2.9174    0.6567   26.3539 C.3     1  UNL1        0.0992
     46 N           3.5214    0.3764   25.0099 N.3     1  UNL1       -0.2666
     47 C           3.9728    1.5112   24.1390 C.3     1  UNL1        0.0882
     48 C           4.5768    1.2309   22.7949 C.3     1  UNL1        0.0702
     49 C           5.0281    2.3657   21.9240 C.3     1  UNL1        0.0186
     50 N           4.7295   -0.1844   22.3217 N.3     1  UNL1       -0.2974
     51 C           4.2782   -1.3192   23.1926 C.3     1  UNL1        0.0702
     52 C           4.4308   -2.7344   22.7194 C.3     1  UNL1        0.0186
     53 C           3.6741   -1.0388   24.5367 C.3     1  UNL1        0.0882
     54 H           5.7229   -0.3289   22.1410 H       1  UNL1        0.1232
@<TRIPOS>BOND
     1    22    23    1
     2    23    24   ar
     3    24    25   ar
     4    25    26   ar
     5    26    27   ar
     6    27    28   ar
     7    28    29   ar
     8    29    18    1
     9    18    19    2
    10    18    20   am
    11    12    20    1
    12    12    13    1
    13    13    14    1
    14    14    15    1
    15    15     8    1
    16     8     9   am
    17     9    10    2
    18     9     1    1
    19     1     2   ar
    20     2     3   ar
    21     3     4    1
    22     3     5   ar
    23     5     6   ar
    24     6     7   ar
    25     7    32    1
    26    32    33    1
    27    33    34   ar
    28    34    35   ar
    29    35    36   ar
    30    36    37   ar
    31    37    39    1
    32    39    40   ar
    33    40    41   ar
    34    41    42   ar
    35    42    45    1
    36    45    46    1
    37    46    47    1
    38    47    48    1
    39    48    49    1
    40    48    50    1
    41    50    51    1
    42    51    52    1
    43    51    53    1
    44    42    43   ar
    45    43    44   ar
    46    37    38   ar
    47    15    16    1
    48    16    17    1
    49    29    30   ar
    50    30    31   ar
    51    31    23   ar
    52    31    27   ar
    53    17    12    1
    54     7     1   ar
    55    38    33   ar
    56    44    39   ar
    57    53    46    1
    58    20    21    1
    59     8    11    1
    60    50    54    1
@<TRIPOS>MOLECULE
*****
 54 60 0 0 0
SMALL
GASTEIGER

@<TRIPOS>ATOM
      1 C           4.5465   -0.1381   32.1352 C.ar    1  UNL1        0.1090
      2 C           4.2595   -0.4107   33.5820 C.ar    1  UNL1        0.0405
      3 C           5.3910   -0.6080   34.5468 C.ar    1  UNL1        0.1596
      4 F           5.1039   -0.8806   35.9937 F       1  UNL1       -0.2025
      5 C           6.8094   -0.5327   34.0648 C.ar    1  UNL1        0.1316
      6 N           7.0964   -0.2601   32.6180 N.ar    1  UNL1       -0.2073
      7 C           5.9650   -0.0628   31.6531 C.ar    1  UNL1        0.2341
      8 N           3.3447    1.3080   30.3422 N.am    1  UNL1       -0.3024
      9 C           3.4151    0.0593   31.1703 C.2     1  UNL1        0.2504
     10 O           2.3540   -0.9921   31.0336 O.2     1  UNL1       -0.2700
     11 H           4.0412    1.9981   30.4319 H       1  UNL1        0.1497
     12 C          -0.0496    1.9000   27.4477 C.3     1  UNL1        0.0720
     13 C           1.3658    1.8856   26.9510 C.3     1  UNL1        0.0213
     14 C           2.4972    1.6883   27.9158 C.3     1  UNL1        0.0213
     15 C           2.2133    1.5054   29.3774 C.3     1  UNL1        0.0720
     16 C           0.7980    1.5198   29.8740 C.3     1  UNL1        0.0213
     17 C          -0.3334    1.7171   28.9092 C.3     1  UNL1        0.0213
     18 C          -1.8553    3.4333   26.3808 C.2     1  UNL1        0.2651
     19 O          -1.3982    4.5720   27.2437 O.2     1  UNL1       -0.2684
     20 N          -1.1810    2.0974   26.4828 N.am    1  UNL1       -0.3012
     21 H          -1.4810    1.3500   25.9165 H       1  UNL1        0.1497
     22 C          -3.8851    3.4107   20.8163 C.3     1  UNL1        0.0504
     23 C          -4.7964    3.7580   21.9560 C.ar    1  UNL1        0.0432
     24 C          -6.2319    4.1025   21.6903 C.ar    1  UNL1        0.0132
     25 C          -7.1432    4.4498   22.8300 C.ar    1  UNL1        0.0043
     26 C          -6.6190    4.4525   24.2354 C.ar    1  UNL1        0.0374
     27 C          -5.1835    4.1080   24.5011 C.ar    1  UNL1        0.1477
     28 N          -4.3891    4.0276   25.7709 N.ar    1  UNL1       -0.2218
     29 C          -2.9868    3.6307   25.4160 C.ar    1  UNL1        0.1535
     30 C          -2.9146    3.4657   23.9268 C.ar    1  UNL1        0.1050
     31 N          -4.2722    3.7607   23.3614 N.ar    1  UNL1       -0.2925
     32 O           6.2520    0.2098   30.2063 O.3     1  UNL1       -0.4360
     33 C           6.2410   -0.9154   29.2146 C.ar    1  UNL1        0.1472
     34 C           6.9019   -2.2190   29.5521 C.ar    1  UNL1        0.0376
     35 C           6.8909   -3.3444   28.5603 C.ar    1  UNL1        0.0031
     36 C           6.2191   -3.1661   27.2311 C.ar    1  UNL1        0.0002
     37 C           5.5582   -1.8625   26.8936 C.ar    1  UNL1        0.0030
     38 C           5.5691   -0.7372   27.8853 C.ar    1  UNL1        0.0376
     39 C           4.8863   -1.6842   25.5644 C.ar    1  UNL1        0.0001
     40 C           5.3293   -2.4981   24.3849 C.ar    1  UNL1       -0.0003
     41 C           4.6574   -2.3199   23.0557 C.ar    1  UNL1       -0.0029
     42 C           3.5425   -1.3276   22.9060 C.ar    1  UNL1       -0.0061
     43 C           3.0995   -0.5137   24.0855 C.ar    1  UNL1       -0.0029
     44 C           3.7713   -0.6920   25.4147 C.ar    1  UNL1       -0.0003
     45 C           2.8706   -1.1494   21.5768 C.3     1  UNL1        0.0992
     46 N           3.5440   -1.6299   20.3256 N.3     1  UNL1       -0.2666
     47 C           4.0238   -0.6411   19.3048 C.3     1  UNL1        0.0882
     48 C           4.6972   -1.1216   18.0536 C.3     1  UNL1        0.0702
     49 C           5.1770   -0.1328   17.0329 C.3     1  UNL1        0.0186
     50 N           4.8909   -2.5912   17.8231 N.3     1  UNL1       -0.2974
     51 C           4.4111   -3.5801   18.8439 C.3     1  UNL1        0.0702
     52 C           4.6047   -5.0495   18.6135 C.3     1  UNL1        0.0186
     53 C           3.7376   -3.0994   20.0951 C.3     1  UNL1        0.0882
     54 H           5.8937   -2.7426   17.7151 H       1  UNL1        0.1232
@<TRIPOS>BOND
     1    22    23    1
     2    23    24   ar
     3    24    25   ar
     4    25    26   ar
     5    26    27   ar
     6    27    28   ar
     7    28    29   ar
     8    29    18    1
     9    18    19    2
    10    18    20   am
    11    12    20    1
    12    12    13    1
    13    13    14    1
    14    14    15    1
    15    15     8    1
    16     8     9   am
    17     9    10    2
    18     9     1    1
    19     1     2   ar
    20     2     3   ar
    21     3     4    1
    22     3     5   ar
    23     5     6   ar
    24     6     7   ar
    25     7    32    1
    26    32    33    1
    27    33    34   ar
    28    34    35   ar
    29    35    36   ar
    30    36    37   ar
    31    37    39    1
    32    39    40   ar
    33    40    41   ar
    34    41    42   ar
    35    42    45    1
    36    45    46    1
    37    46    47    1
    38    47    48    1
    39    48    49    1
    40    48    50    1
    41    50    51    1
    42    51    52    1
    43    51    53    1
    44    42    43   ar
    45    43    44   ar
    46    37    38   ar
    47    15    16    1
    48    16    17    1
    49    29    30   ar
    50    30    31   ar
    51    31    23   ar
    52    31    27   ar
    53    17    12    1
    54     7     1   ar
    55    38    33   ar
    56    44    39   ar
    57    53    46    1
    58    20    21    1
    59     8    11    1
    60    50    54    1
@<TRIPOS>MOLECULE
*****
 54 60 0 0 0
SMALL
GASTEIGER

@<TRIPOS>ATOM
      1 C          -5.0544    4.5259   23.6480 C.ar    1  UNL1        0.1090
      2 C          -6.1064    5.5203   24.0411 C.ar    1  UNL1        0.0405
      3 C          -7.0795    6.0266   23.0180 C.ar    1  UNL1        0.1596
      4 F          -8.1315    7.0210   23.4111 F       1  UNL1       -0.2025
      5 C          -7.0006    5.5386   21.6018 C.ar    1  UNL1        0.1316
      6 N          -5.9486    4.5442   21.2087 N.ar    1  UNL1       -0.2073
      7 C          -4.9755    4.0379   22.2318 C.ar    1  UNL1        0.2341
      8 N          -2.6122    4.0091   24.3682 N.am    1  UNL1       -0.3024
      9 C          -4.0813    4.0196   24.6711 C.2     1  UNL1        0.2504
     10 O          -4.5773    3.5238   25.9971 O.2     1  UNL1       -0.2700
     11 H          -2.2867    4.3345   23.4980 H       1  UNL1        0.1497
     12 C           0.3070    2.4901   27.4376 C.3     1  UNL1        0.0720
     13 C          -0.3188    3.8433   27.6029 C.3     1  UNL1        0.0213
     14 C          -1.2919    4.3496   26.5798 C.3     1  UNL1        0.0213
     15 C          -1.6391    3.5028   25.3913 C.3     1  UNL1        0.0720
     16 C          -1.0133    2.1497   25.2260 C.3     1  UNL1        0.0213
     17 C          -0.0402    1.6433   26.2491 C.3     1  UNL1        0.0213
     18 C           0.7951    1.1480   29.6079 C.2     1  UNL1        0.2651
     19 O          -0.6629    0.8185   29.7320 O.2     1  UNL1       -0.2684
     20 N           1.2801    1.9838   28.4607 N.am    1  UNL1       -0.3012
     21 H           2.2371    2.2000   28.3792 H       1  UNL1        0.1497
     22 C           3.7499    1.9438   34.6794 C.3     1  UNL1        0.0504
     23 C           3.9291    0.6839   33.8854 C.ar    1  UNL1        0.0432
     24 C           4.8614   -0.3845   34.3744 C.ar    1  UNL1        0.0132
     25 C           5.0407   -1.6445   33.5804 C.ar    1  UNL1        0.0043
     26 C           4.2876   -1.8359   32.2974 C.ar    1  UNL1        0.0374
     27 C           3.3553   -0.7675   31.8084 C.ar    1  UNL1        0.1477
     28 N           2.4852   -0.6753   30.5900 N.ar    1  UNL1       -0.2218
     29 C           1.7682    0.6416   30.6310 C.ar    1  UNL1        0.1535
     30 C           2.1952    1.3633   31.8747 C.ar    1  UNL1        0.1050
     31 N           3.1760    0.4924   32.6024 N.ar    1  UNL1       -0.2925
     32 O          -3.9235    3.0435   21.8388 O.3     1  UNL1       -0.4360
     33 C          -2.8697    3.4217   20.8406 C.ar    1  UNL1        0.1472
     34 C          -3.1084    4.5592   19.8924 C.ar    1  UNL1        0.0376
     35 C          -2.0545    4.9374   18.8942 C.ar    1  UNL1        0.0031
     36 C          -0.7619    4.1780   18.8442 C.ar    1  UNL1        0.0002
     37 C          -0.5231    3.0405   19.7924 C.ar    1  UNL1        0.0030
     38 C          -1.5770    2.6623   20.7906 C.ar    1  UNL1        0.0376
     39 C           0.7695    2.2812   19.7424 C.ar    1  UNL1        0.0001
     40 C           1.7451    2.3857   20.8769 C.ar    1  UNL1       -0.0003
     41 C           3.0377    1.6263   20.8269 C.ar    1  UNL1       -0.0029
     42 C           3.3548    0.7625   19.6423 C.ar    1  UNL1       -0.0061
     43 C           2.3792    0.6580   18.5077 C.ar    1  UNL1       -0.0029
     44 C           1.0866    1.4174   18.5578 C.ar    1  UNL1       -0.0003
     45 C           4.6475    0.0032   19.5922 C.3     1  UNL1        0.0992
     46 N           4.7132   -1.4009   20.1157 N.3     1  UNL1       -0.2666
     47 C           4.9356   -1.6463   21.5787 C.3     1  UNL1        0.0882
     48 C           5.0014   -3.0504   22.1022 C.3     1  UNL1        0.0702
     49 C           5.2238   -3.2957   23.5652 C.3     1  UNL1        0.0186
     50 N           4.8447   -4.2092   21.1627 N.3     1  UNL1       -0.2974
     51 C           4.6223   -3.9639   19.6997 C.3     1  UNL1        0.0702
     52 C           4.4657   -5.1226   18.7602 C.3     1  UNL1        0.0186
     53 C           4.5566   -2.5597   19.1762 C.3     1  UNL1        0.0882
     54 H           4.0475   -4.7519   21.4948 H       1  UNL1        0.1232
@<TRIPOS>BOND
     1    22    23    1
     2    23    24   ar
     3    24    25   ar
     4    25    26   ar
     5    26    27   ar
     6    27    28   ar
     7    28    29   ar
     8    29    18    1
     9    18    19    2
    10    18    20   am
    11    12    20    1
    12    12    13    1
    13    13    14    1
    14    14    15    1
    15    15     8    1
    16     8     9   am
    17     9    10    2
    18     9     1    1
    19     1     2   ar
    20     2     3   ar
    21     3     4    1
    22     3     5   ar
    23     5     6   ar
    24     6     7   ar
    25     7    32    1
    26    32    33    1
    27    33    34   ar
    28    34    35   ar
    29    35    36   ar
    30    36    37   ar
    31    37    39    1
    32    39    40   ar
    33    40    41   ar
    34    41    42   ar
    35    42    45    1
    36    45    46    1
    37    46    47    1
    38    47    48    1
    39    48    49    1
    40    48    50    1
    41    50    51    1
    42    51    52    1
    43    51    53    1
    44    42    43   ar
    45    43    44   ar
    46    37    38   ar
    47    15    16    1
    48    16    17    1
    49    29    30   ar
    50    30    31   ar
    51    31    23   ar
    52    31    27   ar
    53    17    12    1
    54     7     1   ar
    55    38    33   ar
    56    44    39   ar
    57    53    46    1
    58    20    21    1
    59     8    11    1
    60    50    54    1
@<TRIPOS>MOLECULE
*****
 54 60 0 0 0
SMALL
GASTEIGER

@<TRIPOS>ATOM
      1 C          -3.6222    3.5584   23.8255 C.ar    1  UNL1        0.1090
      2 C          -5.1143    3.6553   23.9446 C.ar    1  UNL1        0.0405
      3 C          -5.9526    3.8648   22.7185 C.ar    1  UNL1        0.1596
      4 F          -7.4447    3.9617   22.8377 F       1  UNL1       -0.2025
      5 C          -5.2988    3.9775   21.3732 C.ar    1  UNL1        0.1316
      6 N          -3.8066    3.8806   21.2540 N.ar    1  UNL1       -0.2073
      7 C          -2.9683    3.6711   22.4801 C.ar    1  UNL1        0.2341
      8 N          -1.4139    2.7501   24.9301 N.am    1  UNL1       -0.3024
      9 C          -2.7839    3.3488   25.0516 C.2     1  UNL1        0.2504
     10 O          -3.3155    3.7380   26.3991 O.2     1  UNL1       -0.2700
     11 H          -1.0649    2.4947   24.0457 H       1  UNL1        0.1497
     12 C           1.1010    2.1215   28.6084 C.3     1  UNL1        0.0720
     13 C           1.0092    3.4834   27.9864 C.3     1  UNL1        0.0213
     14 C           0.1709    3.6930   26.7603 C.3     1  UNL1        0.0213
     15 C          -0.5756    2.5406   26.1562 C.3     1  UNL1        0.0720
     16 C          -0.4838    1.1788   26.7782 C.3     1  UNL1        0.0213
     17 C           0.3545    0.9692   28.0044 C.3     1  UNL1        0.0213
     18 C           1.2814    1.7076   31.1670 C.2     1  UNL1        0.2651
     19 O          -0.2148    1.7127   31.2733 O.2     1  UNL1       -0.2684
     20 N           1.9393    1.9120   29.8346 N.am    1  UNL1       -0.3012
     21 H           2.9213    1.9086   29.7648 H       1  UNL1        0.1497
     22 C           2.7252    3.2698   36.6950 C.3     1  UNL1        0.0504
     23 C           3.4304    2.1320   36.0184 C.ar    1  UNL1        0.0432
     24 C           4.5090    1.3816   36.7419 C.ar    1  UNL1        0.0132
     25 C           5.2143    0.2437   36.0652 C.ar    1  UNL1        0.0043
     26 C           4.8410   -0.1438   34.6651 C.ar    1  UNL1        0.0374
     27 C           3.7624    0.6066   33.9416 C.ar    1  UNL1        0.1477
     28 N           3.1830    0.4543   32.5664 N.ar    1  UNL1       -0.2218
     29 C           2.1197    1.4980   32.3931 C.ar    1  UNL1        0.1535
     30 C           2.0419    2.2954   33.6612 C.ar    1  UNL1        0.1050
     31 N           3.0571    1.7445   34.6182 N.ar    1  UNL1       -0.2925
     32 O          -1.4762    3.5742   22.3610 O.3     1  UNL1       -0.4360
     33 C          -0.8463    3.3054   21.0265 C.ar    1  UNL1        0.1472
     34 C          -1.1295    4.2138   19.8668 C.ar    1  UNL1        0.0376
     35 C          -0.4995    3.9449   18.5323 C.ar    1  UNL1        0.0031
     36 C           0.4135    2.7678   18.3574 C.ar    1  UNL1        0.0002
     37 C           0.6967    1.8595   19.5170 C.ar    1  UNL1        0.0030
     38 C           0.0668    2.1282   20.8515 C.ar    1  UNL1        0.0376
     39 C           1.6098    0.6823   19.3421 C.ar    1  UNL1        0.0001
     40 C           2.6189    0.6742   18.2323 C.ar    1  UNL1       -0.0003
     41 C           3.5319   -0.5029   18.0574 C.ar    1  UNL1       -0.0029
     42 C           3.4359   -1.6720   18.9922 C.ar    1  UNL1       -0.0061
     43 C           2.4268   -1.6640   20.1020 C.ar    1  UNL1       -0.0029
     44 C           1.5138   -0.4868   20.2769 C.ar    1  UNL1       -0.0003
     45 C           4.3490   -2.8492   18.8173 C.3     1  UNL1        0.0992
     46 N           5.5934   -2.9629   19.6470 N.3     1  UNL1       -0.2666
     47 C           5.5198   -3.5230   21.0365 C.3     1  UNL1        0.0882
     48 C           6.7643   -3.6367   21.8662 C.3     1  UNL1        0.0702
     49 C           6.6907   -4.1967   23.2558 C.3     1  UNL1        0.0186
     50 N           8.0824   -3.1903   21.3063 N.3     1  UNL1       -0.2974
     51 C           8.1560   -2.6303   19.9167 C.3     1  UNL1        0.0702
     52 C           9.4740   -2.1840   19.3568 C.3     1  UNL1        0.0186
     53 C           6.9115   -2.5166   19.0871 C.3     1  UNL1        0.0882
     54 H           8.7020   -4.0002   21.3306 H       1  UNL1        0.1232
@<TRIPOS>BOND
     1    22    23    1
     2    23    24   ar
     3    24    25   ar
     4    25    26   ar
     5    26    27   ar
     6    27    28   ar
     7    28    29   ar
     8    29    18    1
     9    18    19    2
    10    18    20   am
    11    12    20    1
    12    12    13    1
    13    13    14    1
    14    14    15    1
    15    15     8    1
    16     8     9   am
    17     9    10    2
    18     9     1    1
    19     1     2   ar
    20     2     3   ar
    21     3     4    1
    22     3     5   ar
    23     5     6   ar
    24     6     7   ar
    25     7    32    1
    26    32    33    1
    27    33    34   ar
    28    34    35   ar
    29    35    36   ar
    30    36    37   ar
    31    37    39    1
    32    39    40   ar
    33    40    41   ar
    34    41    42   ar
    35    42    45    1
    36    45    46    1
    37    46    47    1
    38    47    48    1
    39    48    49    1
    40    48    50    1
    41    50    51    1
    42    51    52    1
    43    51    53    1
    44    42    43   ar
    45    43    44   ar
    46    37    38   ar
    47    15    16    1
    48    16    17    1
    49    29    30   ar
    50    30    31   ar
    51    31    23   ar
    52    31    27   ar
    53    17    12    1
    54     7     1   ar
    55    38    33   ar
    56    44    39   ar
    57    53    46    1
    58    20    21    1
    59     8    11    1
    60    50    54    1
@<TRIPOS>MOLECULE
*****
 54 60 0 0 0
SMALL
GASTEIGER

@<TRIPOS>ATOM
      1 C          -1.6485    3.2213   23.4512 C.ar    1  UNL1        0.1090
      2 C          -3.1047    3.5650   23.3456 C.ar    1  UNL1        0.0405
      3 C          -3.7231    3.8049   22.0003 C.ar    1  UNL1        0.1596
      4 F          -5.1794    4.1486   21.8948 F       1  UNL1       -0.2025
      5 C          -2.8853    3.7010   20.7604 C.ar    1  UNL1        0.1316
      6 N          -1.4290    3.3572   20.8659 N.ar    1  UNL1       -0.2073
      7 C          -0.8106    3.1174   22.2113 C.ar    1  UNL1        0.2341
      8 N          -0.3908    1.6596   25.1033 N.am    1  UNL1       -0.3024
      9 C          -1.0300    2.9815   24.7966 C.2     1  UNL1        0.2504
     10 O          -1.0509    4.0635   25.8352 O.2     1  UNL1       -0.2700
     11 H          -0.3771    0.9494   24.4216 H       1  UNL1        0.1497
     12 C           1.4645    0.9401   29.1394 C.3     1  UNL1        0.0720
     13 C           2.3216    1.3701   27.9859 C.3     1  UNL1        0.0213
     14 C           1.7032    1.6099   26.6405 C.3     1  UNL1        0.0213
     15 C           0.2277    1.4197   26.4487 C.3     1  UNL1        0.0720
     16 C          -0.6294    0.9898   27.6021 C.3     1  UNL1        0.0213
     17 C          -0.0110    0.7499   28.9475 C.3     1  UNL1        0.0213
     18 C           2.0487    1.7769   31.5286 C.2     1  UNL1        0.2651
     19 O           1.3960    3.0933   31.2271 O.2     1  UNL1       -0.2684
     20 N           2.0829    0.7003   30.4848 N.am    1  UNL1       -0.3012
     21 H           2.5113   -0.1638   30.6827 H       1  UNL1        0.1497
     22 C           2.4437    3.1280   37.2822 C.3     1  UNL1        0.0504
     23 C           3.2990    2.0441   36.6958 C.ar    1  UNL1        0.0432
     24 C           4.2622    1.2945   37.5677 C.ar    1  UNL1        0.0132
     25 C           5.1175    0.2107   36.9814 C.ar    1  UNL1        0.0043
     26 C           5.0096   -0.1235   35.5231 C.ar    1  UNL1        0.0374
     27 C           4.0464    0.6261   34.6512 C.ar    1  UNL1        0.1477
     28 N           3.7225    0.5193   33.1905 N.ar    1  UNL1       -0.2218
     29 C           2.6671    1.5371   32.8740 C.ar    1  UNL1        0.1535
     30 C           2.3387    2.2729   34.1392 C.ar    1  UNL1        0.1050
     31 N           3.1911    1.7099   35.2375 N.ar    1  UNL1       -0.2925
     32 O           0.6457    2.7736   22.3169 O.3     1  UNL1       -0.4360
     33 C           1.1415    1.4485   21.8187 C.ar    1  UNL1        0.1472
     34 C           0.4688    0.7860   20.6531 C.ar    1  UNL1        0.0376
     35 C           0.9647   -0.5392   20.1550 C.ar    1  UNL1        0.0031
     36 C           2.1331   -1.2018   20.8225 C.ar    1  UNL1        0.0002
     37 C           2.8058   -0.5393   21.9881 C.ar    1  UNL1        0.0030
     38 C           2.3100    0.7858   22.4862 C.ar    1  UNL1        0.0376
     39 C           3.9743   -1.2020   22.6556 C.ar    1  UNL1        0.0001
     40 C           4.8312   -0.4261   23.6113 C.ar    1  UNL1       -0.0003
     41 C           5.9997   -1.0888   24.2787 C.ar    1  UNL1       -0.0029
     42 C           6.3112   -2.5275   23.9904 C.ar    1  UNL1       -0.0061
     43 C           5.4542   -3.3035   23.0347 C.ar    1  UNL1       -0.0029
     44 C           4.2858   -2.6407   22.3673 C.ar    1  UNL1       -0.0003
     45 C           7.4797   -3.1902   24.6579 C.3     1  UNL1        0.0992
     46 N           7.2540   -4.1327   25.8027 N.3     1  UNL1       -0.2666
     47 C           7.0078   -3.5937   27.1807 C.3     1  UNL1        0.0882
     48 C           6.7821   -4.5362   28.3255 C.3     1  UNL1        0.0702
     49 C           6.5360   -3.9972   29.7035 C.3     1  UNL1        0.0186
     50 N           6.8026   -6.0179   28.0923 N.3     1  UNL1       -0.2974
     51 C           7.0487   -6.5570   26.7144 C.3     1  UNL1        0.0702
     52 C           7.0692   -8.0386   26.4812 C.3     1  UNL1        0.0186
     53 C           7.2744   -5.6143   25.5695 C.3     1  UNL1        0.0882
     54 H           5.8951   -6.3755   28.3906 H       1  UNL1        0.1232
@<TRIPOS>BOND
     1    22    23    1
     2    23    24   ar
     3    24    25   ar
     4    25    26   ar
     5    26    27   ar
     6    27    28   ar
     7    28    29   ar
     8    29    18    1
     9    18    19    2
    10    18    20   am
    11    12    20    1
    12    12    13    1
    13    13    14    1
    14    14    15    1
    15    15     8    1
    16     8     9   am
    17     9    10    2
    18     9     1    1
    19     1     2   ar
    20     2     3   ar
    21     3     4    1
    22     3     5   ar
    23     5     6   ar
    24     6     7   ar
    25     7    32    1
    26    32    33    1
    27    33    34   ar
    28    34    35   ar
    29    35    36   ar
    30    36    37   ar
    31    37    39    1
    32    39    40   ar
    33    40    41   ar
    34    41    42   ar
    35    42    45    1
    36    45    46    1
    37    46    47    1
    38    47    48    1
    39    48    49    1
    40    48    50    1
    41    50    51    1
    42    51    52    1
    43    51    53    1
    44    42    43   ar
    45    43    44   ar
    46    37    38   ar
    47    15    16    1
    48    16    17    1
    49    29    30   ar
    50    30    31   ar
    51    31    23   ar
    52    31    27   ar
    53    17    12    1
    54     7     1   ar
    55    38    33   ar
    56    44    39   ar
    57    53    46    1
    58    20    21    1
    59     8    11    1
    60    50    54    1
@<TRIPOS>MOLECULE
*****
 54 60 0 0 0
SMALL
GASTEIGER

@<TRIPOS>ATOM
      1 C           1.6500    3.1618   33.6579 C.ar    1  UNL1        0.1090
      2 C           1.0000    4.5051   33.8092 C.ar    1  UNL1        0.0405
      3 C           1.0266    5.2063   35.1349 C.ar    1  UNL1        0.1596
      4 F           0.3765    6.5497   35.2861 F       1  UNL1       -0.2025
      5 C           1.7034    4.5642   36.3095 C.ar    1  UNL1        0.1316
      6 N           2.3535    3.2208   36.1583 N.ar    1  UNL1       -0.2073
      7 C           2.3268    2.5196   34.8325 C.ar    1  UNL1        0.2341
      8 N           2.8934    2.2764   31.5555 N.am    1  UNL1       -0.3024
      9 C           1.6234    2.4607   32.3322 C.2     1  UNL1        0.2504
     10 O           0.3268    1.9438   31.7831 O.2     1  UNL1       -0.2700
     11 H           3.7445    2.6156   31.9160 H       1  UNL1        0.1497
     12 C           2.8134    0.1729   27.5782 C.3     1  UNL1        0.0720
     13 C           2.5323    1.6444   27.6542 C.3     1  UNL1        0.0213
     14 C           2.5590    2.3456   28.9800 C.3     1  UNL1        0.0213
     15 C           2.8667    1.5752   30.2298 C.3     1  UNL1        0.0720
     16 C           3.1478    0.1038   30.1538 C.3     1  UNL1        0.0213
     17 C           3.1211   -0.5974   28.8280 C.3     1  UNL1        0.0213
     18 C           3.9998   -0.5110   25.3703 C.2     1  UNL1        0.2651
     19 O           5.2395    0.2075   25.8140 O.2     1  UNL1       -0.2684
     20 N           2.7867   -0.5283   26.2525 N.am    1  UNL1       -0.3012
     21 H           1.9730   -0.9999   25.9613 H       1  UNL1        0.1497
     22 C           2.1845   -0.7141   19.7358 C.3     1  UNL1        0.0504
     23 C           3.0467   -1.8063   20.2960 C.ar    1  UNL1        0.0432
     24 C           3.4547   -2.9595   19.4281 C.ar    1  UNL1        0.0132
     25 C           4.3169   -4.0516   19.9883 C.ar    1  UNL1        0.0043
     26 C           4.7712   -3.9905   21.4165 C.ar    1  UNL1        0.0374
     27 C           4.3631   -2.8372   22.2845 C.ar    1  UNL1        0.1477
     28 N           4.6549   -2.5078   23.7185 N.ar    1  UNL1       -0.2218
     29 C           3.9731   -1.2122   24.0446 C.ar    1  UNL1        0.1535
     30 C           3.2599   -0.7408   22.8121 C.ar    1  UNL1        0.1050
     31 N           3.5009   -1.7451   21.7243 N.ar    1  UNL1       -0.2925
     32 O           2.9769    1.1763   34.6813 O.3     1  UNL1       -0.4360
     33 C           4.4446    1.0824   34.3862 C.ar    1  UNL1        0.1472
     34 C           5.3508    2.2315   34.7153 C.ar    1  UNL1        0.0376
     35 C           6.8185    2.1375   34.4201 C.ar    1  UNL1        0.0031
     36 C           7.3799    0.8944   33.7960 C.ar    1  UNL1        0.0002
     37 C           6.4737   -0.2547   33.4669 C.ar    1  UNL1        0.0030
     38 C           5.0060   -0.1607   33.7620 C.ar    1  UNL1        0.0376
     39 C           7.0351   -1.4978   32.8427 C.ar    1  UNL1        0.0001
     40 C           6.1301   -2.6497   32.5205 C.ar    1  UNL1       -0.0003
     41 C           6.6916   -3.8928   31.8963 C.ar    1  UNL1       -0.0029
     42 C           8.1581   -3.9838   31.5945 C.ar    1  UNL1       -0.0061
     43 C           9.0631   -2.8319   31.9167 C.ar    1  UNL1       -0.0029
     44 C           8.5016   -1.5888   32.5409 C.ar    1  UNL1       -0.0003
     45 C           8.7196   -5.2269   30.9703 C.3     1  UNL1        0.0992
     46 N           8.3467   -5.5946   29.5647 N.3     1  UNL1       -0.2666
     47 C           8.5007   -7.0104   29.0938 C.3     1  UNL1        0.0882
     48 C           8.1278   -7.3780   27.6882 C.3     1  UNL1        0.0702
     49 C           8.2818   -8.7938   27.2173 C.3     1  UNL1        0.0186
     50 N           7.6010   -6.3298   26.7534 N.3     1  UNL1       -0.2974
     51 C           7.4471   -4.9140   27.2242 C.3     1  UNL1        0.0702
     52 C           6.9203   -3.8658   26.2895 C.3     1  UNL1        0.0186
     53 C           7.8199   -4.5464   28.6299 C.3     1  UNL1        0.0882
     54 H           6.6780   -6.6417   26.4513 H       1  UNL1        0.1232
@<TRIPOS>BOND
     1    22    23    1
     2    23    24   ar
     3    24    25   ar
     4    25    26   ar
     5    26    27   ar
     6    27    28   ar
     7    28    29   ar
     8    29    18    1
     9    18    19    2
    10    18    20   am
    11    12    20    1
    12    12    13    1
    13    13    14    1
    14    14    15    1
    15    15     8    1
    16     8     9   am
    17     9    10    2
    18     9     1    1
    19     1     2   ar
    20     2     3   ar
    21     3     4    1
    22     3     5   ar
    23     5     6   ar
    24     6     7   ar
    25     7    32    1
    26    32    33    1
    27    33    34   ar
    28    34    35   ar
    29    35    36   ar
    30    36    37   ar
    31    37    39    1
    32    39    40   ar
    33    40    41   ar
    34    41    42   ar
    35    42    45    1
    36    45    46    1
    37    46    47    1
    38    47    48    1
    39    48    49    1
    40    48    50    1
    41    50    51    1
    42    51    52    1
    43    51    53    1
    44    42    43   ar
    45    43    44   ar
    46    37    38   ar
    47    15    16    1
    48    16    17    1
    49    29    30   ar
    50    30    31   ar
    51    31    23   ar
    52    31    27   ar
    53    17    12    1
    54     7     1   ar
    55    38    33   ar
    56    44    39   ar
    57    53    46    1
    58    20    21    1
    59     8    11    1
    60    50    54    1
@<TRIPOS>MOLECULE
*****
 54 60 0 0 0
SMALL
GASTEIGER

@<TRIPOS>ATOM
      1 C           3.8517    1.5039   33.0048 C.ar    1  UNL1        0.1090
      2 C           5.0190    1.6265   33.9387 C.ar    1  UNL1        0.0405
      3 C           4.8017    2.0611   35.3579 C.ar    1  UNL1        0.1596
      4 F           5.9691    2.1836   36.2918 F       1  UNL1       -0.2025
      5 C           3.4171    2.3731   35.8430 C.ar    1  UNL1        0.1316
      6 N           2.2497    2.2506   34.9090 N.ar    1  UNL1       -0.2073
      7 C           2.4670    1.8160   33.4899 C.ar    1  UNL1        0.2341
      8 N           3.5152   -0.2409   31.1093 N.am    1  UNL1       -0.3024
      9 C           4.0690    1.0693   31.5857 C.2     1  UNL1        0.2504
     10 O           4.8401    1.9448   30.6429 O.2     1  UNL1       -0.2700
     11 H           3.0091   -0.8155   31.7281 H       1  UNL1        0.1497
     12 C           4.1671   -1.5446   26.8520 C.3     1  UNL1        0.0720
     13 C           5.2303   -1.7876   27.8819 C.3     1  UNL1        0.0213
     14 C           5.0130   -1.3530   29.3010 C.3     1  UNL1        0.0213
     15 C           3.7325   -0.6755   29.6902 C.3     1  UNL1        0.0720
     16 C           2.6694   -0.4326   28.6603 C.3     1  UNL1        0.0213
     17 C           2.8867   -0.8672   27.2412 C.3     1  UNL1        0.0213
     18 C           4.7644   -0.9708   24.3895 C.2     1  UNL1        0.2651
     19 O           4.9270    0.4722   24.7652 O.2     1  UNL1       -0.2684
     20 N           4.3844   -1.9792   25.4329 N.am    1  UNL1       -0.3012
     21 H           4.2776   -2.9264   25.1863 H       1  UNL1        0.1497
     22 C           3.6456   -4.7668   19.9823 C.3     1  UNL1        0.0504
     23 C           4.5749   -3.6087   19.7699 C.ar    1  UNL1        0.0432
     24 C           5.2278   -3.4060   18.4348 C.ar    1  UNL1        0.0132
     25 C           6.1571   -2.2479   18.2224 C.ar    1  UNL1        0.0043
     26 C           6.4336   -1.2925   19.3452 C.ar    1  UNL1        0.0374
     27 C           5.7807   -1.4952   20.6803 C.ar    1  UNL1        0.1477
     28 N           5.8612   -0.7240   21.9644 N.ar    1  UNL1       -0.2218
     29 C           4.9817   -1.4054   22.9704 C.ar    1  UNL1        0.1535
     30 C           4.3576   -2.5978   22.3080 C.ar    1  UNL1        0.1050
     31 N           4.8514   -2.6533   20.8927 N.ar    1  UNL1       -0.2925
     32 O           1.2997    1.6934   32.5560 O.3     1  UNL1       -0.4360
     33 C           0.9854    2.8045   31.5985 C.ar    1  UNL1        0.1472
     34 C           0.8306    4.2084   32.1035 C.ar    1  UNL1        0.0376
     35 C           0.5163    5.3195   31.1460 C.ar    1  UNL1        0.0031
     36 C           0.3568    5.0266   29.6836 C.ar    1  UNL1        0.0002
     37 C           0.5116    3.6227   29.1786 C.ar    1  UNL1        0.0030
     38 C           0.8259    2.5116   30.1360 C.ar    1  UNL1        0.0376
     39 C           0.3521    3.3298   27.7161 C.ar    1  UNL1        0.0001
     40 C           0.5015    4.4321   26.7098 C.ar    1  UNL1       -0.0003
     41 C           0.3419    4.1393   25.2474 C.ar    1  UNL1       -0.0029
     42 C           0.0331    2.7441   24.7912 C.ar    1  UNL1       -0.0061
     43 C          -0.1163    1.6418   25.7975 C.ar    1  UNL1       -0.0029
     44 C           0.0433    1.9347   27.2599 C.ar    1  UNL1       -0.0003
     45 C          -0.1264    2.4512   23.3287 C.3     1  UNL1        0.0992
     46 N           1.0423    1.9522   22.5319 N.3     1  UNL1       -0.2666
     47 C           0.8783    0.7752   21.6166 C.3     1  UNL1        0.0882
     48 C           2.0471    0.2761   20.8198 C.3     1  UNL1        0.0702
     49 C           1.8830   -0.9009   19.9045 C.3     1  UNL1        0.0186
     50 N           3.3799    0.9541   20.9383 N.3     1  UNL1       -0.2974
     51 C           3.5439    2.1311   21.8536 C.3     1  UNL1        0.0702
     52 C           4.8767    2.8090   21.9721 C.3     1  UNL1        0.0186
     53 C           2.3751    2.6301   22.6504 C.3     1  UNL1        0.0882
     54 H           3.6332    1.2712   20.0025 H       1  UNL1        0.1232
@<TRIPOS>BOND
     1    22    23    1
     2    23    24   ar
     3    24    25   ar
     4    25    26   ar
     5    26    27   ar
     6    27    28   ar
     7    28    29   ar
     8    29    18    1
     9    18    19    2
    10    18    20   am
    11    12    20    1
    12    12    13    1
    13    13    14    1
    14    14    15    1
    15    15     8    1
    16     8     9   am
    17     9    10    2
    18     9     1    1
    19     1     2   ar
    20     2     3   ar
    21     3     4    1
    22     3     5   ar
    23     5     6   ar
    24     6     7   ar
    25     7    32    1
    26    32    33    1
    27    33    34   ar
    28    34    35   ar
    29    35    36   ar
    30    36    37   ar
    31    37    39    1
    32    39    40   ar
    33    40    41   ar
    34    41    42   ar
    35    42    45    1
    36    45    46    1
    37    46    47    1
    38    47    48    1
    39    48    49    1
    40    48    50    1
    41    50    51    1
    42    51    52    1
    43    51    53    1
    44    42    43   ar
    45    43    44   ar
    46    37    38   ar
    47    15    16    1
    48    16    17    1
    49    29    30   ar
    50    30    31   ar
    51    31    23   ar
    52    31    27   ar
    53    17    12    1
    54     7     1   ar
    55    38    33   ar
    56    44    39   ar
    57    53    46    1
    58    20    21    1
    59     8    11    1
    60    50    54    1
