@<TRIPOS>MOLECULE
*****
 29 33 0 0 0
SMALL
GASTEIGER

@<TRIPOS>ATOM
      1 C           6.7459   -4.3852   23.7810 C.ar    1  UNL1        0.1845
      2 N           7.6472   -5.1468   22.8549 N.ar    1  UNL1       -0.1274
      3 N           7.3224   -4.7350   21.4496 N.ar    1  UNL1       -0.1316
      4 C           6.2205   -3.7189   21.5072 C.ar    1  UNL1        0.1615
      5 N           5.8642   -3.5027   22.9481 N.ar    1  UNL1       -0.2944
      6 C           4.7828   -2.5303   23.3156 C.3     1  UNL1        0.1302
      7 C           4.0578   -1.7740   22.2421 C.3     1  UNL1        0.1186
      8 N           4.4141   -1.9902   20.8011 N.am    1  UNL1       -0.2688
      9 C           3.6890   -1.2339   19.7277 C.2     1  UNL1        0.2493
     10 O           4.0453   -1.4501   18.2867 O.2     1  UNL1       -0.2699
     11 C           5.4954   -2.9627   20.4337 C.3     1  UNL1        0.1343
     12 C           5.8517   -3.1789   18.9927 C.3     1  UNL1        0.0298
     13 C           6.4662   -3.1169   28.8990 C.3     1  UNL1        0.0594
     14 C           6.6007   -3.9050   27.6300 C.ar    1  UNL1        0.0887
     15 N           6.5528   -3.3491   26.2375 N.ar    1  UNL1       -0.2396
     16 C           6.7293   -4.4880   25.2774 C.ar    1  UNL1        0.1237
     17 C           6.8863   -5.7478   26.0764 C.ar    1  UNL1        0.0588
     18 S           6.8068   -5.3875   27.5303 S.2     1  UNL1       -0.0701
     19 C           2.6077   -0.2615   20.0951 C.ar    1  UNL1        0.0536
     20 C           2.9480    1.1766   20.3522 C.ar    1  UNL1        0.0045
     21 C           1.8666    2.1491   20.7197 C.ar    1  UNL1        0.0006
     22 C           0.4450    1.6834   20.8301 C.ar    1  UNL1        0.0060
     23 C           0.1047    0.2453   20.5730 C.ar    1  UNL1        0.0006
     24 C           1.1861   -0.7271   20.2055 C.ar    1  UNL1        0.0045
     25 C          -0.6364    2.6558   21.1976 C.ar    1  UNL1        0.0295
     26 C          -1.7182    3.1569   20.2873 C.ar    1  UNL1        0.0070
     27 C          -2.5762    4.1087   21.0670 C.ar    1  UNL1        0.0075
     28 C          -2.0247    4.1958   22.4593 C.ar    1  UNL1        0.0354
     29 S          -0.8258    3.2979   22.5400 S.2     1  UNL1       -0.0864
@<TRIPOS>BOND
     1    13    14    1
     2    14    15   ar
     3    15    16   ar
     4    16     1    1
     5     1     2   ar
     6     2     3   ar
     7     3     4   ar
     8     4     5   ar
     9     5     6    1
    10     6     7    1
    11     7     8    1
    12     8     9   am
    13     9    10    2
    14     9    19    1
    15    19    20   ar
    16    20    21   ar
    17    21    22   ar
    18    22    25    1
    19    25    26   ar
    20    26    27   ar
    21    27    28   ar
    22    28    29   ar
    23    22    23   ar
    24    23    24   ar
    25     8    11    1
    26    11    12    1
    27    16    17   ar
    28    17    18   ar
    29    18    14   ar
    30     5     1   ar
    31    24    19   ar
    32    11     4    1
    33    29    25   ar
@<TRIPOS>MOLECULE
*****
 29 33 0 0 0
SMALL
GASTEIGER

@<TRIPOS>ATOM
      1 C           8.2076   -5.5789   27.6883 C.ar    1  UNL1        0.1845
      2 N           9.3041   -6.5842   27.4958 N.ar    1  UNL1       -0.1274
      3 N           9.5345   -6.7423   26.0221 N.ar    1  UNL1       -0.1316
      4 C           8.5805   -5.8347   25.3037 C.ar    1  UNL1        0.1615
      5 N           7.7604   -5.1156   26.3335 N.ar    1  UNL1       -0.2944
      6 C           6.7124   -4.1320   25.9045 C.3     1  UNL1        0.1302
      7 C           6.4844   -3.8674   24.4457 C.3     1  UNL1        0.1186
      8 N           7.3045   -4.5864   23.4159 N.am    1  UNL1       -0.2688
      9 C           7.0766   -4.3219   21.9571 C.2     1  UNL1        0.2493
     10 O           7.8966   -5.0410   20.9274 O.2     1  UNL1       -0.2699
     11 C           8.3525   -5.5701   23.8450 C.3     1  UNL1        0.1343
     12 C           9.1726   -6.2892   22.8152 C.3     1  UNL1        0.0298
     13 C           5.9958   -2.5872   31.4350 C.3     1  UNL1        0.0594
     14 C           6.6386   -3.7425   30.7267 C.ar    1  UNL1        0.0887
     15 N           7.0608   -3.7699   29.2875 N.ar    1  UNL1       -0.2396
     16 C           7.6553   -5.1176   29.0044 C.ar    1  UNL1        0.1237
     17 C           7.6005   -5.9233   30.2685 C.ar    1  UNL1        0.0588
     18 S           6.9722   -5.0734   31.3329 S.2     1  UNL1       -0.0701
     19 C           6.0286   -3.3382   21.5281 C.ar    1  UNL1        0.0536
     20 C           6.3819   -1.8897   21.3640 C.ar    1  UNL1        0.0045
     21 C           5.3338   -0.9060   20.9350 C.ar    1  UNL1        0.0006
     22 C           3.9325   -1.3709   20.6701 C.ar    1  UNL1        0.0060
     23 C           3.5792   -2.8194   20.8342 C.ar    1  UNL1        0.0006
     24 C           4.6272   -3.8031   21.2632 C.ar    1  UNL1        0.0045
     25 C           2.8844   -0.3872   20.2411 C.ar    1  UNL1        0.0295
     26 C           1.4276   -0.6825   20.0404 C.ar    1  UNL1        0.0070
     27 C           0.7520    0.5867   19.6127 C.ar    1  UNL1        0.0075
     28 C           1.7914    1.6664   19.5491 C.ar    1  UNL1        0.0354
     29 S           3.1094    1.0644   19.9375 S.2     1  UNL1       -0.0864
@<TRIPOS>BOND
     1    13    14    1
     2    14    15   ar
     3    15    16   ar
     4    16     1    1
     5     1     2   ar
     6     2     3   ar
     7     3     4   ar
     8     4     5   ar
     9     5     6    1
    10     6     7    1
    11     7     8    1
    12     8     9   am
    13     9    10    2
    14     9    19    1
    15    19    20   ar
    16    20    21   ar
    17    21    22   ar
    18    22    25    1
    19    25    26   ar
    20    26    27   ar
    21    27    28   ar
    22    28    29   ar
    23    22    23   ar
    24    23    24   ar
    25     8    11    1
    26    11    12    1
    27    16    17   ar
    28    17    18   ar
    29    18    14   ar
    30     5     1   ar
    31    24    19   ar
    32    11     4    1
    33    29    25   ar
@<TRIPOS>MOLECULE
*****
 29 33 0 0 0
SMALL
GASTEIGER

@<TRIPOS>ATOM
      1 C           6.8763   -3.9554   29.7061 C.ar    1  UNL1        0.1845
      2 N           7.6218   -5.1928   30.1100 N.ar    1  UNL1       -0.1274
      3 N           7.9881   -5.9411   28.8627 N.ar    1  UNL1       -0.1316
      4 C           7.4690   -5.1662   27.6879 C.ar    1  UNL1        0.1615
      5 N           6.7819   -3.9390   28.2091 N.ar    1  UNL1       -0.2944
      6 C           6.1590   -2.9651   27.2534 C.3     1  UNL1        0.1302
      7 C           6.2232   -3.2184   25.7763 C.3     1  UNL1        0.1186
      8 N           6.9104   -4.4457   25.2550 N.am    1  UNL1       -0.2688
      9 C           6.9746   -4.6990   23.7780 C.2     1  UNL1        0.2493
     10 O           7.6617   -5.9263   23.2567 O.2     1  UNL1       -0.2699
     11 C           7.5333   -5.4196   26.2108 C.3     1  UNL1        0.1343
     12 C           8.2204   -6.6468   25.6896 C.3     1  UNL1        0.0298
     13 C           4.7366   -1.6315   33.9371 C.3     1  UNL1        0.0594
     14 C           5.3389   -1.8486   32.5807 C.ar    1  UNL1        0.0887
     15 N           5.7846   -3.1641   32.0141 N.ar    1  UNL1       -0.2396
     16 C           6.3225   -2.9168   30.6359 C.ar    1  UNL1        0.1237
     17 C           6.2093   -1.4485   30.3506 C.ar    1  UNL1        0.0588
     18 S           5.6015   -0.7883   31.5526 S.2     1  UNL1       -0.0701
     19 C           6.3517   -3.7251   22.8222 C.ar    1  UNL1        0.0536
     20 C           7.1707   -2.6048   22.2529 C.ar    1  UNL1        0.0045
     21 C           6.5477   -1.6309   21.2971 C.ar    1  UNL1        0.0006
     22 C           5.1058   -1.7774   20.9107 C.ar    1  UNL1        0.0060
     23 C           4.2868   -2.8977   21.4800 C.ar    1  UNL1        0.0006
     24 C           4.9097   -3.8715   22.4358 C.ar    1  UNL1        0.0045
     25 C           4.4828   -0.8035   19.9549 C.ar    1  UNL1        0.0295
     26 C           3.1152   -0.9149   19.3490 C.ar    1  UNL1        0.0070
     27 C           2.9052    0.2725   18.4569 C.ar    1  UNL1        0.0075
     28 C           4.1432    1.1179   18.5114 C.ar    1  UNL1        0.0354
     29 S           5.1182    0.4529   19.4373 S.2     1  UNL1       -0.0864
@<TRIPOS>BOND
     1    13    14    1
     2    14    15   ar
     3    15    16   ar
     4    16     1    1
     5     1     2   ar
     6     2     3   ar
     7     3     4   ar
     8     4     5   ar
     9     5     6    1
    10     6     7    1
    11     7     8    1
    12     8     9   am
    13     9    10    2
    14     9    19    1
    15    19    20   ar
    16    20    21   ar
    17    21    22   ar
    18    22    25    1
    19    25    26   ar
    20    26    27   ar
    21    27    28   ar
    22    28    29   ar
    23    22    23   ar
    24    23    24   ar
    25     8    11    1
    26    11    12    1
    27    16    17   ar
    28    17    18   ar
    29    18    14   ar
    30     5     1   ar
    31    24    19   ar
    32    11     4    1
    33    29    25   ar
@<TRIPOS>MOLECULE
*****
 29 33 0 0 0
SMALL
GASTEIGER

@<TRIPOS>ATOM
      1 C          -0.2445    2.5774   20.5762 C.ar    1  UNL1        0.1845
      2 N          -1.4543    3.2718   20.0246 N.ar    1  UNL1       -0.1274
      3 N          -2.3231    3.6759   21.1786 N.ar    1  UNL1       -0.1316
      4 C          -1.6503    3.2314   22.4434 C.ar    1  UNL1        0.1615
      5 N          -0.3656    2.5525   22.0711 N.ar    1  UNL1       -0.2944
      6 C           0.5279    1.9992   23.1413 C.3     1  UNL1        0.1302
      7 C           0.1367    2.1249   24.5840 C.3     1  UNL1        0.1186
      8 N          -1.1480    2.8038   24.9564 N.am    1  UNL1       -0.2688
      9 C          -1.5391    2.9295   26.3990 C.2     1  UNL1        0.2493
     10 O          -2.8238    3.6084   26.7713 O.2     1  UNL1       -0.2699
     11 C          -2.0415    3.3570   23.8860 C.3     1  UNL1        0.1343
     12 C          -3.3262    4.0359   24.2583 C.3     1  UNL1        0.0298
     13 C           4.4411    1.9967   18.2121 C.3     1  UNL1        0.0594
     14 C           3.0415    1.7411   18.6871 C.ar    1  UNL1        0.0887
     15 N           2.2189    2.6593   19.5418 N.ar    1  UNL1       -0.2396
     16 C           0.8877    2.0080   19.7738 C.ar    1  UNL1        0.1237
     17 C           0.8875    0.6874   19.0624 C.ar    1  UNL1        0.0588
     18 S           2.2185    0.5225   18.3908 S.2     1  UNL1       -0.0701
     19 C          -0.6456    2.3763   27.4692 C.ar    1  UNL1        0.0536
     20 C           0.4513    3.2236   28.0426 C.ar    1  UNL1        0.0045
     21 C           1.3449    2.6703   29.1129 C.ar    1  UNL1        0.0006
     22 C           1.1415    1.2698   29.6098 C.ar    1  UNL1        0.0060
     23 C           0.0445    0.4224   29.0365 C.ar    1  UNL1        0.0006
     24 C          -0.8490    0.9756   27.9662 C.ar    1  UNL1        0.0045
     25 C           2.0350    0.7165   30.6801 C.ar    1  UNL1        0.0295
     26 C           2.7627   -0.5943   30.6308 C.ar    1  UNL1        0.0070
     27 C           3.5351   -0.7440   31.9078 C.ar    1  UNL1        0.0075
     28 C           3.2848    0.4742   32.7465 C.ar    1  UNL1        0.0354
     29 S           2.3577    1.3769   31.9877 S.2     1  UNL1       -0.0864
@<TRIPOS>BOND
     1    13    14    1
     2    14    15   ar
     3    15    16   ar
     4    16     1    1
     5     1     2   ar
     6     2     3   ar
     7     3     4   ar
     8     4     5   ar
     9     5     6    1
    10     6     7    1
    11     7     8    1
    12     8     9   am
    13     9    10    2
    14     9    19    1
    15    19    20   ar
    16    20    21   ar
    17    21    22   ar
    18    22    25    1
    19    25    26   ar
    20    26    27   ar
    21    27    28   ar
    22    28    29   ar
    23    22    23   ar
    24    23    24   ar
    25     8    11    1
    26    11    12    1
    27    16    17   ar
    28    17    18   ar
    29    18    14   ar
    30     5     1   ar
    31    24    19   ar
    32    11     4    1
    33    29    25   ar
@<TRIPOS>MOLECULE
*****
 29 33 0 0 0
SMALL
GASTEIGER

@<TRIPOS>ATOM
      1 C           2.2942   -0.3708   19.7685 C.ar    1  UNL1        0.1845
      2 N           1.5303    0.2394   18.6309 N.ar    1  UNL1       -0.1274
      3 N           0.5806    1.2513   19.2003 N.ar    1  UNL1       -0.1316
      4 C           0.7575    1.2665   20.6897 C.ar    1  UNL1        0.1615
      5 N           1.8166    0.2640   21.0409 N.ar    1  UNL1       -0.2944
      6 C           2.2092    0.0586   22.4740 C.3     1  UNL1        0.1302
      7 C           1.5428    0.8558   23.5559 C.3     1  UNL1        0.1186
      8 N           0.4837    1.8583   23.2047 N.am    1  UNL1       -0.2688
      9 C          -0.1827    2.6554   24.2865 C.2     1  UNL1        0.2493
     10 O          -1.2418    3.6580   23.9353 O.2     1  UNL1       -0.2699
     11 C           0.0911    2.0636   21.7715 C.3     1  UNL1        0.1343
     12 C          -0.9680    3.0662   21.4203 C.3     1  UNL1        0.0298
     13 C           4.6978   -4.9945   18.9177 C.3     1  UNL1        0.0594
     14 C           4.4551   -3.5552   19.2628 C.ar    1  UNL1        0.0887
     15 N           3.1290   -2.8543   19.2391 N.ar    1  UNL1       -0.2396
     16 C           3.3502   -1.4298   19.6539 C.ar    1  UNL1        0.1237
     17 C           4.8129   -1.2503   19.9339 C.ar    1  UNL1        0.0588
     18 S           5.4957   -2.5638   19.6922 S.2     1  UNL1       -0.0701
     19 C           0.2099    2.4501   25.7195 C.ar    1  UNL1        0.0536
     20 C          -0.5266    1.4523   26.5633 C.ar    1  UNL1        0.0045
     21 C          -0.1339    1.2470   27.9965 C.ar    1  UNL1        0.0006
     22 C           0.9953    2.0394   28.5856 C.ar    1  UNL1        0.0060
     23 C           1.7317    3.0371   27.7418 C.ar    1  UNL1        0.0006
     24 C           1.3391    3.2425   26.3087 C.ar    1  UNL1        0.0045
     25 C           1.3879    1.8340   30.0187 C.ar    1  UNL1        0.0295
     26 C           0.7551    2.4914   31.2092 C.ar    1  UNL1        0.0070
     27 C           1.4585    1.9989   32.4391 C.ar    1  UNL1        0.0075
     28 C           2.5261    1.0371   32.0088 C.ar    1  UNL1        0.0354
     29 S           2.4825    0.9352   30.5128 S.2     1  UNL1       -0.0864
@<TRIPOS>BOND
     1    13    14    1
     2    14    15   ar
     3    15    16   ar
     4    16     1    1
     5     1     2   ar
     6     2     3   ar
     7     3     4   ar
     8     4     5   ar
     9     5     6    1
    10     6     7    1
    11     7     8    1
    12     8     9   am
    13     9    10    2
    14     9    19    1
    15    19    20   ar
    16    20    21   ar
    17    21    22   ar
    18    22    25    1
    19    25    26   ar
    20    26    27   ar
    21    27    28   ar
    22    28    29   ar
    23    22    23   ar
    24    23    24   ar
    25     8    11    1
    26    11    12    1
    27    16    17   ar
    28    17    18   ar
    29    18    14   ar
    30     5     1   ar
    31    24    19   ar
    32    11     4    1
    33    29    25   ar
@<TRIPOS>MOLECULE
*****
 29 33 0 0 0
SMALL
GASTEIGER

@<TRIPOS>ATOM
      1 C           4.3333   -1.8511   19.5727 C.ar    1  UNL1        0.1845
      2 N           5.0651   -2.3453   18.3601 N.ar    1  UNL1       -0.1274
      3 N           6.2374   -3.1573   18.8252 N.ar    1  UNL1       -0.1316
      4 C           6.2301   -3.1650   20.3252 C.ar    1  UNL1        0.1615
      5 N           5.0533   -2.3577   20.7872 N.ar    1  UNL1       -0.2944
      6 C           4.7894   -2.1883   22.2540 C.3     1  UNL1        0.1302
      7 C           5.7024   -2.8261   23.2589 C.3     1  UNL1        0.1186
      8 N           6.8792   -3.6333   22.7969 N.am    1  UNL1       -0.2688
      9 C           7.7921   -4.2711   23.8017 C.2     1  UNL1        0.2493
     10 O           8.9690   -5.0784   23.3398 O.2     1  UNL1       -0.2699
     11 C           7.1431   -3.8028   21.3300 C.3     1  UNL1        0.1343
     12 C           8.3199   -4.6100   20.8680 C.3     1  UNL1        0.0298
     13 C           0.8218    1.9008   18.3590 C.3     1  UNL1        0.0594
     14 C           1.4842    0.7248   19.0132 C.ar    1  UNL1        0.0887
     15 N           2.8359    0.1714   18.6714 N.ar    1  UNL1       -0.2396
     16 C           3.0983   -0.9998   19.5711 C.ar    1  UNL1        0.1237
     17 C           1.9088   -1.1703   20.4690 C.ar    1  UNL1        0.0588
     18 S           0.9113   -0.1044   20.1242 S.2     1  UNL1       -0.0701
     19 C           7.5282   -4.1017   25.2686 C.ar    1  UNL1        0.0536
     20 C           6.8007   -5.1711   26.0282 C.ar    1  UNL1        0.0045
     21 C           6.5368   -5.0015   27.4951 C.ar    1  UNL1        0.0006
     22 C           7.0005   -3.7627   28.2023 C.ar    1  UNL1        0.0060
     23 C           7.7280   -2.6932   27.4426 C.ar    1  UNL1        0.0006
     24 C           7.9919   -2.8627   25.9758 C.ar    1  UNL1        0.0045
     25 C           6.7366   -3.5931   29.6692 C.ar    1  UNL1        0.0295
     26 C           6.1762   -2.3678   30.3284 C.ar    1  UNL1        0.0070
     27 C           6.0801   -2.6366   31.8009 C.ar    1  UNL1        0.0075
     28 C           6.5810   -4.0281   32.0519 C.ar    1  UNL1        0.0354
     29 S           6.9868   -4.6193   30.7343 S.2     1  UNL1       -0.0864
@<TRIPOS>BOND
     1    13    14    1
     2    14    15   ar
     3    15    16   ar
     4    16     1    1
     5     1     2   ar
     6     2     3   ar
     7     3     4   ar
     8     4     5   ar
     9     5     6    1
    10     6     7    1
    11     7     8    1
    12     8     9   am
    13     9    10    2
    14     9    19    1
    15    19    20   ar
    16    20    21   ar
    17    21    22   ar
    18    22    25    1
    19    25    26   ar
    20    26    27   ar
    21    27    28   ar
    22    28    29   ar
    23    22    23   ar
    24    23    24   ar
    25     8    11    1
    26    11    12    1
    27    16    17   ar
    28    17    18   ar
    29    18    14   ar
    30     5     1   ar
    31    24    19   ar
    32    11     4    1
    33    29    25   ar
@<TRIPOS>MOLECULE
*****
 29 33 0 0 0
SMALL
GASTEIGER

@<TRIPOS>ATOM
      1 C           4.4530    0.7885   36.6115 C.ar    1  UNL1        0.1845
      2 N           5.6754    0.0130   37.0044 N.ar    1  UNL1       -0.1274
      3 N           6.2371   -0.6244   35.7682 N.ar    1  UNL1       -0.1316
      4 C           5.3619   -0.2428   34.6113 C.ar    1  UNL1        0.1615
      5 N           4.2593    0.6305   35.1325 N.ar    1  UNL1       -0.2944
      6 C           3.2213    1.1689   34.1930 C.3     1  UNL1        0.1302
      7 C           3.2858    0.8341   32.7323 C.3     1  UNL1        0.1186
      8 N           4.3885   -0.0392   32.2110 N.am    1  UNL1       -0.2688
      9 C           4.4531   -0.3740   30.7503 C.2     1  UNL1        0.2493
     10 O           5.5557   -1.2473   30.2291 O.2     1  UNL1       -0.2699
     11 C           5.4265   -0.5776   33.1506 C.3     1  UNL1        0.1343
     12 C           6.5291   -1.4509   32.6293 C.3     1  UNL1        0.0298
     13 C           0.2694    2.4607   39.3650 C.3     1  UNL1        0.0594
     14 C           1.6550    2.3514   38.8011 C.ar    1  UNL1        0.0887
     15 N           2.1309    1.3157   37.8258 N.ar    1  UNL1       -0.2396
     16 C           3.5780    1.5827   37.5354 C.ar    1  UNL1        0.1237
     17 C           3.9967    2.7834   38.3311 C.ar    1  UNL1        0.0588
     18 S           2.8082    3.2584   39.1133 S.2     1  UNL1       -0.0701
     19 C           3.4151    0.1644   29.8109 C.ar    1  UNL1        0.0536
     20 C           3.7009    1.3957   29.0033 C.ar    1  UNL1        0.0045
     21 C           2.6628    1.9341   28.0638 C.ar    1  UNL1        0.0006
     22 C           1.3390    1.2412   27.9319 C.ar    1  UNL1        0.0060
     23 C           1.0532    0.0099   28.7395 C.ar    1  UNL1        0.0006
     24 C           2.0912   -0.5285   29.6790 C.ar    1  UNL1        0.0045
     25 C           0.3009    1.7796   26.9924 C.ar    1  UNL1        0.0295
     26 C          -0.9734    2.4659   27.3861 C.ar    1  UNL1        0.0070
     27 C          -1.7070    2.8367   26.1313 C.ar    1  UNL1        0.0075
     28 C          -0.8859    2.3795   24.9621 C.ar    1  UNL1        0.0354
     29 S           0.3551    1.7262   25.4944 S.2     1  UNL1       -0.0864
@<TRIPOS>BOND
     1    13    14    1
     2    14    15   ar
     3    15    16   ar
     4    16     1    1
     5     1     2   ar
     6     2     3   ar
     7     3     4   ar
     8     4     5   ar
     9     5     6    1
    10     6     7    1
    11     7     8    1
    12     8     9   am
    13     9    10    2
    14     9    19    1
    15    19    20   ar
    16    20    21   ar
    17    21    22   ar
    18    22    25    1
    19    25    26   ar
    20    26    27   ar
    21    27    28   ar
    22    28    29   ar
    23    22    23   ar
    24    23    24   ar
    25     8    11    1
    26    11    12    1
    27    16    17   ar
    28    17    18   ar
    29    18    14   ar
    30     5     1   ar
    31    24    19   ar
    32    11     4    1
    33    29    25   ar
@<TRIPOS>MOLECULE
*****
 29 33 0 0 0
SMALL
GASTEIGER

@<TRIPOS>ATOM
      1 C          -0.8560    3.5161   26.8564 C.ar    1  UNL1        0.1845
      2 N          -1.9720    4.5122   26.7456 N.ar    1  UNL1       -0.1274
      3 N          -2.3075    4.6725   25.2924 N.ar    1  UNL1       -0.1316
      4 C          -1.3989    3.7754   24.5052 C.ar    1  UNL1        0.1615
      5 N          -0.5018    3.0608   25.4718 N.ar    1  UNL1       -0.2944
      6 C           0.5217    2.0877   24.9663 C.3     1  UNL1        0.1302
      7 C           0.6480    1.8293   23.4940 C.3     1  UNL1        0.1186
      8 N          -0.2491    2.5440   22.5274 N.am    1  UNL1       -0.2688
      9 C          -0.1228    2.2856   21.0553 C.2     1  UNL1        0.2493
     10 O          -1.0199    3.0003   20.0887 O.2     1  UNL1       -0.2699
     11 C          -1.2726    3.5171   23.0330 C.3     1  UNL1        0.1343
     12 C          -2.1698    4.2318   22.0664 C.3     1  UNL1        0.0298
     13 C           1.7221    3.5167   31.4645 C.3     1  UNL1        0.0594
     14 C           0.9772    3.0564   30.2467 C.ar    1  UNL1        0.0887
     15 N           0.4768    3.9316   29.1360 N.ar    1  UNL1       -0.2396
     16 C          -0.2078    3.0561   28.1286 C.ar    1  UNL1        0.1237
     17 C          -0.1306    1.6398   28.6166 C.ar    1  UNL1        0.0588
     18 S           0.6018    1.6400   29.9257 S.2     1  UNL1       -0.0701
     19 C           0.9007    1.3125   20.5498 C.ar    1  UNL1        0.0536
     20 C           2.2600    1.7981   20.1416 C.ar    1  UNL1        0.0045
     21 C           3.2835    0.8249   19.6361 C.ar    1  UNL1        0.0006
     22 C           2.9477   -0.6337   19.5387 C.ar    1  UNL1        0.0060
     23 C           1.5884   -1.1193   19.9469 C.ar    1  UNL1        0.0006
     24 C           0.5649   -0.1462   20.4524 C.ar    1  UNL1        0.0045
     25 C           3.9712   -1.6069   19.0332 C.ar    1  UNL1        0.0295
     26 C           3.8541   -3.1021   19.0581 C.ar    1  UNL1        0.0070
     27 C           5.1020   -3.6749   18.4543 C.ar    1  UNL1        0.0075
     28 C           5.9904   -2.5337   18.0562 C.ar    1  UNL1        0.0354
     29 S           5.2915   -1.2555   18.4140 S.2     1  UNL1       -0.0864
@<TRIPOS>BOND
     1    13    14    1
     2    14    15   ar
     3    15    16   ar
     4    16     1    1
     5     1     2   ar
     6     2     3   ar
     7     3     4   ar
     8     4     5   ar
     9     5     6    1
    10     6     7    1
    11     7     8    1
    12     8     9   am
    13     9    10    2
    14     9    19    1
    15    19    20   ar
    16    20    21   ar
    17    21    22   ar
    18    22    25    1
    19    25    26   ar
    20    26    27   ar
    21    27    28   ar
    22    28    29   ar
    23    22    23   ar
    24    23    24   ar
    25     8    11    1
    26    11    12    1
    27    16    17   ar
    28    17    18   ar
    29    18    14   ar
    30     5     1   ar
    31    24    19   ar
    32    11     4    1
    33    29    25   ar
@<TRIPOS>MOLECULE
*****
 29 33 0 0 0
SMALL
GASTEIGER

@<TRIPOS>ATOM
      1 C           2.1328    0.1609   29.5360 C.ar    1  UNL1        0.1845
      2 N           0.8876    0.8003   30.0752 N.ar    1  UNL1       -0.1274
      3 N           0.1097    1.3500   28.9164 N.ar    1  UNL1       -0.1316
      4 C           0.8741    1.0503   27.6610 C.ar    1  UNL1        0.1615
      5 N           2.1244    0.3154   28.0440 N.ar    1  UNL1       -0.2944
      6 C           3.0938   -0.1182   26.9846 C.3     1  UNL1        0.1302
      7 C           2.8128    0.1831   25.5422 C.3     1  UNL1        0.1186
      8 N           1.5625    0.9180   25.1593 N.am    1  UNL1       -0.2688
      9 C           1.2815    1.2193   23.7170 C.2     1  UNL1        0.2493
     10 O           0.0312    1.9542   23.3341 O.2     1  UNL1       -0.2699
     11 C           0.5931    1.3516   26.2188 C.3     1  UNL1        0.1343
     12 C          -0.6572    2.0865   25.8359 C.3     1  UNL1        0.0298
     13 C           4.6137   -2.4095   33.4242 C.3     1  UNL1        0.0594
     14 C           4.3395   -1.6959   32.1337 C.ar    1  UNL1        0.0887
     15 N           3.0159   -1.1416   31.6966 N.ar    1  UNL1       -0.2396
     16 C           3.1991   -0.5144   30.3464 C.ar    1  UNL1        0.1237
     17 C           4.6359   -0.6811   29.9490 C.ar    1  UNL1        0.0588
     18 S           5.3406   -1.4113   31.0535 S.2     1  UNL1       -0.0701
     19 C           2.2509    0.7858   22.6577 C.ar    1  UNL1        0.0536
     20 C           3.4022    1.6726   22.2862 C.ar    1  UNL1        0.0045
     21 C           4.3716    1.2390   21.2268 C.ar    1  UNL1        0.0006
     22 C           4.1897   -0.0814   20.5389 C.ar    1  UNL1        0.0060
     23 C           3.0384   -0.9683   20.9103 C.ar    1  UNL1        0.0006
     24 C           2.0690   -0.5347   21.9697 C.ar    1  UNL1        0.0045
     25 C           5.1590   -0.5151   19.4794 C.ar    1  UNL1        0.0295
     26 C           5.9126   -1.8117   19.4513 C.ar    1  UNL1        0.0070
     27 C           6.7643   -1.8262   18.2166 C.ar    1  UNL1        0.0075
     28 C           6.5371   -0.5384   17.4817 C.ar    1  UNL1        0.0354
     29 S           5.5450    0.2720   18.2622 S.2     1  UNL1       -0.0864
@<TRIPOS>BOND
     1    13    14    1
     2    14    15   ar
     3    15    16   ar
     4    16     1    1
     5     1     2   ar
     6     2     3   ar
     7     3     4   ar
     8     4     5   ar
     9     5     6    1
    10     6     7    1
    11     7     8    1
    12     8     9   am
    13     9    10    2
    14     9    19    1
    15    19    20   ar
    16    20    21   ar
    17    21    22   ar
    18    22    25    1
    19    25    26   ar
    20    26    27   ar
    21    27    28   ar
    22    28    29   ar
    23    22    23   ar
    24    23    24   ar
    25     8    11    1
    26    11    12    1
    27    16    17   ar
    28    17    18   ar
    29    18    14   ar
    30     5     1   ar
    31    24    19   ar
    32    11     4    1
    33    29    25   ar
