@<TRIPOS>MOLECULE
*****
 30 33 0 0 0
SMALL
GASTEIGER

@<TRIPOS>ATOM
      1 N           4.0827   -1.9158   21.4953 N.pl3   1  UNL1       -0.2996
      2 C           4.3264   -1.5443   22.9281 C.3     1  UNL1        0.1208
      3 C           5.2010   -2.5992   23.5382 C.ar    1  UNL1        0.0336
      4 C           5.8922   -3.0215   24.8007 C.ar    1  UNL1        0.0990
      5 N           6.6161   -4.3061   24.5254 N.ar    1  UNL1       -0.2287
      6 N           6.3724   -4.6776   23.0927 N.ar    1  UNL1       -0.1681
      7 C           5.4978   -3.6227   22.4826 C.ar    1  UNL1        0.0960
      8 C           4.8067   -3.2004   21.2200 C.3     1  UNL1        0.1147
      9 C           1.0771    0.1383   19.9154 C.ar    1  UNL1        0.2262
     10 C           1.9002   -0.6383   20.8998 C.ar    1  UNL1        0.0722
     11 C           3.2596   -1.1392   20.5109 C.ar    1  UNL1        0.0546
     12 C           3.7958   -0.8634   19.1374 C.ar    1  UNL1        0.0354
     13 C           2.9727   -0.0867   18.1529 C.ar    1  UNL1        0.1033
     14 N           1.6133    0.4141   18.5418 N.ar    1  UNL1       -0.2101
     15 C          -0.5192    2.1106   20.4739 C.3     1  UNL1        0.2542
     16 O          -0.2824    0.6391   20.3043 O.3     1  UNL1       -0.4561
     17 C           7.4393   -5.0827   25.5098 C.ar    1  UNL1        0.0841
     18 C           8.6270   -5.8688   25.0394 C.ar    1  UNL1        0.0192
     19 C           9.4501   -6.6455   26.0239 C.ar    1  UNL1        0.0029
     20 C           9.0855   -6.6360   27.4789 C.ar    1  UNL1        0.0184
     21 C           7.8978   -5.8500   27.9494 C.ar    1  UNL1        0.1072
     22 C           7.0747   -5.0733   26.9648 C.ar    1  UNL1        0.0375
     23 S           7.5332   -5.8405   29.4043 S.O2    1  UNL1        0.0105
     24 C           7.1685   -5.8309   30.8593 C.3     1  UNL1        0.1816
     25 O           8.6718   -6.7725   29.6959 O.2     1  UNL1       -0.1686
     26 O           6.3945   -4.9084   29.1128 O.2     1  UNL1       -0.1686
     27 C           4.8347   -3.9338   19.9119 C.3     1  UNL1        0.0221
     28 C           6.1326   -3.2666   19.5655 C.3     1  UNL1        0.0020
     29 C           3.5367   -4.6011   20.2583 C.3     1  UNL1        0.0020
     30 C           4.8626   -4.6673   18.6037 C.3     1  UNL1        0.0020
@<TRIPOS>BOND
     1    15    16    1
     2    16     9    1
     3     9    10   ar
     4    10    11   ar
     5    11     1    1
     6     1     2    1
     7     2     3    1
     8     3     4   ar
     9     4     5   ar
    10     5    17    1
    11    17    18   ar
    12    18    19   ar
    13    19    20   ar
    14    20    21   ar
    15    21    23    1
    16    23    24    1
    17    23    25    2
    18    23    26    2
    19    21    22   ar
    20     5     6   ar
    21     6     7   ar
    22     7     8    1
    23     8    27    1
    24    27    28    1
    25    27    29    1
    26    27    30    1
    27    11    12   ar
    28    12    13   ar
    29    13    14   ar
    30    14     9   ar
    31     8     1    1
    32     7     3   ar
    33    22    17   ar
@<TRIPOS>MOLECULE
*****
 30 33 0 0 0
SMALL
GASTEIGER

@<TRIPOS>ATOM
      1 N           3.9285   -1.3661   21.3625 N.pl3   1  UNL1       -0.2996
      2 C           4.0135   -1.2604   22.8564 C.3     1  UNL1        0.1208
      3 C           4.8837   -2.3774   23.3514 C.ar    1  UNL1        0.0336
      4 C           5.4740   -3.0024   24.5806 C.ar    1  UNL1        0.0990
      5 N           6.2917   -4.1847   24.1523 N.ar    1  UNL1       -0.2287
      6 N           6.2068   -4.2904   22.6584 N.ar    1  UNL1       -0.1681
      7 C           5.3366   -3.1734   22.1634 C.ar    1  UNL1        0.0960
      8 C           4.7463   -2.5484   20.9343 C.3     1  UNL1        0.1147
      9 C           3.0952    1.5928   18.8525 C.ar    1  UNL1        0.2262
     10 C           3.8630    0.6770   19.7589 C.ar    1  UNL1        0.0722
     11 C           3.1607   -0.4503   20.4561 C.ar    1  UNL1        0.0546
     12 C           1.6905   -0.6616   20.2469 C.ar    1  UNL1        0.0354
     13 C           0.9225    0.2542   19.3404 C.ar    1  UNL1        0.1033
     14 N           1.6249    1.3814   18.6432 N.ar    1  UNL1       -0.2101
     15 C           5.2958    2.7414   18.0856 C.3     1  UNL1        0.2542
     16 O           3.7976    2.7200   18.1552 O.3     1  UNL1       -0.4561
     17 C           7.0596   -5.1006   25.0587 C.ar    1  UNL1        0.0841
     18 C           8.0294   -6.0881   24.4805 C.ar    1  UNL1        0.0192
     19 C           8.7972   -7.0040   25.3870 C.ar    1  UNL1        0.0029
     20 C           8.5953   -6.9323   26.8716 C.ar    1  UNL1        0.0184
     21 C           7.6256   -5.9447   27.4498 C.ar    1  UNL1        0.1072
     22 C           6.8578   -5.0289   26.5433 C.ar    1  UNL1        0.0375
     23 S           7.4237   -5.8729   28.9344 S.O2    1  UNL1        0.0105
     24 C           7.2217   -5.8011   30.4190 C.3     1  UNL1        0.1816
     25 O           8.5801   -6.8065   29.1369 O.2     1  UNL1       -0.1686
     26 O           6.2672   -4.9393   28.7319 O.2     1  UNL1       -0.1686
     27 C           4.9397   -3.0225   19.5243 C.3     1  UNL1        0.0221
     28 C           6.2037   -2.2205   19.4281 C.3     1  UNL1        0.0020
     29 C           3.6758   -3.8245   19.6206 C.3     1  UNL1        0.0020
     30 C           5.1332   -3.4966   18.1144 C.3     1  UNL1        0.0020
@<TRIPOS>BOND
     1    15    16    1
     2    16     9    1
     3     9    10   ar
     4    10    11   ar
     5    11     1    1
     6     1     2    1
     7     2     3    1
     8     3     4   ar
     9     4     5   ar
    10     5    17    1
    11    17    18   ar
    12    18    19   ar
    13    19    20   ar
    14    20    21   ar
    15    21    23    1
    16    23    24    1
    17    23    25    2
    18    23    26    2
    19    21    22   ar
    20     5     6   ar
    21     6     7   ar
    22     7     8    1
    23     8    27    1
    24    27    28    1
    25    27    29    1
    26    27    30    1
    27    11    12   ar
    28    12    13   ar
    29    13    14   ar
    30    14     9   ar
    31     8     1    1
    32     7     3   ar
    33    22    17   ar
@<TRIPOS>MOLECULE
*****
 30 33 0 0 0
SMALL
GASTEIGER

@<TRIPOS>ATOM
      1 N           4.2251   -0.7436   21.0664 N.pl3   1  UNL1       -0.2996
      2 C           4.6602   -0.9435   22.4880 C.3     1  UNL1        0.1208
      3 C           3.6137   -0.3461   23.3814 C.ar    1  UNL1        0.0336
      4 C           3.2359   -0.1005   24.8121 C.ar    1  UNL1        0.0990
      5 N           1.9205    0.6203   24.8269 N.ar    1  UNL1       -0.2287
      6 N           1.4854    0.8202   23.4053 N.ar    1  UNL1       -0.1681
      7 C           2.5319    0.2229   22.5120 C.ar    1  UNL1        0.0960
      8 C           2.9097   -0.0227   21.0813 C.3     1  UNL1        0.1147
      9 C           6.5648   -0.6488   17.8623 C.ar    1  UNL1        0.2262
     10 C           5.8160   -0.2057   19.0841 C.ar    1  UNL1        0.0722
     11 C           4.9739   -1.1868   19.8447 C.ar    1  UNL1        0.0546
     12 C           4.8807   -2.6110   19.3834 C.ar    1  UNL1        0.0354
     13 C           5.6295   -3.0543   18.1615 C.ar    1  UNL1        0.1033
     14 N           6.4716   -2.0732   17.4010 N.ar    1  UNL1       -0.2101
     15 C           6.7657    1.2693   16.1215 C.3     1  UNL1        0.2542
     16 O           7.4069    0.3323   17.1017 O.3     1  UNL1       -0.4561
     17 C           1.1717    1.0635   26.0487 C.ar    1  UNL1        0.0841
     18 C          -0.1961    1.6643   25.9133 C.ar    1  UNL1        0.0192
     19 C          -0.9449    2.1075   27.1352 C.ar    1  UNL1        0.0029
     20 C          -0.3260    1.9499   28.4924 C.ar    1  UNL1        0.0184
     21 C           1.0418    1.3491   28.6278 C.ar    1  UNL1        0.1072
     22 C           1.7905    0.9059   27.4059 C.ar    1  UNL1        0.0375
     23 S           1.6607    1.1914   29.9850 S.O2    1  UNL1        0.0105
     24 C           2.2797    1.0339   31.3422 C.3     1  UNL1        0.1816
     25 O           1.2972   -0.2638   29.9818 O.2     1  UNL1       -0.1686
     26 O           2.0242    2.6468   29.9882 O.2     1  UNL1       -0.1686
     27 C           2.1123    0.3815   19.8768 C.3     1  UNL1        0.0221
     28 C           2.8244    1.7014   19.8483 C.3     1  UNL1        0.0020
     29 C           1.4001   -0.9384   19.9054 C.3     1  UNL1        0.0020
     30 C           1.3148    0.7857   18.6724 C.3     1  UNL1        0.0020
@<TRIPOS>BOND
     1    15    16    1
     2    16     9    1
     3     9    10   ar
     4    10    11   ar
     5    11     1    1
     6     1     2    1
     7     2     3    1
     8     3     4   ar
     9     4     5   ar
    10     5    17    1
    11    17    18   ar
    12    18    19   ar
    13    19    20   ar
    14    20    21   ar
    15    21    23    1
    16    23    24    1
    17    23    25    2
    18    23    26    2
    19    21    22   ar
    20     5     6   ar
    21     6     7   ar
    22     7     8    1
    23     8    27    1
    24    27    28    1
    25    27    29    1
    26    27    30    1
    27    11    12   ar
    28    12    13   ar
    29    13    14   ar
    30    14     9   ar
    31     8     1    1
    32     7     3   ar
    33    22    17   ar
@<TRIPOS>MOLECULE
*****
 30 33 0 0 0
SMALL
GASTEIGER

@<TRIPOS>ATOM
      1 N           3.1177   -1.4378   19.6190 N.pl3   1  UNL1       -0.2996
      2 C           1.8534   -1.2805   20.4107 C.3     1  UNL1        0.1208
      3 C           1.2399    0.0392   20.0471 C.ar    1  UNL1        0.0336
      4 C           0.0794    0.9519   20.3117 C.ar    1  UNL1        0.0990
      5 N           0.2473    2.1744   19.4589 N.ar    1  UNL1       -0.2287
      6 N           1.5116    2.0171   18.6672 N.ar    1  UNL1       -0.1681
      7 C           2.1251    0.6975   19.0307 C.ar    1  UNL1        0.0960
      8 C           3.2856   -0.2153   18.7661 C.3     1  UNL1        0.1147
      9 C           6.2610   -3.6934   20.5029 C.ar    1  UNL1        0.2262
     10 C           5.3284   -2.5198   20.4509 C.ar    1  UNL1        0.0722
     11 C           4.0503   -2.6114   19.6710 C.ar    1  UNL1        0.0546
     12 C           3.7049   -3.8767   18.9432 C.ar    1  UNL1        0.0354
     13 C           4.6376   -5.0504   18.9952 C.ar    1  UNL1        0.1033
     14 N           5.9156   -4.9587   19.7750 N.ar    1  UNL1       -0.2101
     15 C           8.4952   -4.7575   21.2940 C.3     1  UNL1        0.2542
     16 O           7.5392   -3.6018   21.2828 O.3     1  UNL1       -0.4561
     17 C          -0.6853    3.3480   19.4068 C.ar    1  UNL1        0.0841
     18 C          -0.2830    4.5938   18.6746 C.ar    1  UNL1        0.0192
     19 C          -1.2157    5.7674   18.6226 C.ar    1  UNL1        0.0029
     20 C          -2.5507    5.6954   19.3028 C.ar    1  UNL1        0.0184
     21 C          -2.9530    4.4496   20.0350 C.ar    1  UNL1        0.1072
     22 C          -2.0203    3.2759   20.0870 C.ar    1  UNL1        0.0375
     23 S          -4.2879    4.3774   20.7153 S.O2    1  UNL1        0.0105
     24 C          -5.6228    4.3051   21.3955 C.3     1  UNL1        0.1816
     25 O          -4.5075    5.8353   20.4391 O.2     1  UNL1       -0.1686
     26 O          -4.0682    2.9194   20.9914 O.2     1  UNL1       -0.1686
     27 C           4.4157    0.0482   17.8155 C.3     1  UNL1        0.0221
     28 C           5.0896    0.8976   18.8521 C.3     1  UNL1        0.0020
     29 C           3.7418   -0.8012   16.7790 C.3     1  UNL1        0.0020
     30 C           5.5458    0.3116   16.8650 C.3     1  UNL1        0.0020
@<TRIPOS>BOND
     1    15    16    1
     2    16     9    1
     3     9    10   ar
     4    10    11   ar
     5    11     1    1
     6     1     2    1
     7     2     3    1
     8     3     4   ar
     9     4     5   ar
    10     5    17    1
    11    17    18   ar
    12    18    19   ar
    13    19    20   ar
    14    20    21   ar
    15    21    23    1
    16    23    24    1
    17    23    25    2
    18    23    26    2
    19    21    22   ar
    20     5     6   ar
    21     6     7   ar
    22     7     8    1
    23     8    27    1
    24    27    28    1
    25    27    29    1
    26    27    30    1
    27    11    12   ar
    28    12    13   ar
    29    13    14   ar
    30    14     9   ar
    31     8     1    1
    32     7     3   ar
    33    22    17   ar
@<TRIPOS>MOLECULE
*****
 30 33 0 0 0
SMALL
GASTEIGER

@<TRIPOS>ATOM
      1 N           1.6600    2.2298   18.8850 N.pl3   1  UNL1       -0.2996
      2 C           0.6913    3.1555   18.2106 C.3     1  UNL1        0.1208
      3 C          -0.5517    3.2160   19.0481 C.ar    1  UNL1        0.0336
      4 C          -1.9186    3.8255   19.1488 C.ar    1  UNL1        0.0990
      5 N          -2.5628    3.3138   20.4031 N.ar    1  UNL1       -0.2287
      6 N          -1.5942    2.3881   21.0775 N.ar    1  UNL1       -0.1681
      7 C          -0.3512    2.3276   20.2400 C.ar    1  UNL1        0.0960
      8 C           1.0157    1.7181   20.1393 C.3     1  UNL1        0.1147
      9 C           4.7140    0.1170   17.4855 C.ar    1  UNL1        0.2262
     10 C           3.3420    0.4692   17.9787 C.ar    1  UNL1        0.0722
     11 C           3.0320    1.8775   18.3918 C.ar    1  UNL1        0.0546
     12 C           4.0943    2.9336   18.3115 C.ar    1  UNL1        0.0354
     13 C           5.4664    2.5814   17.8183 C.ar    1  UNL1        0.1033
     14 N           5.7763    1.1731   17.4052 N.ar    1  UNL1       -0.2101
     15 C           5.0640   -2.3829   18.1005 C.3     1  UNL1        0.2542
     16 O           5.0240   -1.2914   17.0724 O.3     1  UNL1       -0.4561
     17 C          -3.9349    3.6661   20.8963 C.ar    1  UNL1        0.0841
     18 C          -4.3107    3.3976   22.3235 C.ar    1  UNL1        0.0192
     19 C          -5.6829    3.7499   22.8167 C.ar    1  UNL1        0.0029
     20 C          -6.6792    4.3706   21.8828 C.ar    1  UNL1        0.0184
     21 C          -6.3034    4.6390   20.4557 C.ar    1  UNL1        0.1072
     22 C          -4.9312    4.2868   19.9625 C.ar    1  UNL1        0.0375
     23 S          -7.2996    5.2597   19.5218 S.O2    1  UNL1        0.0105
     24 C          -8.2959    5.8805   18.5880 C.3     1  UNL1        0.1816
     25 O          -6.6146    4.6076   18.3575 O.2     1  UNL1       -0.1686
     26 O          -7.9847    5.9119   20.6861 O.2     1  UNL1       -0.1686
     27 C           1.6303    0.7645   21.1204 C.3     1  UNL1        0.0221
     28 C           0.9305   -0.3789   20.4475 C.3     1  UNL1        0.0020
     29 C           2.3301    1.9079   21.7934 C.3     1  UNL1        0.0020
     30 C           2.2449   -0.1892   22.1016 C.3     1  UNL1        0.0020
@<TRIPOS>BOND
     1    15    16    1
     2    16     9    1
     3     9    10   ar
     4    10    11   ar
     5    11     1    1
     6     1     2    1
     7     2     3    1
     8     3     4   ar
     9     4     5   ar
    10     5    17    1
    11    17    18   ar
    12    18    19   ar
    13    19    20   ar
    14    20    21   ar
    15    21    23    1
    16    23    24    1
    17    23    25    2
    18    23    26    2
    19    21    22   ar
    20     5     6   ar
    21     6     7   ar
    22     7     8    1
    23     8    27    1
    24    27    28    1
    25    27    29    1
    26    27    30    1
    27    11    12   ar
    28    12    13   ar
    29    13    14   ar
    30    14     9   ar
    31     8     1    1
    32     7     3   ar
    33    22    17   ar
@<TRIPOS>MOLECULE
*****
 30 33 0 0 0
SMALL
GASTEIGER

@<TRIPOS>ATOM
      1 N           7.1720   -3.8096   27.0540 N.pl3   1  UNL1       -0.2996
      2 C           6.4273   -2.6495   26.4624 C.3     1  UNL1        0.1208
      3 C           6.1809   -2.9473   25.0131 C.ar    1  UNL1        0.0336
      4 C           5.5683   -2.4144   23.7519 C.ar    1  UNL1        0.0990
      5 N           5.7821   -3.4292   22.6681 N.ar    1  UNL1       -0.2287
      6 N           6.5268   -4.5892   23.2595 N.ar    1  UNL1       -0.1681
      7 C           6.7732   -4.2914   24.7088 C.ar    1  UNL1        0.0960
      8 C           7.3858   -4.8243   25.9701 C.3     1  UNL1        0.1147
      9 C           7.0743   -3.9722   31.0180 C.ar    1  UNL1        0.2262
     10 C           6.6227   -3.8487   29.5930 C.ar    1  UNL1        0.0722
     11 C           7.6236   -3.9331   28.4789 C.ar    1  UNL1        0.0546
     12 C           9.0762   -4.1412   28.7900 C.ar    1  UNL1        0.0354
     13 C           9.5279   -4.2648   30.2151 C.ar    1  UNL1        0.1033
     14 N           8.5269   -4.1803   31.3290 N.ar    1  UNL1       -0.2101
     15 C           5.7675   -2.5635   32.7665 C.3     1  UNL1        0.2542
     16 O           6.0734   -3.8878   32.1320 O.3     1  UNL1       -0.4561
     17 C           5.3305   -3.3056   21.2430 C.ar    1  UNL1        0.0841
     18 C           4.2801   -4.2321   20.7061 C.ar    1  UNL1        0.0192
     19 C           3.8285   -4.1085   19.2810 C.ar    1  UNL1        0.0029
     20 C           4.4273   -3.0584   18.3929 C.ar    1  UNL1        0.0184
     21 C           5.4776   -2.1319   18.9298 C.ar    1  UNL1        0.1072
     22 C           5.9292   -2.2555   20.3549 C.ar    1  UNL1        0.0375
     23 S           6.0764   -1.0818   18.0417 S.O2    1  UNL1        0.0105
     24 C           6.6751   -0.0316   17.1537 C.3     1  UNL1        0.1816
     25 O           6.9633   -2.1169   17.4156 O.2     1  UNL1       -0.1686
     26 O           5.1895   -0.0466   18.6679 O.2     1  UNL1       -0.1686
     27 C           8.0888   -6.1408   26.1210 C.3     1  UNL1        0.0221
     28 C           6.8405   -6.7413   26.6965 C.3     1  UNL1        0.0020
     29 C           9.3370   -5.5402   25.5456 C.3     1  UNL1        0.0020
     30 C           8.7917   -7.4573   26.2720 C.3     1  UNL1        0.0020
@<TRIPOS>BOND
     1    15    16    1
     2    16     9    1
     3     9    10   ar
     4    10    11   ar
     5    11     1    1
     6     1     2    1
     7     2     3    1
     8     3     4   ar
     9     4     5   ar
    10     5    17    1
    11    17    18   ar
    12    18    19   ar
    13    19    20   ar
    14    20    21   ar
    15    21    23    1
    16    23    24    1
    17    23    25    2
    18    23    26    2
    19    21    22   ar
    20     5     6   ar
    21     6     7   ar
    22     7     8    1
    23     8    27    1
    24    27    28    1
    25    27    29    1
    26    27    30    1
    27    11    12   ar
    28    12    13   ar
    29    13    14   ar
    30    14     9   ar
    31     8     1    1
    32     7     3   ar
    33    22    17   ar
@<TRIPOS>MOLECULE
*****
 30 33 0 0 0
SMALL
GASTEIGER

@<TRIPOS>ATOM
      1 N           2.5603    1.8126   18.8914 N.pl3   1  UNL1       -0.2996
      2 C           1.6780    2.8426   18.2505 C.3     1  UNL1        0.1208
      3 C           0.3900    2.8919   19.0178 C.ar    1  UNL1        0.0336
      4 C          -0.9512    3.5589   19.0959 C.ar    1  UNL1        0.0990
      5 N          -1.6939    2.9715   20.2593 N.ar    1  UNL1       -0.2287
      6 N          -0.8116    1.9415   20.9002 N.ar    1  UNL1       -0.1681
      7 C           0.4763    1.8923   20.1329 C.ar    1  UNL1        0.0960
      8 C           1.8176    1.2253   20.0548 C.3     1  UNL1        0.1147
      9 C           5.6441   -0.3689   17.6745 C.ar    1  UNL1        0.2262
     10 C           4.2619    0.0076   18.1189 C.ar    1  UNL1        0.0722
     11 C           3.9425    1.4361   18.4470 C.ar    1  UNL1        0.0546
     12 C           5.0055    2.4880   18.3306 C.ar    1  UNL1        0.0354
     13 C           6.3879    2.1115   17.8861 C.ar    1  UNL1        0.1033
     14 N           6.7071    0.6831   17.5581 N.ar    1  UNL1       -0.2101
     15 C           5.3816   -2.9050   18.1739 C.3     1  UNL1        0.2542
     16 O           5.9634   -1.7974   17.3464 O.3     1  UNL1       -0.4561
     17 C          -3.0762    3.3480   20.7038 C.ar    1  UNL1        0.0841
     18 C          -4.1601    3.5557   19.6880 C.ar    1  UNL1        0.0192
     19 C          -5.5424    3.9322   20.1325 C.ar    1  UNL1        0.0029
     20 C          -5.8407    4.1011   21.5928 C.ar    1  UNL1        0.0184
     21 C          -4.7567    3.8934   22.6087 C.ar    1  UNL1        0.1072
     22 C          -3.3745    3.5169   22.1641 C.ar    1  UNL1        0.0375
     23 S          -5.0550    4.0623   24.0689 S.O2    1  UNL1        0.0105
     24 C          -5.3533    4.2311   25.5292 C.3     1  UNL1        0.1816
     25 O          -3.6056    3.8470   24.3899 O.2     1  UNL1       -0.1686
     26 O          -6.5044    4.2776   23.7480 O.2     1  UNL1       -0.1686
     27 C           2.3268    0.1583   20.9780 C.3     1  UNL1        0.0221
     28 C           1.5831   -0.8787   20.1897 C.3     1  UNL1        0.0020
     29 C           3.0705    1.1954   21.7664 C.3     1  UNL1        0.0020
     30 C           2.8360   -0.9086   21.9012 C.3     1  UNL1        0.0020
@<TRIPOS>BOND
     1    15    16    1
     2    16     9    1
     3     9    10   ar
     4    10    11   ar
     5    11     1    1
     6     1     2    1
     7     2     3    1
     8     3     4   ar
     9     4     5   ar
    10     5    17    1
    11    17    18   ar
    12    18    19   ar
    13    19    20   ar
    14    20    21   ar
    15    21    23    1
    16    23    24    1
    17    23    25    2
    18    23    26    2
    19    21    22   ar
    20     5     6   ar
    21     6     7   ar
    22     7     8    1
    23     8    27    1
    24    27    28    1
    25    27    29    1
    26    27    30    1
    27    11    12   ar
    28    12    13   ar
    29    13    14   ar
    30    14     9   ar
    31     8     1    1
    32     7     3   ar
    33    22    17   ar
@<TRIPOS>MOLECULE
*****
 30 33 0 0 0
SMALL
GASTEIGER

@<TRIPOS>ATOM
      1 N           6.8524   -2.9842   27.3912 N.pl3   1  UNL1       -0.2996
      2 C           5.9639   -1.9138   26.8301 C.3     1  UNL1        0.1208
      3 C           5.6251   -2.2860   25.4171 C.ar    1  UNL1        0.0336
      4 C           4.8666   -1.8545   24.1971 C.ar    1  UNL1        0.0990
      5 N           5.0769   -2.8884   23.1308 N.ar    1  UNL1       -0.2287
      6 N           5.9654   -3.9589   23.6919 N.ar    1  UNL1       -0.1681
      7 C           6.3042   -3.5866   25.1049 C.ar    1  UNL1        0.0960
      8 C           7.0626   -4.0181   26.3249 C.3     1  UNL1        0.1147
      9 C           7.1284   -3.3759   31.3307 C.ar    1  UNL1        0.2262
     10 C           6.5516   -3.3447   29.9465 C.ar    1  UNL1        0.0722
     11 C           7.4292   -3.0154   28.7754 C.ar    1  UNL1        0.0546
     12 C           8.8837   -2.7172   28.9887 C.ar    1  UNL1        0.0354
     13 C           9.4607   -2.7483   30.3730 C.ar    1  UNL1        0.1033
     14 N           8.5830   -3.0777   31.5440 N.ar    1  UNL1       -0.2101
     15 C           5.1477   -2.7696   32.8989 C.3     1  UNL1        0.2542
     16 O           6.2508   -3.7052   32.5018 O.3     1  UNL1       -0.4561
     17 C           4.5001   -2.8573   21.7465 C.ar    1  UNL1        0.0841
     18 C           4.7643   -3.9890   20.7983 C.ar    1  UNL1        0.0192
     19 C           4.1874   -3.9578   19.4139 C.ar    1  UNL1        0.0029
     20 C           3.3463   -2.7949   18.9779 C.ar    1  UNL1        0.0184
     21 C           3.0820   -1.6632   19.9262 C.ar    1  UNL1        0.1072
     22 C           3.6589   -1.6944   21.3105 C.ar    1  UNL1        0.0375
     23 S           2.2409   -0.5002   19.4902 S.O2    1  UNL1        0.0105
     24 C           1.3997    0.6627   19.0544 C.3     1  UNL1        0.1816
     25 O           3.2853   -0.1227   18.4820 O.2     1  UNL1       -0.1686
     26 O           1.1964   -0.8778   20.4986 O.2     1  UNL1       -0.1686
     27 C           7.8867   -5.2646   26.4557 C.3     1  UNL1        0.0221
     28 C           6.7079   -5.9823   27.0435 C.3     1  UNL1        0.0020
     29 C           9.0655   -4.5470   25.8679 C.3     1  UNL1        0.0020
     30 C           8.7108   -6.5112   26.5865 C.3     1  UNL1        0.0020
@<TRIPOS>BOND
     1    15    16    1
     2    16     9    1
     3     9    10   ar
     4    10    11   ar
     5    11     1    1
     6     1     2    1
     7     2     3    1
     8     3     4   ar
     9     4     5   ar
    10     5    17    1
    11    17    18   ar
    12    18    19   ar
    13    19    20   ar
    14    20    21   ar
    15    21    23    1
    16    23    24    1
    17    23    25    2
    18    23    26    2
    19    21    22   ar
    20     5     6   ar
    21     6     7   ar
    22     7     8    1
    23     8    27    1
    24    27    28    1
    25    27    29    1
    26    27    30    1
    27    11    12   ar
    28    12    13   ar
    29    13    14   ar
    30    14     9   ar
    31     8     1    1
    32     7     3   ar
    33    22    17   ar
@<TRIPOS>MOLECULE
*****
 30 33 0 0 0
SMALL
GASTEIGER

@<TRIPOS>ATOM
      1 N           6.2293   -2.7543   32.0077 N.pl3   1  UNL1       -0.2996
      2 C           5.0063   -2.7936   32.8754 C.3     1  UNL1        0.1208
      3 C           4.9934   -1.5505   33.7148 C.ar    1  UNL1        0.0336
      4 C           4.2296   -0.8066   34.7699 C.ar    1  UNL1        0.0990
      5 N           4.9725    0.4607   35.0730 N.ar    1  UNL1       -0.2287
      6 N           6.1954    0.5001   34.2053 N.ar    1  UNL1       -0.1681
      7 C           6.2084   -0.7430   33.3659 C.ar    1  UNL1        0.0960
      8 C           6.9722   -1.4869   32.3109 C.3     1  UNL1        0.1147
      9 C           6.7661   -4.6385   28.5564 C.ar    1  UNL1        0.2262
     10 C           6.3578   -3.5939   29.5524 C.ar    1  UNL1        0.0722
     11 C           6.6376   -3.7989   31.0118 C.ar    1  UNL1        0.0546
     12 C           7.3259   -5.0486   31.4751 C.ar    1  UNL1        0.0354
     13 C           7.7343   -6.0933   30.4791 C.ar    1  UNL1        0.1033
     14 N           7.4544   -5.8882   29.0198 N.ar    1  UNL1       -0.2101
     15 C           7.2301   -5.2358   26.0709 C.3     1  UNL1        0.2542
     16 O           6.4863   -4.4335   27.0970 O.3     1  UNL1       -0.4561
     17 C           4.5641    1.5054   36.0690 C.ar    1  UNL1        0.0841
     18 C           5.3193    2.7988   36.1515 C.ar    1  UNL1        0.0192
     19 C           4.9108    3.8435   37.1475 C.ar    1  UNL1        0.0029
     20 C           3.7474    3.5947   38.0610 C.ar    1  UNL1        0.0184
     21 C           2.9923    2.3013   37.9785 C.ar    1  UNL1        0.1072
     22 C           3.4007    1.2566   36.9825 C.ar    1  UNL1        0.0375
     23 S           1.8288    2.0524   38.8919 S.O2    1  UNL1        0.0105
     24 C           0.6654    1.8035   39.8054 C.3     1  UNL1        0.1816
     25 O           1.0245    3.0758   38.1465 O.2     1  UNL1       -0.1686
     26 O           2.6332    1.0289   39.6374 O.2     1  UNL1       -0.1686
     27 C           8.2539   -1.0417   31.6713 C.3     1  UNL1        0.0221
     28 C           9.0331   -1.7532   32.7374 C.3     1  UNL1        0.0020
     29 C           7.4747   -0.3301   30.6052 C.3     1  UNL1        0.0020
     30 C           9.5355   -0.5964   31.0317 C.3     1  UNL1        0.0020
@<TRIPOS>BOND
     1    15    16    1
     2    16     9    1
     3     9    10   ar
     4    10    11   ar
     5    11     1    1
     6     1     2    1
     7     2     3    1
     8     3     4   ar
     9     4     5   ar
    10     5    17    1
    11    17    18   ar
    12    18    19   ar
    13    19    20   ar
    14    20    21   ar
    15    21    23    1
    16    23    24    1
    17    23    25    2
    18    23    26    2
    19    21    22   ar
    20     5     6   ar
    21     6     7   ar
    22     7     8    1
    23     8    27    1
    24    27    28    1
    25    27    29    1
    26    27    30    1
    27    11    12   ar
    28    12    13   ar
    29    13    14   ar
    30    14     9   ar
    31     8     1    1
    32     7     3   ar
    33    22    17   ar
