@<TRIPOS>MOLECULE
*****
 27 30 0 0 0
SMALL
GASTEIGER

@<TRIPOS>ATOM
      1 C           7.6542   -5.7269   26.7458 C.2     1  UNL1        0.0919
      2 C           8.5658   -6.5266   25.8630 C.2     1  UNL1        0.0183
      3 C           8.5234   -6.3394   24.3753 C.2     1  UNL1        0.0511
      4 C           7.5695   -5.3525   23.7705 C.2     1  UNL1        0.2322
      5 N           7.3042   -4.9549   22.3487 N.2     1  UNL1       -0.0308
      6 C           6.2285   -3.9094   22.3527 C.2     1  UNL1        0.3752
      7 N           5.8291   -3.6608   23.7770 N.2     1  UNL1       -0.0347
      8 C           6.6579   -4.5527   24.6532 C.2     1  UNL1        0.2191
      9 C           6.7003   -4.7399   26.1409 C.3     1  UNL1        0.1226
     10 C           5.6534   -3.2315   21.1445 C.ar    1  UNL1        0.0884
     11 C           6.1585   -3.5819   19.7763 C.ar    1  UNL1        0.0074
     12 C           5.5833   -2.9041   18.5681 C.ar    1  UNL1       -0.0040
     13 C           4.5031   -1.8758   18.7282 C.ar    1  UNL1       -0.0218
     14 C           3.9279   -1.1979   17.5200 C.3     1  UNL1        0.0310
     15 C           3.9980   -1.5253   20.0964 C.ar    1  UNL1       -0.0037
     16 C           4.5731   -2.2032   21.3046 C.ar    1  UNL1        0.0074
     17 C           2.9177   -0.4970   20.2565 C.ar    1  UNL1       -0.0003
     18 C           3.2787    0.9442   20.4625 C.ar    1  UNL1       -0.0000
     19 C           2.1984    1.9725   20.6225 C.ar    1  UNL1       -0.0000
     20 C           0.7571    1.5595   20.5765 C.ar    1  UNL1       -0.0000
     21 C           0.3961    0.1183   20.3705 C.ar    1  UNL1       -0.0000
     22 C           1.4764   -0.9100   20.2105 C.ar    1  UNL1       -0.0000
     23 S           7.6965   -5.9140   28.2335 S.O2    1  UNL1        0.0054
     24 O           6.2860   -5.4142   28.3365 O.2     1  UNL1       -0.1689
     25 O           9.1070   -6.4139   28.1304 O.2     1  UNL1       -0.1689
     26 C           6.9149   -5.2193   30.6118 C.3     1  UNL1        0.0276
     27 C           7.7388   -6.1012   29.7211 C.3     1  UNL1        0.1556
@<TRIPOS>BOND
     1    26    27    1
     2    27    23    1
     3    23    24    2
     4    23    25    2
     5    23     1    1
     6     1     2    2
     7     2     3    1
     8     3     4    2
     9     4     5    1
    10     5     6    2
    11     6    10    1
    12    10    11   ar
    13    11    12   ar
    14    12    13   ar
    15    13    14    1
    16    13    15   ar
    17    15    17    1
    18    17    18   ar
    19    18    19   ar
    20    19    20   ar
    21    20    21   ar
    22    21    22   ar
    23    15    16   ar
    24     6     7    1
    25     7     8    2
    26     8     9    1
    27     9     1    1
    28     8     4    1
    29    16    10   ar
    30    22    17   ar
@<TRIPOS>MOLECULE
*****
 27 30 0 0 0
SMALL
GASTEIGER

@<TRIPOS>ATOM
      1 C           3.4147   -1.1081   18.9590 C.2     1  UNL1        0.0919
      2 C           3.8331    0.0968   18.1697 C.2     1  UNL1        0.0183
      3 C           3.0524    1.3730   18.2785 C.2     1  UNL1        0.0511
      4 C           1.8532    1.4442   19.1767 C.2     1  UNL1        0.2322
      5 N           0.8953    2.5564   19.4858 N.2     1  UNL1       -0.0308
      6 C          -0.1151    2.0388   20.4662 C.2     1  UNL1        0.3752
      7 N           0.2183    0.6068   20.7631 N.2     1  UNL1       -0.0347
      8 C           1.4348    0.2393   19.9661 C.2     1  UNL1        0.2191
      9 C           2.2156   -1.0368   19.8573 C.3     1  UNL1        0.1226
     10 C          -1.2583    2.8168   21.0477 C.ar    1  UNL1        0.0884
     11 C          -1.2530    3.1835   22.5022 C.ar    1  UNL1        0.0074
     12 C          -2.3961    3.9615   23.0836 C.ar    1  UNL1       -0.0040
     13 C          -3.5445    4.3726   22.2106 C.ar    1  UNL1       -0.0218
     14 C          -4.6876    5.1506   22.7921 C.3     1  UNL1        0.0310
     15 C          -3.5497    4.0059   20.7562 C.ar    1  UNL1       -0.0037
     16 C          -2.4067    3.2280   20.1747 C.ar    1  UNL1        0.0074
     17 C          -4.6982    4.4171   19.8832 C.ar    1  UNL1       -0.0003
     18 C          -4.7248    5.7882   19.2753 C.ar    1  UNL1       -0.0000
     19 C          -5.8732    6.1993   18.4024 C.ar    1  UNL1       -0.0000
     20 C          -6.9950    5.2395   18.1373 C.ar    1  UNL1       -0.0000
     21 C          -6.9683    3.8684   18.7451 C.ar    1  UNL1       -0.0000
     22 C          -5.8199    3.4573   19.6180 C.ar    1  UNL1       -0.0000
     23 S           4.1955   -2.3842   18.8502 S.O2    1  UNL1        0.0054
     24 O           4.7502   -1.9324   17.5318 O.2     1  UNL1       -0.1689
     25 O           3.6409   -2.8360   20.1686 O.2     1  UNL1       -0.1689
     26 C           4.2886   -4.9792   18.9351 C.3     1  UNL1        0.0276
     27 C           4.9763   -3.6603   18.7413 C.3     1  UNL1        0.1556
@<TRIPOS>BOND
     1    26    27    1
     2    27    23    1
     3    23    24    2
     4    23    25    2
     5    23     1    1
     6     1     2    2
     7     2     3    1
     8     3     4    2
     9     4     5    1
    10     5     6    2
    11     6    10    1
    12    10    11   ar
    13    11    12   ar
    14    12    13   ar
    15    13    14    1
    16    13    15   ar
    17    15    17    1
    18    17    18   ar
    19    18    19   ar
    20    19    20   ar
    21    20    21   ar
    22    21    22   ar
    23    15    16   ar
    24     6     7    1
    25     7     8    2
    26     8     9    1
    27     9     1    1
    28     8     4    1
    29    16    10   ar
    30    22    17   ar
@<TRIPOS>MOLECULE
*****
 27 30 0 0 0
SMALL
GASTEIGER

@<TRIPOS>ATOM
      1 C           0.6860    1.6641   28.0955 C.2     1  UNL1        0.0919
      2 C          -0.6175    2.1892   27.5711 C.2     1  UNL1        0.0183
      3 C          -0.8829    2.1986   26.0948 C.2     1  UNL1        0.0511
      4 C           0.1552    1.6828   25.1429 C.2     1  UNL1        0.2322
      5 N           0.1767    1.5670   23.6475 N.2     1  UNL1       -0.0308
      6 C           1.4936    0.9703   23.2477 C.2     1  UNL1        0.3752
      7 N           2.2859    0.7173   24.4959 N.2     1  UNL1       -0.0347
      8 C           1.4587    1.1577   25.6672 C.2     1  UNL1        0.2191
      9 C           1.7241    1.1483   27.1435 C.3     1  UNL1        0.1226
     10 C           1.9397    0.6779   21.8457 C.ar    1  UNL1        0.0884
     11 C           1.6444    1.6541   20.7457 C.ar    1  UNL1        0.0074
     12 C           2.0905    1.3618   19.3438 C.ar    1  UNL1       -0.0040
     13 C           2.8319    0.0933   19.0418 C.ar    1  UNL1       -0.0218
     14 C           3.2781   -0.1991   17.6398 C.3     1  UNL1        0.0310
     15 C           3.1272   -0.8829   20.1418 C.ar    1  UNL1       -0.0037
     16 C           2.6811   -0.5906   21.5437 C.ar    1  UNL1        0.0074
     17 C           3.8687   -2.1514   19.8397 C.ar    1  UNL1       -0.0003
     18 C           5.3513   -2.2231   20.0556 C.ar    1  UNL1       -0.0000
     19 C           6.0927   -3.4916   19.7535 C.ar    1  UNL1       -0.0000
     20 C           5.3514   -4.6884   19.2356 C.ar    1  UNL1       -0.0000
     21 C           3.8688   -4.6167   19.0198 C.ar    1  UNL1       -0.0000
     22 C           3.1274   -3.3482   19.3218 C.ar    1  UNL1       -0.0000
     23 S           0.9514    1.6547   29.5718 S.O2    1  UNL1        0.0054
     24 O           0.5028    0.2252   29.6434 O.2     1  UNL1       -0.1689
     25 O           1.4000    3.0843   29.5002 O.2     1  UNL1       -0.1689
     26 C           0.7853    2.8057   31.8951 C.3     1  UNL1        0.0276
     27 C           1.2168    1.6454   31.0481 C.3     1  UNL1        0.1556
@<TRIPOS>BOND
     1    26    27    1
     2    27    23    1
     3    23    24    2
     4    23    25    2
     5    23     1    1
     6     1     2    2
     7     2     3    1
     8     3     4    2
     9     4     5    1
    10     5     6    2
    11     6    10    1
    12    10    11   ar
    13    11    12   ar
    14    12    13   ar
    15    13    14    1
    16    13    15   ar
    17    15    17    1
    18    17    18   ar
    19    18    19   ar
    20    19    20   ar
    21    20    21   ar
    22    21    22   ar
    23    15    16   ar
    24     6     7    1
    25     7     8    2
    26     8     9    1
    27     9     1    1
    28     8     4    1
    29    16    10   ar
    30    22    17   ar
@<TRIPOS>MOLECULE
*****
 27 30 0 0 0
SMALL
GASTEIGER

@<TRIPOS>ATOM
      1 C          -1.8566    3.5346   25.8574 C.2     1  UNL1        0.0919
      2 C          -1.1105    2.5108   26.6606 C.2     1  UNL1        0.0183
      3 C          -0.1439    1.5851   25.9833 C.2     1  UNL1        0.0511
      4 C           0.0767    1.6832   24.5029 C.2     1  UNL1        0.2322
      5 N           0.9591    0.9124   23.5663 N.2     1  UNL1       -0.0308
      6 C           0.7584    1.4598   22.1843 C.2     1  UNL1        0.3752
      7 N          -0.2480    2.5689   22.2667 N.2     1  UNL1       -0.0347
      8 C          -0.6694    2.7070   23.6997 C.2     1  UNL1        0.2191
      9 C          -1.6360    3.6327   24.3770 C.3     1  UNL1        0.1226
     10 C           1.4439    0.9820   20.9385 C.ar    1  UNL1        0.0884
     11 C           1.2583    1.7245   19.6485 C.ar    1  UNL1        0.0074
     12 C           1.9437    1.2467   18.4028 C.ar    1  UNL1       -0.0040
     13 C           2.8148    0.0264   18.4471 C.ar    1  UNL1       -0.0218
     14 C           3.5003   -0.4515   17.2013 C.3     1  UNL1        0.0310
     15 C           3.0004   -0.7162   19.7371 C.ar    1  UNL1       -0.0037
     16 C           2.3150   -0.2384   20.9828 C.ar    1  UNL1        0.0074
     17 C           3.8715   -1.9366   19.7814 C.ar    1  UNL1       -0.0003
     18 C           3.3092   -3.2736   19.3994 C.ar    1  UNL1       -0.0000
     19 C           4.1803   -4.4939   19.4437 C.ar    1  UNL1       -0.0000
     20 C           5.6137   -4.3771   19.8699 C.ar    1  UNL1       -0.0000
     21 C           6.1760   -3.0401   20.2519 C.ar    1  UNL1       -0.0000
     22 C           5.3049   -1.8198   20.2076 C.ar    1  UNL1       -0.0000
     23 S          -2.8232    4.4603   26.5346 S.O2    1  UNL1        0.0054
     24 O          -3.9685    3.6326   26.0312 O.2     1  UNL1       -0.1689
     25 O          -1.6780    5.2879   27.0380 O.2     1  UNL1       -0.1689
     26 C          -5.2388    5.3718   26.8242 C.3     1  UNL1        0.0276
     27 C          -3.7899    5.3860   27.2118 C.3     1  UNL1        0.1556
@<TRIPOS>BOND
     1    26    27    1
     2    27    23    1
     3    23    24    2
     4    23    25    2
     5    23     1    1
     6     1     2    2
     7     2     3    1
     8     3     4    2
     9     4     5    1
    10     5     6    2
    11     6    10    1
    12    10    11   ar
    13    11    12   ar
    14    12    13   ar
    15    13    14    1
    16    13    15   ar
    17    15    17    1
    18    17    18   ar
    19    18    19   ar
    20    19    20   ar
    21    20    21   ar
    22    21    22   ar
    23    15    16   ar
    24     6     7    1
    25     7     8    2
    26     8     9    1
    27     9     1    1
    28     8     4    1
    29    16    10   ar
    30    22    17   ar
@<TRIPOS>MOLECULE
*****
 27 30 0 0 0
SMALL
GASTEIGER

@<TRIPOS>ATOM
      1 C           5.9672   -1.7552   29.6335 C.2     1  UNL1        0.0919
      2 C           4.7385   -0.8955   29.6667 C.2     1  UNL1        0.0183
      3 C           3.9426   -0.6761   28.4144 C.2     1  UNL1        0.0511
      4 C           4.3754   -1.3164   27.1288 C.2     1  UNL1        0.2322
      5 N           3.7963   -1.2818   25.7455 N.2     1  UNL1       -0.0308
      6 C           4.6672   -2.1202   24.8574 C.2     1  UNL1        0.3752
      7 N           5.7844   -2.6729   25.6917 N.2     1  UNL1       -0.0347
      8 C           5.6041   -2.1761   27.0956 C.2     1  UNL1        0.2191
      9 C           6.4000   -2.3955   28.3479 C.3     1  UNL1        0.1226
     10 C           4.4575   -2.3631   23.3920 C.ar    1  UNL1        0.0884
     11 C           4.9718   -3.6223   22.7595 C.ar    1  UNL1        0.0074
     12 C           4.7622   -3.8653   21.2942 C.ar    1  UNL1       -0.0040
     13 C           4.0382   -2.8491   20.4616 C.ar    1  UNL1       -0.0218
     14 C           3.8286   -3.0921   18.9962 C.3     1  UNL1        0.0310
     15 C           3.5240   -1.5900   21.0941 C.ar    1  UNL1       -0.0037
     16 C           3.7336   -1.3470   22.5594 C.ar    1  UNL1        0.0074
     17 C           2.8000   -0.5739   20.2614 C.ar    1  UNL1       -0.0003
     18 C           3.5739    0.3716   19.3913 C.ar    1  UNL1       -0.0000
     19 C           2.8500    1.3877   18.5586 C.ar    1  UNL1       -0.0000
     20 C           1.3521    1.4583   18.5960 C.ar    1  UNL1       -0.0000
     21 C           0.5782    0.5128   19.4660 C.ar    1  UNL1       -0.0000
     22 C           1.3021   -0.5033   20.2987 C.ar    1  UNL1       -0.0000
     23 S           6.7631   -1.9747   30.8858 S.O2    1  UNL1        0.0054
     24 O           7.1112   -0.5160   30.9202 O.2     1  UNL1       -0.1689
     25 O           6.4150   -3.4333   30.8515 O.2     1  UNL1       -0.1689
     26 C           8.7508   -3.1047   32.1195 C.3     1  UNL1        0.0276
     27 C           7.5590   -2.1941   32.1382 C.3     1  UNL1        0.1556
@<TRIPOS>BOND
     1    26    27    1
     2    27    23    1
     3    23    24    2
     4    23    25    2
     5    23     1    1
     6     1     2    2
     7     2     3    1
     8     3     4    2
     9     4     5    1
    10     5     6    2
    11     6    10    1
    12    10    11   ar
    13    11    12   ar
    14    12    13   ar
    15    13    14    1
    16    13    15   ar
    17    15    17    1
    18    17    18   ar
    19    18    19   ar
    20    19    20   ar
    21    20    21   ar
    22    21    22   ar
    23    15    16   ar
    24     6     7    1
    25     7     8    2
    26     8     9    1
    27     9     1    1
    28     8     4    1
    29    16    10   ar
    30    22    17   ar
@<TRIPOS>MOLECULE
*****
 27 30 0 0 0
SMALL
GASTEIGER

@<TRIPOS>ATOM
      1 C           2.9840   -1.1882   19.5259 C.2     1  UNL1        0.0919
      2 C           3.3565   -0.2220   18.4408 C.2     1  UNL1        0.0183
      3 C           2.5683    1.0412   18.2582 C.2     1  UNL1        0.0511
      4 C           1.4078    1.3381   19.1609 C.2     1  UNL1        0.2322
      5 N           0.4528    2.4933   19.2210 N.2     1  UNL1       -0.0308
      6 C          -0.5099    2.2410   20.3433 C.2     1  UNL1        0.3752
      7 N          -0.1499    0.9299   20.9769 N.2     1  UNL1       -0.0347
      8 C           1.0353    0.3719   20.2460 C.2     1  UNL1        0.2191
      9 C           1.8234   -0.8913   20.4286 C.3     1  UNL1        0.1226
     10 C          -1.6350    3.1418   20.7591 C.ar    1  UNL1        0.0884
     11 C          -2.5174    3.7680   19.7203 C.ar    1  UNL1        0.0074
     12 C          -3.6425    4.6687   20.1359 C.ar    1  UNL1       -0.0040
     13 C          -3.8852    4.9432   21.5905 C.ar    1  UNL1       -0.0218
     14 C          -5.0103    5.8440   22.0062 C.3     1  UNL1        0.0310
     15 C          -3.0028    4.3170   22.6293 C.ar    1  UNL1       -0.0037
     16 C          -1.8777    3.4162   22.2136 C.ar    1  UNL1        0.0074
     17 C          -3.2455    4.5915   24.0839 C.ar    1  UNL1       -0.0003
     18 C          -2.5174    5.7106   24.7676 C.ar    1  UNL1       -0.0000
     19 C          -2.7601    5.9850   26.2222 C.ar    1  UNL1       -0.0000
     20 C          -3.7310    5.1404   26.9930 C.ar    1  UNL1       -0.0000
     21 C          -4.4591    4.0214   26.3093 C.ar    1  UNL1       -0.0000
     22 C          -4.2163    3.7469   24.8547 C.ar    1  UNL1       -0.0000
     23 S           3.7721   -2.4514   19.7084 S.O2    1  UNL1        0.0054
     24 O           3.6329   -2.3232   21.1965 O.2     1  UNL1       -0.1689
     25 O           3.9113   -2.5795   18.2204 O.2     1  UNL1       -0.1689
     26 C           4.3967   -4.8473   18.9214 C.3     1  UNL1        0.0276
     27 C           4.5602   -3.7145   19.8910 C.3     1  UNL1        0.1556
@<TRIPOS>BOND
     1    26    27    1
     2    27    23    1
     3    23    24    2
     4    23    25    2
     5    23     1    1
     6     1     2    2
     7     2     3    1
     8     3     4    2
     9     4     5    1
    10     5     6    2
    11     6    10    1
    12    10    11   ar
    13    11    12   ar
    14    12    13   ar
    15    13    14    1
    16    13    15   ar
    17    15    17    1
    18    17    18   ar
    19    18    19   ar
    20    19    20   ar
    21    20    21   ar
    22    21    22   ar
    23    15    16   ar
    24     6     7    1
    25     7     8    2
    26     8     9    1
    27     9     1    1
    28     8     4    1
    29    16    10   ar
    30    22    17   ar
@<TRIPOS>MOLECULE
*****
 27 30 0 0 0
SMALL
GASTEIGER

@<TRIPOS>ATOM
      1 C           4.4483   -1.9425   20.2993 C.2     1  UNL1        0.0919
      2 C           5.5439   -2.3720   19.3692 C.2     1  UNL1        0.0183
      3 C           6.6324   -3.2794   19.8608 C.2     1  UNL1        0.0511
      4 C           6.6254   -3.7573   21.2826 C.2     1  UNL1        0.2322
      5 N           7.5577   -4.6507   22.0459 N.2     1  UNL1       -0.0308
      6 C           7.0384   -4.7734   23.4478 C.2     1  UNL1        0.3752
      7 N           5.7850   -3.9558   23.5509 N.2     1  UNL1       -0.0347
      8 C           5.5298   -3.3278   22.2128 C.2     1  UNL1        0.2191
      9 C           4.4413   -2.4204   21.7211 C.3     1  UNL1        0.1226
     10 C           7.6628   -5.5732   24.5525 C.ar    1  UNL1        0.0884
     11 C           8.3571   -6.8661   24.2423 C.ar    1  UNL1        0.0074
     12 C           8.9815   -7.6660   25.3470 C.ar    1  UNL1       -0.0040
     13 C           8.9115   -7.1729   26.7619 C.ar    1  UNL1       -0.0218
     14 C           9.5360   -7.9728   27.8666 C.3     1  UNL1        0.0310
     15 C           8.2172   -5.8800   27.0721 C.ar    1  UNL1       -0.0037
     16 C           7.5928   -5.0801   25.9674 C.ar    1  UNL1        0.0074
     17 C           8.1472   -5.3869   28.4871 C.ar    1  UNL1       -0.0003
     18 C           6.9977   -5.7857   29.3643 C.ar    1  UNL1       -0.0000
     19 C           6.9278   -5.2927   30.7792 C.ar    1  UNL1       -0.0000
     20 C           8.0074   -4.4008   31.3168 C.ar    1  UNL1       -0.0000
     21 C           9.1569   -4.0021   30.4396 C.ar    1  UNL1       -0.0000
     22 C           9.2268   -4.4951   29.0247 C.ar    1  UNL1       -0.0000
     23 S           3.3598   -1.0351   19.8077 S.O2    1  UNL1        0.0054
     24 O           3.8717   -1.1808   18.4053 O.2     1  UNL1       -0.1689
     25 O           2.8479   -0.8893   21.2101 O.2     1  UNL1       -0.1689
     26 C           0.9204   -0.1556   19.9672 C.3     1  UNL1        0.0276
     27 C           2.2713   -0.1276   19.3160 C.3     1  UNL1        0.1556
@<TRIPOS>BOND
     1    26    27    1
     2    27    23    1
     3    23    24    2
     4    23    25    2
     5    23     1    1
     6     1     2    2
     7     2     3    1
     8     3     4    2
     9     4     5    1
    10     5     6    2
    11     6    10    1
    12    10    11   ar
    13    11    12   ar
    14    12    13   ar
    15    13    14    1
    16    13    15   ar
    17    15    17    1
    18    17    18   ar
    19    18    19   ar
    20    19    20   ar
    21    20    21   ar
    22    21    22   ar
    23    15    16   ar
    24     6     7    1
    25     7     8    2
    26     8     9    1
    27     9     1    1
    28     8     4    1
    29    16    10   ar
    30    22    17   ar
@<TRIPOS>MOLECULE
*****
 27 30 0 0 0
SMALL
GASTEIGER

@<TRIPOS>ATOM
      1 C           3.7284   -0.3116   29.6903 C.2     1  UNL1        0.0919
      2 C           2.6816    0.7497   29.8565 C.2     1  UNL1        0.0183
      3 C           1.9521    1.2779   28.6570 C.2     1  UNL1        0.0511
      4 C           2.2694    0.7449   27.2913 C.2     1  UNL1        0.2322
      5 N           1.7197    1.0701   25.9341 N.2     1  UNL1       -0.0308
      6 C           2.4268    0.2098   24.9292 C.2     1  UNL1        0.3752
      7 N           3.4136   -0.6472   25.6652 N.2     1  UNL1       -0.0347
      8 C           3.3163   -0.3165   27.1252 C.2     1  UNL1        0.2191
      9 C           4.0458   -0.8447   28.3247 C.3     1  UNL1        0.1226
     10 C           2.1888    0.2070   23.4481 C.ar    1  UNL1        0.0884
     11 C           1.0937    1.0486   22.8629 C.ar    1  UNL1        0.0074
     12 C           0.8557    1.0459   21.3819 C.ar    1  UNL1       -0.0040
     13 C           1.7128    0.2015   20.4862 C.ar    1  UNL1       -0.0218
     14 C           1.4749    0.1987   19.0051 C.3     1  UNL1        0.0310
     15 C           2.8079   -0.6401   21.0714 C.ar    1  UNL1       -0.0037
     16 C           3.0459   -0.6373   22.5524 C.ar    1  UNL1        0.0074
     17 C           3.6650   -1.4845   20.1756 C.ar    1  UNL1       -0.0003
     18 C           3.2412   -2.8815   19.8310 C.ar    1  UNL1       -0.0000
     19 C           4.0983   -3.7258   18.9352 C.ar    1  UNL1       -0.0000
     20 C           5.3792   -3.1731   18.3840 C.ar    1  UNL1       -0.0000
     21 C           5.8031   -1.7761   18.7286 C.ar    1  UNL1       -0.0000
     22 C           4.9460   -0.9318   19.6244 C.ar    1  UNL1       -0.0000
     23 S           4.4579   -0.8398   30.8898 S.O2    1  UNL1        0.0054
     24 O           5.7683   -0.5748   30.2096 O.2     1  UNL1       -0.1689
     25 O           3.1476   -1.1049   31.5700 O.2     1  UNL1       -0.1689
     26 C           4.5982   -2.4903   32.8914 C.3     1  UNL1        0.0276
     27 C           5.1874   -1.3681   32.0893 C.3     1  UNL1        0.1556
@<TRIPOS>BOND
     1    26    27    1
     2    27    23    1
     3    23    24    2
     4    23    25    2
     5    23     1    1
     6     1     2    2
     7     2     3    1
     8     3     4    2
     9     4     5    1
    10     5     6    2
    11     6    10    1
    12    10    11   ar
    13    11    12   ar
    14    12    13   ar
    15    13    14    1
    16    13    15   ar
    17    15    17    1
    18    17    18   ar
    19    18    19   ar
    20    19    20   ar
    21    20    21   ar
    22    21    22   ar
    23    15    16   ar
    24     6     7    1
    25     7     8    2
    26     8     9    1
    27     9     1    1
    28     8     4    1
    29    16    10   ar
    30    22    17   ar
@<TRIPOS>MOLECULE
*****
 27 30 0 0 0
SMALL
GASTEIGER

@<TRIPOS>ATOM
      1 C           7.0544   -4.7298   26.3705 C.2     1  UNL1        0.0919
      2 C           6.6200   -3.3969   26.9038 C.2     1  UNL1        0.0183
      3 C           6.0498   -2.3668   25.9744 C.2     1  UNL1        0.0511
      4 C           5.9139   -2.6697   24.5117 C.2     1  UNL1        0.2322
      5 N           5.3920   -1.8585   23.3629 N.2     1  UNL1       -0.0308
      6 C           5.5038   -2.6901   22.1196 C.2     1  UNL1        0.3752
      7 N           6.0948   -4.0153   22.4998 N.2     1  UNL1       -0.0347
      8 C           6.3483   -4.0026   23.9783 C.2     1  UNL1        0.2191
      9 C           6.9185   -5.0327   24.9077 C.3     1  UNL1        0.1226
     10 C           5.0961   -2.2703   20.7384 C.ar    1  UNL1        0.0884
     11 C           5.5330   -3.0750   19.5503 C.ar    1  UNL1        0.0074
     12 C           5.1254   -2.6552   18.1692 C.ar    1  UNL1       -0.0040
     13 C           4.2809   -1.4306   17.9761 C.ar    1  UNL1       -0.0218
     14 C           3.8732   -1.0107   16.5950 C.3     1  UNL1        0.0310
     15 C           3.8441   -0.6259   19.1642 C.ar    1  UNL1       -0.0037
     16 C           4.2517   -1.0457   20.5454 C.ar    1  UNL1        0.0074
     17 C           2.9996    0.5987   18.9712 C.ar    1  UNL1       -0.0003
     18 C           3.6497    1.9423   18.8224 C.ar    1  UNL1       -0.0000
     19 C           2.8052    3.1668   18.6293 C.ar    1  UNL1       -0.0000
     20 C           1.3106    3.0478   18.5850 C.ar    1  UNL1       -0.0000
     21 C           0.6605    1.7042   18.7338 C.ar    1  UNL1       -0.0000
     22 C           1.5050    0.4797   18.9269 C.ar    1  UNL1       -0.0000
     23 S           7.6246   -5.7599   27.2999 S.O2    1  UNL1        0.0054
     24 O           6.4350   -5.6058   28.2006 O.2     1  UNL1       -0.1689
     25 O           8.8141   -5.9141   26.3992 O.2     1  UNL1       -0.1689
     26 C           8.4178   -8.1930   27.7479 C.3     1  UNL1        0.0276
     27 C           8.1948   -6.7900   28.2293 C.3     1  UNL1        0.1556
@<TRIPOS>BOND
     1    26    27    1
     2    27    23    1
     3    23    24    2
     4    23    25    2
     5    23     1    1
     6     1     2    2
     7     2     3    1
     8     3     4    2
     9     4     5    1
    10     5     6    2
    11     6    10    1
    12    10    11   ar
    13    11    12   ar
    14    12    13   ar
    15    13    14    1
    16    13    15   ar
    17    15    17    1
    18    17    18   ar
    19    18    19   ar
    20    19    20   ar
    21    20    21   ar
    22    21    22   ar
    23    15    16   ar
    24     6     7    1
    25     7     8    2
    26     8     9    1
    27     9     1    1
    28     8     4    1
    29    16    10   ar
    30    22    17   ar
