@<TRIPOS>MOLECULE
*****
 26 29 0 0 0
SMALL
GASTEIGER

@<TRIPOS>ATOM
      1 C          -5.4578  -15.7536   24.1769 C.3     1  UNL1        0.0722
      2 C          -5.2455  -16.9119   23.2478 C.ar    1  UNL1        0.1251
      3 N          -3.9197  -17.4753   22.8297 N.ar    1  UNL1       -0.2275
      4 C          -4.1765  -18.6218   21.8971 C.ar    1  UNL1        0.1326
      5 C          -3.2504  -19.5523   21.1717 C.ar    1  UNL1        0.1632
      6 C          -3.8088  -20.6279   20.2878 C.ar    1  UNL1        0.0388
      7 C          -5.2934  -20.7730   20.1294 C.ar    1  UNL1        0.0047
      8 C          -6.2195  -19.8424   20.8549 C.ar    1  UNL1        0.0193
      9 C          -5.6611  -18.7668   21.7387 C.ar    1  UNL1        0.0861
     10 N          -6.3217  -17.7100   22.5735 N.ar    1  UNL1       -0.2881
     11 C          -7.7992  -17.4901   22.7099 C.ar    1  UNL1        0.0953
     12 C          -8.5938  -16.4040   22.0473 C.ar    1  UNL1        0.0250
     13 C         -10.0272  -16.5602   22.4608 C.ar    1  UNL1        0.0131
     14 C         -10.1185  -17.7429   23.3790 C.ar    1  UNL1        0.0841
     15 S          -8.7415  -18.3175   23.5329 S.2     1  UNL1       -0.0648
     16 C         -11.3674  -18.2601   24.0290 C.2     1  UNL1        0.2519
     17 O         -11.2999  -19.4442   24.9474 O.2     1  UNL1       -0.2696
     18 N         -12.6840  -17.5932   23.7607 N.am    1  UNL1       -0.3021
     19 H         -12.7283  -16.8160   23.1580 H       1  UNL1        0.1497
     20 C         -13.9329  -18.1104   24.4108 C.3     1  UNL1        0.0720
     21 C         -15.3645  -18.5468   24.3106 C.3     1  UNL1        0.0213
     22 C         -14.6646  -18.5699   25.6370 C.3     1  UNL1        0.0213
     23 O          -1.7658  -19.4073   21.3301 O.3     1  UNL1       -0.4220
     24 C          -1.0432  -18.2905   20.6369 C.3     1  UNL1        0.5087
     25 F           0.0670  -18.5978   19.6761 F       1  UNL1       -0.1550
     26 F          -1.4307  -16.8663   20.9045 F       1  UNL1       -0.1550
@<TRIPOS>BOND
     1     1     2    1
     2     2     3   ar
     3     3     4   ar
     4     4     5   ar
     5     5    23    1
     6    23    24    1
     7    24    25    1
     8    24    26    1
     9     5     6   ar
    10     6     7   ar
    11     7     8   ar
    12     8     9   ar
    13     9    10   ar
    14    10    11    1
    15    11    12   ar
    16    12    13   ar
    17    13    14   ar
    18    14    16    1
    19    16    17    2
    20    16    18   am
    21    18    20    1
    22    20    21    1
    23    21    22    1
    24    14    15   ar
    25    10     2   ar
    26    15    11   ar
    27     9     4   ar
    28    22    20    1
    29    18    19    1
@<TRIPOS>MOLECULE
*****
 26 29 0 0 0
SMALL
GASTEIGER

@<TRIPOS>ATOM
      1 C          -9.4372  -20.0271   18.9270 C.3     1  UNL1        0.0722
      2 C          -9.3702  -19.1396   20.1344 C.ar    1  UNL1        0.1251
      3 N         -10.5102  -18.3603   20.7202 N.ar    1  UNL1       -0.2275
      4 C          -9.9960  -17.6146   21.9159 C.ar    1  UNL1        0.1326
      5 C         -10.6669  -16.6868   22.8849 C.ar    1  UNL1        0.1632
      6 C          -9.8799  -16.0773   24.0070 C.ar    1  UNL1        0.0388
      7 C          -8.4221  -16.3957   24.1602 C.ar    1  UNL1        0.0047
      8 C          -7.7513  -17.3235   23.1912 C.ar    1  UNL1        0.0193
      9 C          -8.5382  -17.9330   22.0690 C.ar    1  UNL1        0.0861
     10 N          -8.1515  -18.8755   20.9680 N.ar    1  UNL1       -0.2881
     11 C          -6.7857  -19.4525   20.7406 C.ar    1  UNL1        0.0953
     12 C          -6.4826  -20.8566   20.3084 C.ar    1  UNL1        0.0250
     13 C          -4.9929  -20.9987   20.2061 C.ar    1  UNL1        0.0131
     14 C          -4.3752  -19.6824   20.5750 C.ar    1  UNL1        0.0841
     15 S          -5.4833  -18.7269   20.9053 S.2     1  UNL1       -0.0648
     16 C          -2.9074  -19.3756   20.6079 C.2     1  UNL1        0.2519
     17 O          -1.9678  -20.2826   21.3460 O.2     1  UNL1       -0.2696
     18 N          -2.3788  -18.1619   19.9026 N.am    1  UNL1       -0.3021
     19 H          -2.9954  -17.5666   19.4181 H       1  UNL1        0.1497
     20 C          -0.9109  -17.8551   19.9354 C.3     1  UNL1        0.0720
     21 C           0.2066  -16.8685   20.1015 C.3     1  UNL1        0.0213
     22 C           0.5141  -18.3105   19.8263 C.3     1  UNL1        0.0213
     23 O         -12.1247  -16.3684   22.7317 O.3     1  UNL1       -0.4220
     24 C         -13.1454  -17.4636   22.8250 C.3     1  UNL1        0.5087
     25 F         -13.7027  -17.8576   24.1606 F       1  UNL1       -0.1550
     26 F         -13.6087  -18.1647   21.5825 F       1  UNL1       -0.1550
@<TRIPOS>BOND
     1     1     2    1
     2     2     3   ar
     3     3     4   ar
     4     4     5   ar
     5     5    23    1
     6    23    24    1
     7    24    25    1
     8    24    26    1
     9     5     6   ar
    10     6     7   ar
    11     7     8   ar
    12     8     9   ar
    13     9    10   ar
    14    10    11    1
    15    11    12   ar
    16    12    13   ar
    17    13    14   ar
    18    14    16    1
    19    16    17    2
    20    16    18   am
    21    18    20    1
    22    20    21    1
    23    21    22    1
    24    14    15   ar
    25    10     2   ar
    26    15    11   ar
    27     9     4   ar
    28    22    20    1
    29    18    19    1
@<TRIPOS>MOLECULE
*****
 26 29 0 0 0
SMALL
GASTEIGER

@<TRIPOS>ATOM
      1 C          -9.2393  -20.7827   24.3511 C.3     1  UNL1        0.0722
      2 C          -9.8956  -19.6502   23.6184 C.ar    1  UNL1        0.1251
      3 N         -11.1977  -19.0010   23.9831 N.ar    1  UNL1       -0.2275
      4 C         -11.4719  -17.9177   22.9825 C.ar    1  UNL1        0.1326
      5 C         -12.6066  -16.9471   22.8396 C.ar    1  UNL1        0.1632
      6 C         -12.6086  -15.9563   21.7135 C.ar    1  UNL1        0.0388
      7 C         -11.4759  -15.9360   20.7303 C.ar    1  UNL1        0.0047
      8 C         -10.3412  -16.9065   20.8732 C.ar    1  UNL1        0.0193
      9 C         -10.3392  -17.8974   21.9993 C.ar    1  UNL1        0.0861
     10 N          -9.3650  -18.9681   22.3923 N.ar    1  UNL1       -0.2881
     11 C          -8.0850  -19.2987   21.6837 C.ar    1  UNL1        0.0953
     12 C          -7.9372  -20.2357   20.5216 C.ar    1  UNL1        0.0250
     13 C          -6.4889  -20.2665   20.1324 C.ar    1  UNL1        0.0131
     14 C          -5.7416  -19.3486   21.0538 C.ar    1  UNL1        0.0841
     15 S          -6.7281  -18.7505   22.0125 S.2     1  UNL1       -0.0648
     16 C          -4.2669  -19.0766   21.0221 C.2     1  UNL1        0.2519
     17 O          -3.3597  -19.7428   22.0138 O.2     1  UNL1       -0.2696
     18 N          -3.6991  -18.1383   19.9988 N.am    1  UNL1       -0.3021
     19 H          -4.2944  -17.7010   19.3479 H       1  UNL1        0.1497
     20 C          -2.2243  -17.8663   19.9671 C.3     1  UNL1        0.0720
     21 C          -0.8525  -18.1994   19.4600 C.3     1  UNL1        0.0213
     22 C          -1.0417  -17.0620   20.4193 C.3     1  UNL1        0.0213
     23 O         -13.7392  -16.9675   23.8227 O.3     1  UNL1       -0.4220
     24 C         -14.2359  -18.2736   24.3678 C.3     1  UNL1        0.5087
     25 F         -13.4917  -18.9547   25.4779 F       1  UNL1       -0.1550
     26 F         -15.4769  -18.8989   23.8027 F       1  UNL1       -0.1550
@<TRIPOS>BOND
     1     1     2    1
     2     2     3   ar
     3     3     4   ar
     4     4     5   ar
     5     5    23    1
     6    23    24    1
     7    24    25    1
     8    24    26    1
     9     5     6   ar
    10     6     7   ar
    11     7     8   ar
    12     8     9   ar
    13     9    10   ar
    14    10    11    1
    15    11    12   ar
    16    12    13   ar
    17    13    14   ar
    18    14    16    1
    19    16    17    2
    20    16    18   am
    21    18    20    1
    22    20    21    1
    23    21    22    1
    24    14    15   ar
    25    10     2   ar
    26    15    11   ar
    27     9     4   ar
    28    22    20    1
    29    18    19    1
@<TRIPOS>MOLECULE
*****
 26 29 0 0 0
SMALL
GASTEIGER

@<TRIPOS>ATOM
      1 C          -4.0611  -17.6149   24.6717 C.3     1  UNL1        0.0722
      2 C          -3.6815  -17.7274   23.2249 C.ar    1  UNL1        0.1251
      3 N          -2.3609  -17.3416   22.6273 N.ar    1  UNL1       -0.2275
      4 C          -2.4191  -17.6212   21.1547 C.ar    1  UNL1        0.1326
      5 C          -1.4121  -17.4393   20.0580 C.ar    1  UNL1        0.1632
      6 C          -1.7616  -17.8161   18.6488 C.ar    1  UNL1        0.0388
      7 C          -3.1182  -18.3748   18.3364 C.ar    1  UNL1        0.0047
      8 C          -4.1252  -18.5567   19.4330 C.ar    1  UNL1        0.0193
      9 C          -3.7756  -18.1799   20.8422 C.ar    1  UNL1        0.0861
     10 N          -4.5559  -18.2455   22.1217 N.ar    1  UNL1       -0.2881
     11 C          -5.9633  -18.7421   22.2715 C.ar    1  UNL1        0.0953
     12 C          -6.3903  -20.1791   22.3241 C.ar    1  UNL1        0.0250
     13 C          -7.8818  -20.2140   22.4802 C.ar    1  UNL1        0.0131
     14 C          -8.3766  -18.7986   22.5241 C.ar    1  UNL1        0.0841
     15 S          -7.1908  -17.8890   22.3951 S.2     1  UNL1       -0.0648
     16 C          -9.8059  -18.3684   22.6712 C.2     1  UNL1        0.2519
     17 O         -10.3989  -17.3914   21.6996 O.2     1  UNL1       -0.2696
     18 N         -10.6425  -18.9152   23.7897 N.am    1  UNL1       -0.3021
     19 H         -10.2533  -19.5564   24.4274 H       1  UNL1        0.1497
     20 C         -12.0719  -18.4850   23.9367 C.3     1  UNL1        0.0720
     21 C         -13.2787  -17.7795   23.3928 C.3     1  UNL1        0.0213
     22 C         -13.3410  -18.4454   24.7354 C.3     1  UNL1        0.0213
     23 O          -0.0555  -16.8807   20.3705 O.3     1  UNL1       -0.4220
     24 C           1.1458  -17.7787   20.3609 C.3     1  UNL1        0.5087
     25 F           1.0400  -19.1671   19.8029 F       1  UNL1       -0.1550
     26 F           2.4532  -17.2885   20.9092 F       1  UNL1       -0.1550
@<TRIPOS>BOND
     1     1     2    1
     2     2     3   ar
     3     3     4   ar
     4     4     5   ar
     5     5    23    1
     6    23    24    1
     7    24    25    1
     8    24    26    1
     9     5     6   ar
    10     6     7   ar
    11     7     8   ar
    12     8     9   ar
    13     9    10   ar
    14    10    11    1
    15    11    12   ar
    16    12    13   ar
    17    13    14   ar
    18    14    16    1
    19    16    17    2
    20    16    18   am
    21    18    20    1
    22    20    21    1
    23    21    22    1
    24    14    15   ar
    25    10     2   ar
    26    15    11   ar
    27     9     4   ar
    28    22    20    1
    29    18    19    1
@<TRIPOS>MOLECULE
*****
 26 29 0 0 0
SMALL
GASTEIGER

@<TRIPOS>ATOM
      1 C           2.3683    0.2521   17.8691 C.3     1  UNL1        0.0722
      2 C           2.8521   -0.4944   19.0768 C.ar    1  UNL1        0.1251
      3 N           3.6494   -1.7649   19.0672 N.ar    1  UNL1       -0.2275
      4 C           3.9136   -2.1572   20.4907 C.ar    1  UNL1        0.1326
      5 C           4.6496   -3.3177   21.0919 C.ar    1  UNL1        0.1632
      6 C           4.7516   -3.4501   22.5825 C.ar    1  UNL1        0.0388
      7 C           4.1176   -2.4220   23.4719 C.ar    1  UNL1        0.0047
      8 C           3.3817   -1.2615   22.8707 C.ar    1  UNL1        0.0193
      9 C           3.2797   -1.1291   21.3801 C.ar    1  UNL1        0.0861
     10 N           2.6236   -0.1014   20.5063 N.ar    1  UNL1       -0.2881
     11 C           1.8712    1.1071   20.9790 C.ar    1  UNL1        0.0953
     12 C           2.4787    2.3884   21.4681 C.ar    1  UNL1        0.0250
     13 C           1.3622    3.3196   21.8370 C.ar    1  UNL1        0.0131
     14 C           0.0645    2.6139   21.5759 C.ar    1  UNL1        0.0841
     15 S           0.3792    1.2465   21.0456 S.2     1  UNL1       -0.0648
     16 C          -1.3068    3.1767   21.8048 C.2     1  UNL1        0.2519
     17 O          -1.5630    4.0735   22.9796 O.2     1  UNL1       -0.2696
     18 N          -2.4221    2.8428   20.8590 N.am    1  UNL1       -0.3021
     19 H          -2.2540    2.2542   20.0879 H       1  UNL1        0.1497
     20 C          -3.7935    3.4056   21.0880 C.3     1  UNL1        0.0720
     21 C          -4.9252    3.7323   22.0166 C.3     1  UNL1        0.0213
     22 C          -5.0371    4.0539   20.5558 C.3     1  UNL1        0.0213
     23 O           5.2836   -4.3458   20.2025 O.3     1  UNL1       -0.4220
     24 C           4.4410   -5.1216   19.2338 C.3     1  UNL1        0.5087
     25 F           5.0925   -6.0274   18.2313 F       1  UNL1       -0.1550
     26 F           2.9470   -4.9916   19.2678 F       1  UNL1       -0.1550
@<TRIPOS>BOND
     1     1     2    1
     2     2     3   ar
     3     3     4   ar
     4     4     5   ar
     5     5    23    1
     6    23    24    1
     7    24    25    1
     8    24    26    1
     9     5     6   ar
    10     6     7   ar
    11     7     8   ar
    12     8     9   ar
    13     9    10   ar
    14    10    11    1
    15    11    12   ar
    16    12    13   ar
    17    13    14   ar
    18    14    16    1
    19    16    17    2
    20    16    18   am
    21    18    20    1
    22    20    21    1
    23    21    22    1
    24    14    15   ar
    25    10     2   ar
    26    15    11   ar
    27     9     4   ar
    28    22    20    1
    29    18    19    1
@<TRIPOS>MOLECULE
*****
 26 29 0 0 0
SMALL
GASTEIGER

@<TRIPOS>ATOM
      1 C         -11.0692   -6.4856   17.1064 C.3     1  UNL1        0.0722
      2 C         -12.4445   -6.7038   17.6641 C.ar    1  UNL1        0.1251
      3 N         -13.1729   -8.0136   17.7268 N.ar    1  UNL1       -0.2275
      4 C         -14.5114   -7.7698   18.3585 C.ar    1  UNL1        0.1326
      5 C         -15.6530   -8.6889   18.6776 C.ar    1  UNL1        0.1632
      6 C         -16.8934   -8.1477   19.3244 C.ar    1  UNL1        0.0388
      7 C         -16.9922   -6.6872   19.6521 C.ar    1  UNL1        0.0047
      8 C         -15.8507   -5.7681   19.3329 C.ar    1  UNL1        0.0193
      9 C         -14.6103   -6.3093   18.6861 C.ar    1  UNL1        0.0861
     10 N         -13.3328   -5.6506   18.2570 N.ar    1  UNL1       -0.2881
     11 C         -13.0019   -4.1942   18.3962 C.ar    1  UNL1        0.0953
     12 C         -11.8512   -3.6216   19.1696 C.ar    1  UNL1        0.0250
     13 C         -11.9016   -2.1282   19.0380 C.ar    1  UNL1        0.0131
     14 C         -13.0834   -1.7778   18.1832 C.ar    1  UNL1        0.0841
     15 S         -13.7633   -3.0547   17.7867 S.2     1  UNL1       -0.0648
     16 C         -13.5103   -0.3937   17.7935 C.2     1  UNL1        0.2519
     17 O         -12.8901    0.2751   16.6026 O.2     1  UNL1       -0.2696
     18 N         -14.5573    0.3217   18.5946 N.am    1  UNL1       -0.3021
     19 H         -14.9644   -0.1172   19.3762 H       1  UNL1        0.1497
     20 C         -14.9842    1.7059   18.2049 C.3     1  UNL1        0.0720
     21 C         -15.5141    2.6607   17.1766 C.3     1  UNL1        0.0213
     22 C         -15.1935    3.1485   18.5582 C.3     1  UNL1        0.0213
     23 O         -15.5542  -10.1494   18.3500 O.3     1  UNL1       -0.4220
     24 C         -16.7802  -11.0125   18.3938 C.3     1  UNL1        0.5087
     25 F         -16.7877  -12.2632   19.2218 F       1  UNL1       -0.1550
     26 F         -17.9988  -10.6248   17.6096 F       1  UNL1       -0.1550
@<TRIPOS>BOND
     1     1     2    1
     2     2     3   ar
     3     3     4   ar
     4     4     5   ar
     5     5    23    1
     6    23    24    1
     7    24    25    1
     8    24    26    1
     9     5     6   ar
    10     6     7   ar
    11     7     8   ar
    12     8     9   ar
    13     9    10   ar
    14    10    11    1
    15    11    12   ar
    16    12    13   ar
    17    13    14   ar
    18    14    16    1
    19    16    17    2
    20    16    18   am
    21    18    20    1
    22    20    21    1
    23    21    22    1
    24    14    15   ar
    25    10     2   ar
    26    15    11   ar
    27     9     4   ar
    28    22    20    1
    29    18    19    1
@<TRIPOS>MOLECULE
*****
 26 29 0 0 0
SMALL
GASTEIGER

@<TRIPOS>ATOM
      1 C           4.8333   -4.4637   19.0779 C.3     1  UNL1        0.0722
      2 C           4.2351   -3.3445   19.8776 C.ar    1  UNL1        0.1251
      3 N           3.0922   -2.4705   19.4534 N.ar    1  UNL1       -0.2275
      4 C           2.8255   -1.4887   20.5557 C.ar    1  UNL1        0.1326
      5 C           1.8184   -0.3859   20.6955 C.ar    1  UNL1        0.1632
      6 C           1.7894    0.4496   21.9409 C.ar    1  UNL1        0.0388
      7 C           2.7674    0.1824   23.0463 C.ar    1  UNL1        0.0047
      8 C           3.7745   -0.9203   22.9065 C.ar    1  UNL1        0.0193
      9 C           3.8035   -1.7559   21.6611 C.ar    1  UNL1        0.0861
     10 N           4.6747   -2.9029   21.2421 N.ar    1  UNL1       -0.2881
     11 C           5.7897   -3.5028   22.0463 C.ar    1  UNL1        0.0953
     12 C           7.1535   -3.8596   21.5337 C.ar    1  UNL1        0.0250
     13 C           7.9434   -4.4286   22.6749 C.ar    1  UNL1        0.0131
     14 C           7.0678   -4.4235   23.8928 C.ar    1  UNL1        0.0841
     15 S           5.7368   -3.8513   23.5042 S.2     1  UNL1       -0.0648
     16 C           7.4552   -4.9058   25.2592 C.2     1  UNL1        0.2519
     17 O           8.8603   -5.3596   25.5241 O.2     1  UNL1       -0.2696
     18 N           6.4377   -4.9344   26.3609 N.am    1  UNL1       -0.3021
     19 H           5.5155   -4.6365   26.1872 H       1  UNL1        0.1497
     20 C           6.8251   -5.4167   27.7274 C.3     1  UNL1        0.0720
     21 C           7.6421   -6.3200   28.6029 C.3     1  UNL1        0.0213
     22 C           6.6792   -5.3488   29.2187 C.3     1  UNL1        0.0213
     23 O           0.8404   -0.1187   19.5901 O.3     1  UNL1       -0.4220
     24 C           1.2539    0.7027   18.4051 C.3     1  UNL1        0.5087
     25 F           2.5259    0.3823   17.6775 F       1  UNL1       -0.1550
     26 F           0.3954    1.8446   17.9477 F       1  UNL1       -0.1550
@<TRIPOS>BOND
     1     1     2    1
     2     2     3   ar
     3     3     4   ar
     4     4     5   ar
     5     5    23    1
     6    23    24    1
     7    24    25    1
     8    24    26    1
     9     5     6   ar
    10     6     7   ar
    11     7     8   ar
    12     8     9   ar
    13     9    10   ar
    14    10    11    1
    15    11    12   ar
    16    12    13   ar
    17    13    14   ar
    18    14    16    1
    19    16    17    2
    20    16    18   am
    21    18    20    1
    22    20    21    1
    23    21    22    1
    24    14    15   ar
    25    10     2   ar
    26    15    11   ar
    27     9     4   ar
    28    22    20    1
    29    18    19    1
@<TRIPOS>MOLECULE
*****
 26 29 0 0 0
SMALL
GASTEIGER

@<TRIPOS>ATOM
      1 C         -11.7351   -0.4175   17.4022 C.3     1  UNL1        0.0722
      2 C         -12.0632   -1.8167   17.8316 C.ar    1  UNL1        0.1251
      3 N         -11.1248   -2.9868   17.8156 N.ar    1  UNL1       -0.2275
      4 C         -11.8689   -4.1849   18.3266 C.ar    1  UNL1        0.1326
      5 C         -11.4538   -5.6115   18.5326 C.ar    1  UNL1        0.1632
      6 C         -12.4371   -6.6084   19.0703 C.ar    1  UNL1        0.0388
      7 C         -13.8354   -6.1787   19.4021 C.ar    1  UNL1        0.0047
      8 C         -14.2505   -4.7521   19.1961 C.ar    1  UNL1        0.0193
      9 C         -13.2672   -3.7552   18.6583 C.ar    1  UNL1        0.0861
     10 N         -13.3873   -2.2916   18.3524 N.ar    1  UNL1       -0.2881
     11 C         -14.6158   -1.4506   18.5352 C.ar    1  UNL1        0.0953
     12 C         -15.3669   -0.7393   17.4490 C.ar    1  UNL1        0.0250
     13 C         -16.5242   -0.0223   18.0788 C.ar    1  UNL1        0.0131
     14 C         -16.4884   -0.2905   19.5542 C.ar    1  UNL1        0.0841
     15 S         -15.3089   -1.1733   19.8362 S.2     1  UNL1       -0.0648
     16 C         -17.4611    0.2322   20.5692 C.2     1  UNL1        0.2519
     17 O         -18.7334   -0.5140   20.8426 O.2     1  UNL1       -0.2696
     18 N         -17.1618    1.5011   21.3110 N.am    1  UNL1       -0.3021
     19 H         -16.3268    1.9909   21.1316 H       1  UNL1        0.1497
     20 C         -18.1346    2.0239   22.3261 C.3     1  UNL1        0.0720
     21 C         -19.5152    2.4892   22.6830 C.3     1  UNL1        0.0213
     22 C         -18.4389    2.4638   23.7274 C.3     1  UNL1        0.0213
     23 O         -10.0555   -6.0411   18.2008 O.3     1  UNL1       -0.4220
     24 C          -9.6345   -7.4631   18.4259 C.3     1  UNL1        0.5087
     25 F          -8.6965   -7.7991   19.5472 F       1  UNL1       -0.1550
     26 F         -10.1516   -8.5492   17.5297 F       1  UNL1       -0.1550
@<TRIPOS>BOND
     1     1     2    1
     2     2     3   ar
     3     3     4   ar
     4     4     5   ar
     5     5    23    1
     6    23    24    1
     7    24    25    1
     8    24    26    1
     9     5     6   ar
    10     6     7   ar
    11     7     8   ar
    12     8     9   ar
    13     9    10   ar
    14    10    11    1
    15    11    12   ar
    16    12    13   ar
    17    13    14   ar
    18    14    16    1
    19    16    17    2
    20    16    18   am
    21    18    20    1
    22    20    21    1
    23    21    22    1
    24    14    15   ar
    25    10     2   ar
    26    15    11   ar
    27     9     4   ar
    28    22    20    1
    29    18    19    1
@<TRIPOS>MOLECULE
*****
 26 29 0 0 0
SMALL
GASTEIGER

@<TRIPOS>ATOM
      1 C         -16.5154   -4.9550   19.6530 C.3     1  UNL1        0.0722
      2 C         -15.0519   -4.7549   19.3923 C.ar    1  UNL1        0.1251
      3 N         -13.9938   -5.8168   19.4443 N.ar    1  UNL1       -0.2275
      4 C         -12.6774   -5.1759   19.1180 C.ar    1  UNL1        0.1326
      5 C         -11.2877   -5.7317   19.0191 C.ar    1  UNL1        0.1632
      6 C         -10.1425   -4.8293   18.6666 C.ar    1  UNL1        0.0388
      7 C         -10.3870   -3.3713   18.4130 C.ar    1  UNL1        0.0047
      8 C         -11.7767   -2.8156   18.5119 C.ar    1  UNL1        0.0193
      9 C         -12.9219   -3.7179   18.8644 C.ar    1  UNL1        0.0861
     10 N         -14.3894   -3.4577   19.0340 N.ar    1  UNL1       -0.2881
     11 C         -15.0742   -2.1328   18.8733 C.ar    1  UNL1        0.0953
     12 C         -15.4162   -1.4692   17.5723 C.ar    1  UNL1        0.0250
     13 C         -16.0906   -0.1652   17.8803 C.ar    1  UNL1        0.0131
     14 C         -16.1655   -0.0230   19.3717 C.ar    1  UNL1        0.0841
     15 S         -15.5373   -1.2391   19.9853 S.2     1  UNL1       -0.0648
     16 C         -16.7635    1.1324   20.1182 C.2     1  UNL1        0.2519
     17 O         -16.9703    2.4467   19.4255 O.2     1  UNL1       -0.2696
     18 N         -17.1546    0.9736   21.5576 N.am    1  UNL1       -0.3021
     19 H         -17.0189    0.1110   22.0123 H       1  UNL1        0.1497
     20 C         -17.7527    2.1290   22.3041 C.3     1  UNL1        0.0720
     21 C         -18.9388    2.9820   22.6440 C.3     1  UNL1        0.0213
     22 C         -17.6023    3.2773   23.2574 C.3     1  UNL1        0.0213
     23 O         -11.0431   -7.1897   19.2728 O.3     1  UNL1       -0.4220
     24 C          -9.7968   -7.8427   18.7529 C.3     1  UNL1        0.5087
     25 F          -9.8607   -8.7206   17.5384 F       1  UNL1       -0.1550
     26 F          -8.4865   -7.6177   19.4477 F       1  UNL1       -0.1550
@<TRIPOS>BOND
     1     1     2    1
     2     2     3   ar
     3     3     4   ar
     4     4     5   ar
     5     5    23    1
     6    23    24    1
     7    24    25    1
     8    24    26    1
     9     5     6   ar
    10     6     7   ar
    11     7     8   ar
    12     8     9   ar
    13     9    10   ar
    14    10    11    1
    15    11    12   ar
    16    12    13   ar
    17    13    14   ar
    18    14    16    1
    19    16    17    2
    20    16    18   am
    21    18    20    1
    22    20    21    1
    23    21    22    1
    24    14    15   ar
    25    10     2   ar
    26    15    11   ar
    27     9     4   ar
    28    22    20    1
    29    18    19    1
