@<TRIPOS>MOLECULE
*****
 26 28 0 0 0
SMALL
GASTEIGER

@<TRIPOS>ATOM
      1 C          -7.4411  -19.3673   20.3055 C.2     1  UNL1        0.2461
      2 O          -7.9046  -20.4383   19.3631 O.2     1  UNL1       -0.2701
      3 N          -8.4302  -18.4022   20.8888 N.am    1  UNL1       -0.2967
      4 H          -8.1260  -17.6992   21.5073 H       1  UNL1        0.1501
      5 N           0.2961  -18.2021   19.6719 N.pl3   1  UNL1       -0.3375
      6 C          -1.1231  -18.4821   20.0689 C.ar    1  UNL1        0.1567
      7 N          -1.5957  -18.8675   21.4393 N.ar    1  UNL1       -0.2245
      8 C          -3.0835  -19.0494   21.3825 C.ar    1  UNL1        0.0892
      9 C          -4.0890  -19.4283   22.4291 C.ar    1  UNL1        0.0198
     10 C          -5.5415  -19.5343   22.0700 C.ar    1  UNL1        0.0061
     11 C          -5.9885  -19.2613   20.6645 C.ar    1  UNL1        0.0540
     12 C          -4.9830  -18.8824   19.6179 C.ar    1  UNL1        0.0126
     13 C          -3.5305  -18.7764   19.9769 C.ar    1  UNL1        0.0498
     14 S          -2.3189  -18.4258   19.1651 S.2     1  UNL1       -0.0520
     15 H           1.0159  -18.2654   20.3406 H       1  UNL1        0.1442
     16 H           0.5077  -17.9551   18.7427 H       1  UNL1        0.1442
     17 C          -9.8828  -18.5082   20.5298 C.3     1  UNL1        0.1227
     18 C         -10.9320  -18.0994   21.5207 C.ar    1  UNL1        0.0668
     19 C         -11.2920  -19.0154   22.6527 C.ar    1  UNL1        0.0035
     20 C         -12.3413  -18.6066   23.6436 C.ar    1  UNL1        0.0001
     21 C         -13.0305  -17.2817   23.5026 C.ar    1  UNL1        0.0063
     22 C         -12.6705  -16.3658   22.3706 C.ar    1  UNL1        0.0750
     23 C         -11.6212  -16.7746   21.3797 C.ar    1  UNL1        0.2876
     24 N         -11.2612  -15.8586   20.2477 N.pl3   1  UNL1        0.0806
     25 O          -9.9730  -15.0911   20.2846 O.2     1  UNL1        0.0415
     26 O         -12.1894  -15.7102   19.0787 O.co2   1  UNL1       -0.5760
@<TRIPOS>UNITY_ATOM_ATTR
24 1
charge 1
26 1
charge -1
@<TRIPOS>BOND
     1     5     6    1
     2     6     7   ar
     3     7     8   ar
     4     8     9   ar
     5     9    10   ar
     6    10    11   ar
     7    11     1    1
     8     1     2    2
     9     1     3   am
    10     3    17    1
    11    17    18    1
    12    18    19   ar
    13    19    20   ar
    14    20    21   ar
    15    21    22   ar
    16    22    23   ar
    17    23    24    1
    18    24    25    2
    19    24    26    1
    20    11    12   ar
    21    12    13   ar
    22    13    14   ar
    23    14     6   ar
    24    13     8   ar
    25    23    18   ar
    26     5    15    1
    27     5    16    1
    28     3     4    1
@<TRIPOS>MOLECULE
*****
 26 28 0 0 0
SMALL
GASTEIGER

@<TRIPOS>ATOM
      1 C          -6.9476  -19.8139   21.6636 C.2     1  UNL1        0.2461
      2 O          -6.5528  -21.0044   22.4863 O.2     1  UNL1       -0.2701
      3 N          -5.9224  -19.1064   20.8279 N.am    1  UNL1       -0.2967
      4 H          -6.1815  -18.3250   20.2879 H       1  UNL1        0.1501
      5 N         -14.0820  -17.8061   24.2505 N.pl3   1  UNL1       -0.3375
      6 C         -12.8208  -18.1120   23.4984 C.ar    1  UNL1        0.1567
      7 N         -12.6098  -17.9390   22.0234 N.ar    1  UNL1       -0.2245
      8 C         -11.2077  -18.3647   21.7026 C.ar    1  UNL1        0.0892
      9 C         -10.4433  -18.4116   20.4129 C.ar    1  UNL1        0.0198
     10 C          -9.0232  -18.8946   20.3999 C.ar    1  UNL1        0.0061
     11 C          -8.3677  -19.3308   21.6766 C.ar    1  UNL1        0.0540
     12 C          -9.1321  -19.2840   22.9663 C.ar    1  UNL1        0.0126
     13 C         -10.5521  -18.8009   22.9793 C.ar    1  UNL1        0.0498
     14 S         -11.5491  -18.6448   24.0891 S.2     1  UNL1       -0.0520
     15 H         -14.8685  -17.4578   23.7717 H       1  UNL1        0.1442
     16 H         -14.1233  -17.9537   25.2230 H       1  UNL1        0.1442
     17 C          -4.5023  -19.5895   20.8148 C.3     1  UNL1        0.1227
     18 C          -3.3761  -18.6046   20.7071 C.ar    1  UNL1        0.0668
     19 C          -2.4977  -18.5999   19.4912 C.ar    1  UNL1        0.0035
     20 C          -1.3714  -17.6150   19.3835 C.ar    1  UNL1        0.0001
     21 C          -1.1236  -16.6349   20.4917 C.ar    1  UNL1        0.0063
     22 C          -2.0020  -16.6397   21.7076 C.ar    1  UNL1        0.0750
     23 C          -3.1283  -17.6246   21.8153 C.ar    1  UNL1        0.2876
     24 N          -4.0067  -17.6294   23.0311 N.pl3   1  UNL1        0.0806
     25 O          -5.3729  -17.0132   22.9718 O.2     1  UNL1        0.0415
     26 O          -3.5188  -18.2504   24.3065 O.co2   1  UNL1       -0.5760
@<TRIPOS>UNITY_ATOM_ATTR
24 1
charge 1
26 1
charge -1
@<TRIPOS>BOND
     1     5     6    1
     2     6     7   ar
     3     7     8   ar
     4     8     9   ar
     5     9    10   ar
     6    10    11   ar
     7    11     1    1
     8     1     2    2
     9     1     3   am
    10     3    17    1
    11    17    18    1
    12    18    19   ar
    13    19    20   ar
    14    20    21   ar
    15    21    22   ar
    16    22    23   ar
    17    23    24    1
    18    24    25    2
    19    24    26    1
    20    11    12   ar
    21    12    13   ar
    22    13    14   ar
    23    14     6   ar
    24    13     8   ar
    25    23    18   ar
    26     5    15    1
    27     5    16    1
    28     3     4    1
@<TRIPOS>MOLECULE
*****
 26 28 0 0 0
SMALL
GASTEIGER

@<TRIPOS>ATOM
      1 C          -7.0738  -19.3929   21.5392 C.2     1  UNL1        0.2461
      2 O          -7.5456  -20.4059   22.5398 O.2     1  UNL1       -0.2701
      3 N          -8.0465  -18.7823   20.5744 N.am    1  UNL1       -0.2967
      4 H          -7.7369  -18.1174   19.9177 H       1  UNL1        0.1501
      5 N           0.1420  -17.8649   18.8519 N.pl3   1  UNL1       -0.3375
      6 C          -1.1287  -18.0773   19.6202 C.ar    1  UNL1        0.1567
      7 N          -1.3189  -17.8488   21.0904 N.ar    1  UNL1       -0.2245
      8 C          -2.7401  -18.1858   21.4320 C.ar    1  UNL1        0.0892
      9 C          -3.4964  -18.1513   22.7268 C.ar    1  UNL1        0.0198
     10 C          -4.9409  -18.5536   22.7626 C.ar    1  UNL1        0.0061
     11 C          -5.6291  -18.9905   21.5034 C.ar    1  UNL1        0.0540
     12 C          -4.8728  -19.0250   20.2085 C.ar    1  UNL1        0.0126
     13 C          -3.4283  -18.6226   20.1728 C.ar    1  UNL1        0.0498
     14 S          -2.4324  -18.5556   19.0531 S.2     1  UNL1       -0.0520
     15 H           0.9502  -17.5469   19.3155 H       1  UNL1        0.1442
     16 H           0.1678  -18.0435   17.8841 H       1  UNL1        0.1442
     17 C          -9.4912  -19.1847   20.6102 C.3     1  UNL1        0.1227
     18 C         -10.5405  -18.1802   20.9840 C.ar    1  UNL1        0.0668
     19 C         -11.1644  -17.3185   19.9266 C.ar    1  UNL1        0.0035
     20 C         -12.2138  -16.3140   20.3004 C.ar    1  UNL1        0.0001
     21 C         -12.6392  -16.1711   21.7318 C.ar    1  UNL1        0.0063
     22 C         -12.0152  -17.0327   22.7892 C.ar    1  UNL1        0.0750
     23 C         -10.9658  -18.0373   22.4153 C.ar    1  UNL1        0.2876
     24 N         -10.3418  -18.8990   23.4727 N.pl3   1  UNL1        0.0806
     25 O         -10.7165  -20.3476   23.5773 O.2     1  UNL1        0.0415
     26 O          -9.3431  -18.3119   24.4257 O.co2   1  UNL1       -0.5760
@<TRIPOS>UNITY_ATOM_ATTR
24 1
charge 1
26 1
charge -1
@<TRIPOS>BOND
     1     5     6    1
     2     6     7   ar
     3     7     8   ar
     4     8     9   ar
     5     9    10   ar
     6    10    11   ar
     7    11     1    1
     8     1     2    2
     9     1     3   am
    10     3    17    1
    11    17    18    1
    12    18    19   ar
    13    19    20   ar
    14    20    21   ar
    15    21    22   ar
    16    22    23   ar
    17    23    24    1
    18    24    25    2
    19    24    26    1
    20    11    12   ar
    21    12    13   ar
    22    13    14   ar
    23    14     6   ar
    24    13     8   ar
    25    23    18   ar
    26     5    15    1
    27     5    16    1
    28     3     4    1
@<TRIPOS>MOLECULE
*****
 26 28 0 0 0
SMALL
GASTEIGER

@<TRIPOS>ATOM
      1 C          -6.7124  -20.2210   22.3718 C.2     1  UNL1        0.2461
      2 O          -6.8270  -21.5709   23.0158 O.2     1  UNL1       -0.2701
      3 N          -7.8140  -19.2162   22.5349 N.am    1  UNL1       -0.2967
      4 H          -7.7387  -18.3302   22.1122 H       1  UNL1        0.1501
      5 N          -0.0149  -16.7910   20.1353 N.pl3   1  UNL1       -0.3375
      6 C          -1.2674  -17.5958   20.3180 C.ar    1  UNL1        0.1567
      7 N          -1.7909  -18.6385   19.3752 N.ar    1  UNL1       -0.2245
      8 C          -3.0635  -19.1863   19.9501 C.ar    1  UNL1        0.0892
      9 C          -4.0166  -20.2353   19.4592 C.ar    1  UNL1        0.0198
     10 C          -5.2329  -20.5802   20.2664 C.ar    1  UNL1        0.0061
     11 C          -5.4960  -19.8761   21.5645 C.ar    1  UNL1        0.0540
     12 C          -4.5428  -18.8271   22.0554 C.ar    1  UNL1        0.0126
     13 C          -3.3265  -18.4822   21.2481 C.ar    1  UNL1        0.0498
     14 S          -2.2166  -17.4992   21.4755 S.2     1  UNL1       -0.0520
     15 H           0.5457  -16.9271   19.3375 H       1  UNL1        0.1442
     16 H           0.2466  -16.1267   20.8132 H       1  UNL1        0.1442
     17 C          -9.0303  -19.5611   23.3422 C.3     1  UNL1        0.1227
     18 C         -10.2956  -18.7753   23.1650 C.ar    1  UNL1        0.0668
     19 C         -11.4436  -18.9794   24.1087 C.ar    1  UNL1        0.0035
     20 C         -12.7089  -18.1936   23.9316 C.ar    1  UNL1        0.0001
     21 C         -12.8263  -17.2036   22.8107 C.ar    1  UNL1        0.0063
     22 C         -11.6784  -16.9995   21.8670 C.ar    1  UNL1        0.0750
     23 C         -10.4130  -17.7854   22.0442 C.ar    1  UNL1        0.2876
     24 N          -9.2651  -17.5813   21.1005 N.pl3   1  UNL1        0.0806
     25 O          -9.1529  -18.4216   19.8631 O.2     1  UNL1        0.0415
     26 O          -8.2292  -16.5369   21.3943 O.co2   1  UNL1       -0.5760
@<TRIPOS>UNITY_ATOM_ATTR
24 1
charge 1
26 1
charge -1
@<TRIPOS>BOND
     1     5     6    1
     2     6     7   ar
     3     7     8   ar
     4     8     9   ar
     5     9    10   ar
     6    10    11   ar
     7    11     1    1
     8     1     2    2
     9     1     3   am
    10     3    17    1
    11    17    18    1
    12    18    19   ar
    13    19    20   ar
    14    20    21   ar
    15    21    22   ar
    16    22    23   ar
    17    23    24    1
    18    24    25    2
    19    24    26    1
    20    11    12   ar
    21    12    13   ar
    22    13    14   ar
    23    14     6   ar
    24    13     8   ar
    25    23    18   ar
    26     5    15    1
    27     5    16    1
    28     3     4    1
@<TRIPOS>MOLECULE
*****
 26 28 0 0 0
SMALL
GASTEIGER

@<TRIPOS>ATOM
      1 C          -6.5908  -17.0689   22.9986 C.2     1  UNL1        0.2461
      2 O          -5.8188  -15.9011   23.5372 O.2     1  UNL1       -0.2701
      3 N          -5.8760  -18.3354   22.6312 N.am    1  UNL1       -0.2967
      4 H          -6.3827  -19.1018   22.2777 H       1  UNL1        0.1501
      5 N         -14.2769  -18.3145   23.9970 N.pl3   1  UNL1       -0.3375
      6 C         -12.8929  -17.8907   23.6032 C.ar    1  UNL1        0.1567
      7 N         -12.5460  -16.8880   22.5429 N.ar    1  UNL1       -0.2245
      8 C         -11.0516  -16.7728   22.4849 C.ar    1  UNL1        0.0892
      9 C         -10.1415  -15.9400   21.6316 C.ar    1  UNL1        0.0198
     10 C          -8.6546  -16.0387   21.8028 C.ar    1  UNL1        0.0061
     11 C          -8.0778  -16.9702   22.8274 C.ar    1  UNL1        0.0540
     12 C          -8.9879  -17.8029   23.6807 C.ar    1  UNL1        0.0126
     13 C         -10.4748  -17.7042   23.5095 C.ar    1  UNL1        0.0498
     14 S         -11.6128  -18.3951   24.2006 S.2     1  UNL1       -0.0520
     15 H         -15.0589  -17.9241   23.5439 H       1  UNL1        0.1442
     16 H         -14.4032  -18.9830   24.7086 H       1  UNL1        0.1442
     17 C          -4.3890  -18.4340   22.8024 C.3     1  UNL1        0.1227
     18 C          -3.4889  -18.3480   21.6056 C.ar    1  UNL1        0.0668
     19 C          -2.1299  -17.7260   21.7324 C.ar    1  UNL1        0.0035
     20 C          -1.2298  -17.6400   20.5356 C.ar    1  UNL1        0.0001
     21 C          -1.6887  -18.1760   19.2119 C.ar    1  UNL1        0.0063
     22 C          -3.0478  -18.7980   19.0851 C.ar    1  UNL1        0.0750
     23 C          -3.9479  -18.8840   20.2820 C.ar    1  UNL1        0.2876
     24 N          -5.3070  -19.5060   20.1551 N.pl3   1  UNL1        0.0806
     25 O          -5.4805  -20.9799   20.3726 O.2     1  UNL1        0.0415
     26 O          -6.4925  -18.6539   19.8109 O.co2   1  UNL1       -0.5760
@<TRIPOS>UNITY_ATOM_ATTR
24 1
charge 1
26 1
charge -1
@<TRIPOS>BOND
     1     5     6    1
     2     6     7   ar
     3     7     8   ar
     4     8     9   ar
     5     9    10   ar
     6    10    11   ar
     7    11     1    1
     8     1     2    2
     9     1     3   am
    10     3    17    1
    11    17    18    1
    12    18    19   ar
    13    19    20   ar
    14    20    21   ar
    15    21    22   ar
    16    22    23   ar
    17    23    24    1
    18    24    25    2
    19    24    26    1
    20    11    12   ar
    21    12    13   ar
    22    13    14   ar
    23    14     6   ar
    24    13     8   ar
    25    23    18   ar
    26     5    15    1
    27     5    16    1
    28     3     4    1
@<TRIPOS>MOLECULE
*****
 26 28 0 0 0
SMALL
GASTEIGER

@<TRIPOS>ATOM
      1 C          -6.2140  -16.7132   23.6904 C.2     1  UNL1        0.2461
      2 O          -5.9756  -15.8271   24.8769 O.2     1  UNL1       -0.2701
      3 N          -7.6150  -16.9967   23.2356 N.am    1  UNL1       -0.2967
      4 H          -7.7715  -17.5783   22.4568 H       1  UNL1        0.1501
      5 N           0.6956  -17.4187   20.0321 N.pl3   1  UNL1       -0.3375
      6 C          -0.6509  -17.5654   20.6767 C.ar    1  UNL1        0.1567
      7 N          -1.4481  -18.8322   20.7748 N.ar    1  UNL1       -0.2245
      8 C          -2.7265  -18.5209   21.4951 C.ar    1  UNL1        0.0892
      9 C          -3.8961  -19.3776   21.8797 C.ar    1  UNL1        0.0198
     10 C          -5.0586  -18.7750   22.6115 C.ar    1  UNL1        0.0061
     11 C          -5.0515  -17.3157   22.9586 C.ar    1  UNL1        0.0540
     12 C          -3.8819  -16.4590   22.5739 C.ar    1  UNL1        0.0126
     13 C          -2.7194  -17.0616   21.8421 C.ar    1  UNL1        0.0498
     14 S          -1.4366  -16.4711   21.3363 S.2     1  UNL1       -0.0520
     15 H           1.1334  -18.2000   19.6233 H       1  UNL1        0.1442
     16 H           1.1415  -16.5411   20.0178 H       1  UNL1        0.1442
     17 C          -8.7776  -16.3942   23.9674 C.3     1  UNL1        0.1227
     18 C         -10.1735  -16.8508   23.6630 C.ar    1  UNL1        0.0668
     19 C         -11.0169  -16.0854   22.6867 C.ar    1  UNL1        0.0035
     20 C         -12.4129  -16.5420   22.3823 C.ar    1  UNL1        0.0001
     21 C         -12.9656  -17.7640   23.0541 C.ar    1  UNL1        0.0063
     22 C         -12.1222  -18.5294   24.0304 C.ar    1  UNL1        0.0750
     23 C         -10.7262  -18.0727   24.3348 C.ar    1  UNL1        0.2876
     24 N          -9.8828  -18.8381   25.3110 N.pl3   1  UNL1        0.0806
     25 O          -9.6398  -20.3038   25.1043 O.2     1  UNL1        0.0415
     26 O          -9.2825  -18.1377   26.4938 O.co2   1  UNL1       -0.5760
@<TRIPOS>UNITY_ATOM_ATTR
24 1
charge 1
26 1
charge -1
@<TRIPOS>BOND
     1     5     6    1
     2     6     7   ar
     3     7     8   ar
     4     8     9   ar
     5     9    10   ar
     6    10    11   ar
     7    11     1    1
     8     1     2    2
     9     1     3   am
    10     3    17    1
    11    17    18    1
    12    18    19   ar
    13    19    20   ar
    14    20    21   ar
    15    21    22   ar
    16    22    23   ar
    17    23    24    1
    18    24    25    2
    19    24    26    1
    20    11    12   ar
    21    12    13   ar
    22    13    14   ar
    23    14     6   ar
    24    13     8   ar
    25    23    18   ar
    26     5    15    1
    27     5    16    1
    28     3     4    1
@<TRIPOS>MOLECULE
*****
 26 28 0 0 0
SMALL
GASTEIGER

@<TRIPOS>ATOM
      1 C          -7.2327  -19.8345   22.1985 C.2     1  UNL1        0.2461
      2 O          -7.0097  -21.1716   22.8408 O.2     1  UNL1       -0.2701
      3 N          -6.0602  -19.0100   21.7563 N.am    1  UNL1       -0.2967
      4 H          -6.2066  -18.1325   21.3348 H       1  UNL1        0.1501
      5 N         -13.2516  -15.5027   19.6233 N.pl3   1  UNL1       -0.3375
      6 C         -12.3035  -16.4739   20.2620 C.ar    1  UNL1        0.1567
      7 N         -12.6756  -17.5763   21.2087 N.ar    1  UNL1       -0.2245
      8 C         -11.4190  -18.2969   21.5980 C.ar    1  UNL1        0.0892
      9 C         -11.1724  -19.4665   22.5042 C.ar    1  UNL1        0.0198
     10 C          -9.7770  -19.9790   22.7043 C.ar    1  UNL1        0.0061
     11 C          -8.6282  -19.3219   21.9983 C.ar    1  UNL1        0.0540
     12 C          -8.8748  -18.1524   21.0921 C.ar    1  UNL1        0.0126
     13 C         -10.2702  -17.6399   20.8920 C.ar    1  UNL1        0.0498
     14 S         -10.8169  -16.5132   20.0663 S.2     1  UNL1       -0.0520
     15 H         -14.2157  -15.5575   19.8150 H       1  UNL1        0.1442
     16 H         -12.9097  -14.8105   19.0124 H       1  UNL1        0.1442
     17 C          -4.6647  -19.5226   21.9565 C.3     1  UNL1        0.1227
     18 C          -3.4957  -18.7346   21.4445 C.ar    1  UNL1        0.0668
     19 C          -2.7636  -19.1904   20.2172 C.ar    1  UNL1        0.0035
     20 C          -1.5946  -18.4024   19.7051 C.ar    1  UNL1        0.0001
     21 C          -1.1574  -17.1584   20.4205 C.ar    1  UNL1        0.0063
     22 C          -1.8894  -16.7026   21.6478 C.ar    1  UNL1        0.0750
     23 C          -3.0586  -17.4907   22.1598 C.ar    1  UNL1        0.2876
     24 N          -3.7906  -17.0349   23.3872 N.pl3   1  UNL1        0.0806
     25 O          -4.6068  -15.7770   23.3498 O.2     1  UNL1        0.0415
     26 O          -3.7063  -17.8370   24.6519 O.co2   1  UNL1       -0.5760
@<TRIPOS>UNITY_ATOM_ATTR
24 1
charge 1
26 1
charge -1
@<TRIPOS>BOND
     1     5     6    1
     2     6     7   ar
     3     7     8   ar
     4     8     9   ar
     5     9    10   ar
     6    10    11   ar
     7    11     1    1
     8     1     2    2
     9     1     3   am
    10     3    17    1
    11    17    18    1
    12    18    19   ar
    13    19    20   ar
    14    20    21   ar
    15    21    22   ar
    16    22    23   ar
    17    23    24    1
    18    24    25    2
    19    24    26    1
    20    11    12   ar
    21    12    13   ar
    22    13    14   ar
    23    14     6   ar
    24    13     8   ar
    25    23    18   ar
    26     5    15    1
    27     5    16    1
    28     3     4    1
@<TRIPOS>MOLECULE
*****
 26 28 0 0 0
SMALL
GASTEIGER

@<TRIPOS>ATOM
      1 C         -15.1628   -4.0290   19.7391 C.2     1  UNL1        0.2461
      2 O         -15.7707   -2.6590   19.7974 O.2     1  UNL1       -0.2701
      3 N         -13.6773   -4.1962   19.8623 N.am    1  UNL1       -0.2967
      4 H         -13.2783   -5.0954   19.8240 H       1  UNL1        0.1501
      5 N         -17.4373  -11.4742   18.7296 N.pl3   1  UNL1       -0.3375
      6 C         -17.2848   -9.9941   18.9195 C.ar    1  UNL1        0.1567
      7 N         -18.4016   -8.9963   19.0039 N.ar    1  UNL1       -0.2245
      8 C         -17.7958   -7.6375   19.1950 C.ar    1  UNL1        0.0892
      9 C         -18.4094   -6.2768   19.3426 C.ar    1  UNL1        0.0198
     10 C         -17.5318   -5.0740   19.5240 C.ar    1  UNL1        0.0061
     11 C         -16.0405   -5.2319   19.5578 C.ar    1  UNL1        0.0540
     12 C         -15.4269   -6.5926   19.4101 C.ar    1  UNL1        0.0126
     13 C         -16.3045   -7.7954   19.2287 C.ar    1  UNL1        0.0498
     14 S         -15.9887   -9.2519   19.0585 S.2     1  UNL1       -0.0520
     15 H         -18.3350  -11.8701   18.6481 H       1  UNL1        0.1442
     16 H         -16.6397  -12.0497   18.6864 H       1  UNL1        0.1442
     17 C         -12.7996   -2.9933   20.0436 C.3     1  UNL1        0.1227
     18 C         -12.0406   -2.4358   18.8762 C.ar    1  UNL1        0.0668
     19 C         -12.3396   -1.0526   18.3788 C.ar    1  UNL1        0.0035
     20 C         -11.5806   -0.4950   17.2113 C.ar    1  UNL1        0.0001
     21 C         -10.5226   -1.3207   16.5411 C.ar    1  UNL1        0.0063
     22 C         -10.2237   -2.7039   17.0385 C.ar    1  UNL1        0.0750
     23 C         -10.9827   -3.2614   18.2061 C.ar    1  UNL1        0.2876
     24 N         -10.6838   -4.6447   18.7034 N.pl3   1  UNL1        0.0806
     25 O          -9.4476   -4.8994   19.5138 O.2     1  UNL1        0.0415
     26 O         -11.6211   -5.7731   18.3903 O.co2   1  UNL1       -0.5760
@<TRIPOS>UNITY_ATOM_ATTR
24 1
charge 1
26 1
charge -1
@<TRIPOS>BOND
     1     5     6    1
     2     6     7   ar
     3     7     8   ar
     4     8     9   ar
     5     9    10   ar
     6    10    11   ar
     7    11     1    1
     8     1     2    2
     9     1     3   am
    10     3    17    1
    11    17    18    1
    12    18    19   ar
    13    19    20   ar
    14    20    21   ar
    15    21    22   ar
    16    22    23   ar
    17    23    24    1
    18    24    25    2
    19    24    26    1
    20    11    12   ar
    21    12    13   ar
    22    13    14   ar
    23    14     6   ar
    24    13     8   ar
    25    23    18   ar
    26     5    15    1
    27     5    16    1
    28     3     4    1
@<TRIPOS>MOLECULE
*****
 26 28 0 0 0
SMALL
GASTEIGER

@<TRIPOS>ATOM
      1 C         -15.5258   -6.2566   19.6040 C.2     1  UNL1        0.2461
      2 O         -16.7476   -5.4069   19.7921 O.2     1  UNL1       -0.2701
      3 N         -15.6086   -7.7421   19.7950 N.am    1  UNL1       -0.2967
      4 H         -14.8067   -8.2997   19.6716 H       1  UNL1        0.1501
      5 N         -10.2513   -0.8668   17.4238 N.pl3   1  UNL1       -0.3375
      6 C         -11.0341   -2.0763   17.8414 C.ar    1  UNL1        0.1567
      7 N         -10.4802   -3.4532   18.0588 N.ar    1  UNL1       -0.2245
      8 C         -11.6119   -4.3492   18.4667 C.ar    1  UNL1        0.0892
      9 C         -11.6631   -5.8082   18.8110 C.ar    1  UNL1        0.0198
     10 C         -12.9677   -6.4440   19.1901 C.ar    1  UNL1        0.0061
     11 C         -14.2211   -5.6207   19.2249 C.ar    1  UNL1        0.0540
     12 C         -14.1700   -4.1617   18.8806 C.ar    1  UNL1        0.0126
     13 C         -12.8654   -3.5259   18.5015 C.ar    1  UNL1        0.0498
     14 S         -12.5082   -2.1212   18.1151 S.2     1  UNL1       -0.0520
     15 H          -9.2820   -0.9379   17.2669 H       1  UNL1        0.1442
     16 H         -10.7069   -0.0020   17.3065 H       1  UNL1        0.1442
     17 C         -16.9133   -8.3779   20.1741 C.3     1  UNL1        0.1227
     18 C         -17.9225   -8.7081   19.1147 C.ar    1  UNL1        0.0668
     19 C         -19.1222   -7.8286   18.9216 C.ar    1  UNL1        0.0035
     20 C         -20.1314   -8.1587   17.8622 C.ar    1  UNL1        0.0001
     21 C         -19.9410   -9.3685   16.9959 C.ar    1  UNL1        0.0063
     22 C         -18.7414  -10.2479   17.1890 C.ar    1  UNL1        0.0750
     23 C         -17.7321   -9.9177   18.2485 C.ar    1  UNL1        0.2876
     24 N         -16.5324  -10.7972   18.4416 N.pl3   1  UNL1        0.0806
     25 O         -15.1798  -10.3301   17.9920 O.2     1  UNL1        0.0415
     26 O         -16.6854  -12.1439   19.0844 O.co2   1  UNL1       -0.5760
@<TRIPOS>UNITY_ATOM_ATTR
24 1
charge 1
26 1
charge -1
@<TRIPOS>BOND
     1     5     6    1
     2     6     7   ar
     3     7     8   ar
     4     8     9   ar
     5     9    10   ar
     6    10    11   ar
     7    11     1    1
     8     1     2    2
     9     1     3   am
    10     3    17    1
    11    17    18    1
    12    18    19   ar
    13    19    20   ar
    14    20    21   ar
    15    21    22   ar
    16    22    23   ar
    17    23    24    1
    18    24    25    2
    19    24    26    1
    20    11    12   ar
    21    12    13   ar
    22    13    14   ar
    23    14     6   ar
    24    13     8   ar
    25    23    18   ar
    26     5    15    1
    27     5    16    1
    28     3     4    1
