@<TRIPOS>MOLECULE
*****
 19 20 0 0 0
SMALL
GASTEIGER

@<TRIPOS>ATOM
      1 N          -7.6528  -17.0222   21.6125 N.pl3   1  UNL1       -0.1290
      2 C          -8.4915  -15.9242   22.1962 C.cat   1  UNL1        0.3882
      3 H          -6.6822  -17.0404   21.7765 H       1  UNL1        0.3062
      4 N          -7.8516  -14.8539   23.0298 N.pl3   1  UNL1       -0.2421
      5 H          -7.6701  -13.9685   22.6394 H       1  UNL1        0.2649
      6 C          -7.4882  -15.1326   24.4583 C.ar    1  UNL1        0.1168
      7 C          -8.5664  -15.3009   25.4873 C.ar    1  UNL1        0.0334
      8 C          -8.2030  -15.5796   26.9157 C.ar    1  UNL1        0.0029
      9 C          -6.7613  -15.6899   27.3149 C.ar    1  UNL1        0.0002
     10 C          -5.6831  -15.5216   26.2859 C.ar    1  UNL1        0.0029
     11 C          -6.0465  -15.2430   24.8575 C.ar    1  UNL1        0.0334
     12 N          -9.9704  -15.8964   21.9463 N.pl3   1  UNL1       -0.2421
     13 H         -10.3432  -15.2913   21.2651 H       1  UNL1        0.2649
     14 C         -10.8811  -16.7907   22.7343 C.ar    1  UNL1        0.1168
     15 C         -12.3673  -16.6897   22.5588 C.ar    1  UNL1        0.0334
     16 C         -13.2780  -17.5840   23.3468 C.ar    1  UNL1        0.0029
     17 C         -12.7025  -18.5792   24.3102 C.ar    1  UNL1        0.0002
     18 C         -11.2162  -18.6802   24.4857 C.ar    1  UNL1        0.0029
     19 C         -10.3055  -17.7859   23.6977 C.ar    1  UNL1        0.0334
@<TRIPOS>BOND
     1     1     2    2
     2     2     4    1
     3     4     6    1
     4     6     7   ar
     5     7     8   ar
     6     8     9   ar
     7     9    10   ar
     8    10    11   ar
     9     2    12    1
    10    12    14    1
    11    14    15   ar
    12    15    16   ar
    13    16    17   ar
    14    17    18   ar
    15    18    19   ar
    16    11     6   ar
    17    19    14   ar
    18     1     3    1
    19     4     5    1
    20    12    13    1
@<TRIPOS>MOLECULE
*****
 19 20 0 0 0
SMALL
GASTEIGER

@<TRIPOS>ATOM
      1 N          -7.6922  -17.0452   21.5805 N.pl3   1  UNL1       -0.1290
      2 C          -8.4916  -15.9270   22.1811 C.cat   1  UNL1        0.3882
      3 H          -6.7187  -17.0852   21.7215 H       1  UNL1        0.3062
      4 N          -7.8078  -14.8699   22.9965 N.pl3   1  UNL1       -0.2421
      5 H          -7.5803  -14.0035   22.5880 H       1  UNL1        0.2649
      6 C          -7.4706  -15.1329   24.4343 C.ar    1  UNL1        0.1168
      7 C          -6.0365  -15.2415   24.8605 C.ar    1  UNL1        0.0334
      8 C          -5.6994  -15.5045   26.2982 C.ar    1  UNL1        0.0029
      9 C          -6.7962  -15.6588   27.3097 C.ar    1  UNL1        0.0002
     10 C          -8.2302  -15.5502   26.8835 C.ar    1  UNL1        0.0029
     11 C          -8.5674  -15.2872   25.4458 C.ar    1  UNL1        0.0334
     12 N          -9.9750  -15.8660   21.9662 N.pl3   1  UNL1       -0.2421
     13 H         -10.3523  -15.2313   21.3150 H       1  UNL1        0.2649
     14 C         -10.8833  -16.7719   22.7435 C.ar    1  UNL1        0.1168
     15 C         -10.3049  -17.7809   23.6908 C.ar    1  UNL1        0.0334
     16 C         -11.2132  -18.6868   24.4681 C.ar    1  UNL1        0.0029
     17 C         -12.7000  -18.5837   24.2981 C.ar    1  UNL1        0.0002
     18 C         -13.2784  -17.5747   23.3509 C.ar    1  UNL1        0.0029
     19 C         -12.3700  -16.6688   22.5735 C.ar    1  UNL1        0.0334
@<TRIPOS>BOND
     1     1     2    2
     2     2     4    1
     3     4     6    1
     4     6     7   ar
     5     7     8   ar
     6     8     9   ar
     7     9    10   ar
     8    10    11   ar
     9     2    12    1
    10    12    14    1
    11    14    15   ar
    12    15    16   ar
    13    16    17   ar
    14    17    18   ar
    15    18    19   ar
    16    11     6   ar
    17    19    14   ar
    18     1     3    1
    19     4     5    1
    20    12    13    1
@<TRIPOS>MOLECULE
*****
 19 20 0 0 0
SMALL
GASTEIGER

@<TRIPOS>ATOM
      1 N          -7.6907  -17.0423   21.5873 N.pl3   1  UNL1       -0.1290
      2 C          -8.5020  -15.9322   22.1870 C.cat   1  UNL1        0.3882
      3 H          -8.1319  -17.7397   21.0504 H       1  UNL1        0.3062
      4 N          -9.9852  -15.8848   21.9688 N.pl3   1  UNL1       -0.2421
      5 H         -10.3662  -15.2597   21.3104 H       1  UNL1        0.2649
      6 C         -10.8881  -16.7897   22.7537 C.ar    1  UNL1        0.1168
      7 C         -12.3756  -16.6945   22.5857 C.ar    1  UNL1        0.0334
      8 C         -13.2784  -17.5994   23.3706 C.ar    1  UNL1        0.0029
      9 C         -12.6937  -18.5995   24.3234 C.ar    1  UNL1        0.0002
     10 C         -11.2062  -18.6947   24.4914 C.ar    1  UNL1        0.0029
     11 C         -10.3034  -17.7898   23.7065 C.ar    1  UNL1        0.0334
     12 N          -7.8298  -14.8696   23.0050 N.pl3   1  UNL1       -0.2421
     13 H          -7.6176  -13.9975   22.6004 H       1  UNL1        0.2649
     14 C          -7.4811  -15.1356   24.4395 C.ar    1  UNL1        0.1168
     15 C          -8.5702  -15.3155   25.4551 C.ar    1  UNL1        0.0334
     16 C          -8.2215  -15.5816   26.8895 C.ar    1  UNL1        0.0029
     17 C          -6.7837  -15.6677   27.3084 C.ar    1  UNL1        0.0002
     18 C          -5.6946  -15.4878   26.2927 C.ar    1  UNL1        0.0029
     19 C          -6.0434  -15.2217   24.8582 C.ar    1  UNL1        0.0334
@<TRIPOS>BOND
     1     1     2    2
     2     2     4    1
     3     4     6    1
     4     6     7   ar
     5     7     8   ar
     6     8     9   ar
     7     9    10   ar
     8    10    11   ar
     9     2    12    1
    10    12    14    1
    11    14    15   ar
    12    15    16   ar
    13    16    17   ar
    14    17    18   ar
    15    18    19   ar
    16    11     6   ar
    17    19    14   ar
    18     1     3    1
    19     4     5    1
    20    12    13    1
@<TRIPOS>MOLECULE
*****
 19 20 0 0 0
SMALL
GASTEIGER

@<TRIPOS>ATOM
      1 N          -7.6703  -17.0384   21.6135 N.pl3   1  UNL1       -0.1290
      2 C          -8.4898  -15.9275   22.2002 C.cat   1  UNL1        0.3882
      3 H          -8.1036  -17.7361   21.0707 H       1  UNL1        0.3062
      4 N          -9.9696  -15.8796   21.9598 N.pl3   1  UNL1       -0.2421
      5 H         -10.3399  -15.2589   21.2912 H       1  UNL1        0.2649
      6 C         -10.8854  -16.7773   22.7380 C.ar    1  UNL1        0.1168
      7 C         -10.3161  -17.7756   23.7019 C.ar    1  UNL1        0.0334
      8 C         -11.2318  -18.6733   24.4801 C.ar    1  UNL1        0.0029
      9 C         -12.7168  -18.5726   24.2943 C.ar    1  UNL1        0.0002
     10 C         -13.2862  -17.5743   23.3304 C.ar    1  UNL1        0.0029
     11 C         -12.3704  -16.6766   22.5523 C.ar    1  UNL1        0.0334
     12 N          -7.8295  -14.8644   23.0272 N.pl3   1  UNL1       -0.2421
     13 H          -7.6288  -13.9860   22.6307 H       1  UNL1        0.2649
     14 C          -7.4750  -15.1398   24.4585 C.ar    1  UNL1        0.1168
     15 C          -8.5594  -15.2953   25.4832 C.ar    1  UNL1        0.0334
     16 C          -8.2049  -15.5707   26.9144 C.ar    1  UNL1        0.0029
     17 C          -6.7660  -15.6907   27.3210 C.ar    1  UNL1        0.0002
     18 C          -5.6817  -15.5353   26.2963 C.ar    1  UNL1        0.0029
     19 C          -6.0362  -15.2598   24.8650 C.ar    1  UNL1        0.0334
@<TRIPOS>BOND
     1     1     2    2
     2     2     4    1
     3     4     6    1
     4     6     7   ar
     5     7     8   ar
     6     8     9   ar
     7     9    10   ar
     8    10    11   ar
     9     2    12    1
    10    12    14    1
    11    14    15   ar
    12    15    16   ar
    13    16    17   ar
    14    17    18   ar
    15    18    19   ar
    16    11     6   ar
    17    19    14   ar
    18     1     3    1
    19     4     5    1
    20    12    13    1
@<TRIPOS>MOLECULE
*****
 19 20 0 0 0
SMALL
GASTEIGER

@<TRIPOS>ATOM
      1 N          -8.0330  -14.5384   21.2022 N.pl3   1  UNL1       -0.1290
      2 C          -8.2923  -15.6861   22.1325 C.cat   1  UNL1        0.3882
      3 H          -8.2589  -13.6207   21.4777 H       1  UNL1        0.3062
      4 N          -8.8960  -15.4356   23.4826 N.pl3   1  UNL1       -0.2421
      5 H          -9.8583  -15.2444   23.5637 H       1  UNL1        0.2649
      6 C          -8.0334  -15.4762   24.7091 C.ar    1  UNL1        0.1168
      7 C          -6.5575  -15.2333   24.5964 C.ar    1  UNL1        0.0334
      8 C          -5.6950  -15.2739   25.8229 C.ar    1  UNL1        0.0029
      9 C          -6.3083  -15.5574   27.1621 C.ar    1  UNL1        0.0002
     10 C          -7.7842  -15.8002   27.2748 C.ar    1  UNL1        0.0029
     11 C          -8.6467  -15.7596   26.0483 C.ar    1  UNL1        0.0334
     12 N          -7.9480  -17.0845   21.7127 N.pl3   1  UNL1       -0.2421
     13 H          -7.0459  -17.2892   21.3758 H       1  UNL1        0.2649
     14 C          -8.9781  -18.1707   21.8061 C.ar    1  UNL1        0.1168
     15 C          -9.8434  -18.4876   20.6225 C.ar    1  UNL1        0.0334
     16 C         -10.8735  -19.5739   20.7159 C.ar    1  UNL1        0.0029
     17 C         -11.0385  -20.3433   21.9930 C.ar    1  UNL1        0.0002
     18 C         -10.1732  -20.0265   23.1766 C.ar    1  UNL1        0.0029
     19 C          -9.1430  -18.9401   23.0831 C.ar    1  UNL1        0.0334
@<TRIPOS>BOND
     1     1     2    2
     2     2     4    1
     3     4     6    1
     4     6     7   ar
     5     7     8   ar
     6     8     9   ar
     7     9    10   ar
     8    10    11   ar
     9     2    12    1
    10    12    14    1
    11    14    15   ar
    12    15    16   ar
    13    16    17   ar
    14    17    18   ar
    15    18    19   ar
    16    11     6   ar
    17    19    14   ar
    18     1     3    1
    19     4     5    1
    20    12    13    1
@<TRIPOS>MOLECULE
*****
 19 20 0 0 0
SMALL
GASTEIGER

@<TRIPOS>ATOM
      1 N          -7.8857  -14.5387   21.2944 N.pl3   1  UNL1       -0.1290
      2 C          -8.2502  -15.7309   22.1286 C.cat   1  UNL1        0.3882
      3 H          -7.4587  -14.6643   20.4163 H       1  UNL1        0.3062
      4 N          -7.9639  -17.1144   21.6249 N.pl3   1  UNL1       -0.2421
      5 H          -7.0966  -17.3157   21.2048 H       1  UNL1        0.2649
      6 C          -8.9992  -18.1914   21.7612 C.ar    1  UNL1        0.1168
      7 C          -9.0646  -19.0146   23.0133 C.ar    1  UNL1        0.0334
      8 C         -10.0998  -20.0915   23.1496 C.ar    1  UNL1        0.0029
      9 C         -11.0696  -20.3451   22.0338 C.ar    1  UNL1        0.0002
     10 C         -11.0043  -19.5218   20.7817 C.ar    1  UNL1        0.0029
     11 C          -9.9690  -18.4450   20.6454 C.ar    1  UNL1        0.0334
     12 N          -8.9009  -15.5394   23.4665 N.pl3   1  UNL1       -0.2421
     13 H          -9.8793  -15.4509   23.5299 H       1  UNL1        0.2649
     14 C          -8.0607  -15.4829   24.7079 C.ar    1  UNL1        0.1168
     15 C          -6.5772  -15.2887   24.6013 C.ar    1  UNL1        0.0334
     16 C          -5.7371  -15.2322   25.8426 C.ar    1  UNL1        0.0029
     17 C          -6.3805  -15.3699   27.1907 C.ar    1  UNL1        0.0002
     18 C          -7.8641  -15.5641   27.2972 C.ar    1  UNL1        0.0029
     19 C          -8.7042  -15.6206   26.0558 C.ar    1  UNL1        0.0334
@<TRIPOS>BOND
     1     1     2    2
     2     2     4    1
     3     4     6    1
     4     6     7   ar
     5     7     8   ar
     6     8     9   ar
     7     9    10   ar
     8    10    11   ar
     9     2    12    1
    10    12    14    1
    11    14    15   ar
    12    15    16   ar
    13    16    17   ar
    14    17    18   ar
    15    18    19   ar
    16    11     6   ar
    17    19    14   ar
    18     1     3    1
    19     4     5    1
    20    12    13    1
@<TRIPOS>MOLECULE
*****
 19 20 0 0 0
SMALL
GASTEIGER

@<TRIPOS>ATOM
      1 N          -7.6963  -17.3064   21.5597 N.pl3   1  UNL1       -0.1290
      2 C          -8.0560  -18.7581   21.6739 C.cat   1  UNL1        0.3882
      3 H          -6.8192  -16.9902   21.8759 H       1  UNL1        0.3062
      4 N          -7.0794  -19.7282   22.2698 N.pl3   1  UNL1       -0.2421
      5 H          -7.3579  -20.3154   23.0093 H       1  UNL1        0.2649
      6 C          -5.6785  -19.8036   21.7390 C.ar    1  UNL1        0.1168
      7 C          -5.4083  -20.4825   20.4290 C.ar    1  UNL1        0.0334
      8 C          -4.0074  -20.5578   19.8982 C.ar    1  UNL1        0.0029
      9 C          -2.8767  -19.9543   20.6774 C.ar    1  UNL1        0.0002
     10 C          -3.1468  -19.2755   21.9874 C.ar    1  UNL1        0.0029
     11 C          -4.5477  -19.2001   22.5182 C.ar    1  UNL1        0.0334
     12 N          -9.3925  -19.2397   21.1922 N.pl3   1  UNL1       -0.2421
     13 H          -9.4462  -19.8654   20.4340 H       1  UNL1        0.2649
     14 C         -10.6470  -18.7680   21.8657 C.ar    1  UNL1        0.1168
     15 C         -10.8079  -18.9277   23.3484 C.ar    1  UNL1        0.0334
     16 C         -12.0624  -18.4560   24.0219 C.ar    1  UNL1        0.0029
     17 C         -13.1562  -17.8245   23.2125 C.ar    1  UNL1        0.0002
     18 C         -12.9954  -17.6648   21.7298 C.ar    1  UNL1        0.0029
     19 C         -11.7407  -18.1365   21.0563 C.ar    1  UNL1        0.0334
@<TRIPOS>BOND
     1     1     2    2
     2     2     4    1
     3     4     6    1
     4     6     7   ar
     5     7     8   ar
     6     8     9   ar
     7     9    10   ar
     8    10    11   ar
     9     2    12    1
    10    12    14    1
    11    14    15   ar
    12    15    16   ar
    13    16    17   ar
    14    17    18   ar
    15    18    19   ar
    16    11     6   ar
    17    19    14   ar
    18     1     3    1
    19     4     5    1
    20    12    13    1
@<TRIPOS>MOLECULE
*****
 19 20 0 0 0
SMALL
GASTEIGER

@<TRIPOS>ATOM
      1 N          -7.7846  -17.2527   21.3003 N.pl3   1  UNL1       -0.1290
      2 C          -7.9483  -18.2134   22.4405 C.cat   1  UNL1        0.3882
      3 H          -8.1994  -16.3609   21.3446 H       1  UNL1        0.3062
      4 N          -8.7439  -17.8155   23.6483 N.pl3   1  UNL1       -0.2421
      5 H          -8.2834  -17.5911   24.4890 H       1  UNL1        0.2649
      6 C         -10.2411  -17.7593   23.5750 C.ar    1  UNL1        0.1168
      7 C         -11.0681  -18.6978   24.4027 C.ar    1  UNL1        0.0334
      8 C         -12.5653  -18.6417   24.3295 C.ar    1  UNL1        0.0029
      9 C         -13.2353  -17.6470   23.4285 C.ar    1  UNL1        0.0002
     10 C         -12.4082  -16.7085   22.6008 C.ar    1  UNL1        0.0029
     11 C         -10.9111  -16.7647   22.6741 C.ar    1  UNL1        0.0334
     12 N          -7.3163  -19.5722   22.3730 N.pl3   1  UNL1       -0.2421
     13 H          -7.8104  -20.3613   22.6931 H       1  UNL1        0.2649
     14 C          -5.9317  -19.7285   21.8179 C.ar    1  UNL1        0.1168
     15 C          -4.7668  -19.0938   22.5181 C.ar    1  UNL1        0.0334
     16 C          -3.3821  -19.2502   21.9629 C.ar    1  UNL1        0.0029
     17 C          -3.1623  -20.0413   20.7075 C.ar    1  UNL1        0.0002
     18 C          -4.3271  -20.6760   20.0074 C.ar    1  UNL1        0.0029
     19 C          -5.7119  -20.5196   20.5626 C.ar    1  UNL1        0.0334
@<TRIPOS>BOND
     1     1     2    2
     2     2     4    1
     3     4     6    1
     4     6     7   ar
     5     7     8   ar
     6     8     9   ar
     7     9    10   ar
     8    10    11   ar
     9     2    12    1
    10    12    14    1
    11    14    15   ar
    12    15    16   ar
    13    16    17   ar
    14    17    18   ar
    15    18    19   ar
    16    11     6   ar
    17    19    14   ar
    18     1     3    1
    19     4     5    1
    20    12    13    1
@<TRIPOS>MOLECULE
*****
 19 20 0 0 0
SMALL
GASTEIGER

@<TRIPOS>ATOM
      1 N          -7.9754  -14.8247   21.4703 N.pl3   1  UNL1       -0.1290
      2 C          -8.6544  -15.9544   22.1863 C.cat   1  UNL1        0.3882
      3 H          -7.6503  -14.9501   20.5495 H       1  UNL1        0.3062
      4 N          -8.8380  -17.2752   21.4995 N.pl3   1  UNL1       -0.2421
      5 H          -9.7124  -17.5122   21.1140 H       1  UNL1        0.2649
      6 C          -7.6895  -18.2349   21.3999 C.ar    1  UNL1        0.1168
      7 C          -7.6873  -19.2944   20.3381 C.ar    1  UNL1        0.0334
      8 C          -6.5387  -20.2540   20.2386 C.ar    1  UNL1        0.0029
      9 C          -5.3924  -20.1541   21.2008 C.ar    1  UNL1        0.0002
     10 C          -5.3946  -19.0947   22.2627 C.ar    1  UNL1        0.0029
     11 C          -6.5431  -18.1351   22.3622 C.ar    1  UNL1        0.0334
     12 N          -9.1497  -15.7633   23.5893 N.pl3   1  UNL1       -0.2421
     13 H         -10.1168  -15.7165   23.7678 H       1  UNL1        0.2649
     14 C          -8.1717  -15.6435   24.7202 C.ar    1  UNL1        0.1168
     15 C          -6.7277  -15.3538   24.4355 C.ar    1  UNL1        0.0334
     16 C          -5.7497  -15.2340   25.5664 C.ar    1  UNL1        0.0029
     17 C          -6.2156  -15.4038   26.9821 C.ar    1  UNL1        0.0002
     18 C          -7.6595  -15.6934   27.2668 C.ar    1  UNL1        0.0029
     19 C          -8.6376  -15.8133   26.1358 C.ar    1  UNL1        0.0334
@<TRIPOS>BOND
     1     1     2    2
     2     2     4    1
     3     4     6    1
     4     6     7   ar
     5     7     8   ar
     6     8     9   ar
     7     9    10   ar
     8    10    11   ar
     9     2    12    1
    10    12    14    1
    11    14    15   ar
    12    15    16   ar
    13    16    17   ar
    14    17    18   ar
    15    18    19   ar
    16    11     6   ar
    17    19    14   ar
    18     1     3    1
    19     4     5    1
    20    12    13    1
